MODEL 1
REMARK VINA RESULT:      -7.5      0.000      0.000
REMARK  Name = 
REMARK  17 active torsions:
REMARK  status: ('A' for Active; 'I' for Inactive)
REMARK    1  A    between atoms: O_1  and  C_2
REMARK    2  A    between atoms: C_2  and  C_4
REMARK    3  A    between atoms: C_2  and  C_33
REMARK    4  A    between atoms: C_4  and  O_6
REMARK    5  A    between atoms: C_4  and  C_7
REMARK    6  A    between atoms: C_7  and  O_9
REMARK    7  A    between atoms: C_7  and  C_18
REMARK    8  A    between atoms: O_9  and  C_10
REMARK    9  A    between atoms: C_10  and  C_11
REMARK   10  A    between atoms: N_20  and  C_21
REMARK   11  A    between atoms: C_23  and  O_25
REMARK   12  A    between atoms: C_33  and  O_35
REMARK   13  A    between atoms: C_33  and  C_44
REMARK   14  A    between atoms: O_35  and  C_36
REMARK   15  A    between atoms: C_36  and  C_37
REMARK   16  A    between atoms: N_46  and  C_47
REMARK   17  A    between atoms: C_49  and  O_51
REMARK                            x       y       z     vdW  Elec       q    Type
REMARK                         _______ _______ _______ _____ _____    ______ ____
ROOT
ATOM      1  C   UNL     1       6.861  -1.740  23.940  0.00  0.00    +0.184 C 
ENDROOT
BRANCH   1   2
ATOM      2  O   UNL     1       6.297  -1.742  22.604  0.00  0.00    -0.386 OA
ATOM      3  H   UNL     1       7.056  -1.771  21.985  0.00  0.00    +0.210 HD
ENDBRANCH   1   2
BRANCH   1   4
ATOM      4  C   UNL     1       6.772  -0.274  24.399  0.00  0.00    +0.184 C 
BRANCH   4   5
ATOM      5  O   UNL     1       6.107   0.397  23.302  0.00  0.00    -0.386 OA
ATOM      6  H   UNL     1       5.239   0.695  23.647  0.00  0.00    +0.210 HD
ENDBRANCH   4   5
BRANCH   4   7
ATOM      7  C   UNL     1       5.928  -0.175  25.694  0.00  0.00    +0.235 C 
BRANCH   7   8
ATOM      8  C   UNL     1       5.535   1.295  25.928  0.00  0.00    +0.245 C 
ATOM      9  N   UNL     1       6.557   2.187  25.702  0.00  0.00    -0.304 N 
ATOM     10  H   UNL     1       7.503   1.836  25.698  0.00  0.00    +0.149 HD
ATOM     11  O   UNL     1       4.400   1.658  26.233  0.00  0.00    -0.273 OA
BRANCH   9  12
ATOM     12  C   UNL     1       6.332   3.613  25.828  0.00  0.00    +0.132 C 
ATOM     13  C   UNL     1       6.661   4.298  24.539  0.00  0.00    -0.022 A 
ATOM     14  C   UNL     1       7.655   5.262  24.698  0.00  0.00    -0.040 A 
ATOM     15  C   UNL     1       8.122   5.983  23.613  0.00  0.00    +0.004 A 
ATOM     16  C   UNL     1       7.580   5.723  22.352  0.00  0.00    +0.000 A 
ATOM     17  C   UNL     1       6.578   4.758  22.189  0.00  0.00    +0.000 A 
ATOM     18  C   UNL     1       8.118   5.363  26.117  0.00  0.00    +0.069 C 
ATOM     19  C   UNL     1       6.107   4.044  23.288  0.00  0.00    +0.006 A 
ATOM     20  C   UNL     1       7.283   4.297  26.859  0.00  0.00    +0.143 C 
BRANCH  20  21
ATOM     21  O   UNL     1       6.554   4.923  27.926  0.00  0.00    -0.389 OA
ATOM     22  H   UNL     1       7.058   4.808  28.748  0.00  0.00    +0.210 HD
ENDBRANCH  20  21
ENDBRANCH   9  12
ENDBRANCH   7   8
BRANCH   7  23
ATOM     23  O   UNL     1       4.713  -0.929  25.645  0.00  0.00    -0.360 OA
BRANCH  23  24
ATOM     24  C   UNL     1       4.710  -2.053  26.527  0.00  0.00    +0.199 C 
BRANCH  24  25
ATOM     25  C   UNL     1       3.397  -2.755  26.389  0.00  0.00    +0.013 A 
ATOM     26  C   UNL     1       3.011  -3.334  25.182  0.00  0.00    +0.129 A 
ATOM     27  F   UNL     1       3.835  -3.304  24.125  0.00  0.00    -0.205 F 
ATOM     28  C   UNL     1       1.765  -3.939  25.049  0.00  0.00    +0.039 A 
ATOM     29  C   UNL     1       0.887  -3.960  26.133  0.00  0.00    +0.003 A 
ATOM     30  C   UNL     1       1.256  -3.374  27.344  0.00  0.00    +0.001 A 
ATOM     31  C   UNL     1       2.505  -2.772  27.470  0.00  0.00    +0.009 A 
ENDBRANCH  24  25
ENDBRANCH  23  24
ENDBRANCH   7  23
ENDBRANCH   4   7
ENDBRANCH   1   4
BRANCH   1  32
ATOM     32  C   UNL     1       8.298  -2.305  23.933  0.00  0.00    +0.235 C 
BRANCH  32  33
ATOM     33  C   UNL     1       8.253  -3.765  24.408  0.00  0.00    +0.245 C 
ATOM     34  N   UNL     1       7.036  -4.174  24.921  0.00  0.00    -0.304 N 
ATOM     35  H   UNL     1       6.239  -3.564  24.770  0.00  0.00    +0.149 HD
ATOM     36  O   UNL     1       9.264  -4.467  24.422  0.00  0.00    -0.273 OA
BRANCH  34  37
ATOM     37  C   UNL     1       6.847  -5.447  25.594  0.00  0.00    +0.132 C 
ATOM     38  C   UNL     1       5.501  -6.041  25.297  0.00  0.00    -0.022 A 
ATOM     39  C   UNL     1       4.761  -6.285  26.454  0.00  0.00    -0.040 A 
ATOM     40  C   UNL     1       3.491  -6.844  26.391  0.00  0.00    +0.004 A 
ATOM     41  C   UNL     1       2.964  -7.166  25.138  0.00  0.00    +0.000 A 
ATOM     42  C   UNL     1       3.707  -6.929  23.975  0.00  0.00    +0.000 A 
ATOM     43  C   UNL     1       5.491  -5.863  27.688  0.00  0.00    +0.069 C 
ATOM     44  C   UNL     1       4.984  -6.368  24.049  0.00  0.00    +0.006 A 
ATOM     45  C   UNL     1       6.836  -5.322  27.156  0.00  0.00    +0.143 C 
BRANCH  45  46
ATOM     46  O   UNL     1       7.916  -6.058  27.749  0.00  0.00    -0.389 OA
ATOM     47  H   UNL     1       8.493  -5.424  28.208  0.00  0.00    +0.210 HD
ENDBRANCH  45  46
ENDBRANCH  34  37
ENDBRANCH  32  33
BRANCH  32  48
ATOM     48  O   UNL     1       8.865  -2.262  22.614  0.00  0.00    -0.360 OA
BRANCH  48  49
ATOM     49  C   UNL     1      10.153  -1.644  22.588  0.00  0.00    +0.199 C 
BRANCH  49  50
ATOM     50  C   UNL     1       9.973  -0.167  22.678  0.00  0.00    +0.013 A 
ATOM     51  C   UNL     1      10.367   0.535  23.811  0.00  0.00    +0.129 A 
ATOM     52  F   UNL     1      10.932  -0.109  24.842  0.00  0.00    -0.205 F 
ATOM     53  C   UNL     1      10.160   1.905  23.902  0.00  0.00    +0.039 A 
ATOM     54  C   UNL     1       9.539   2.580  22.851  0.00  0.00    +0.003 A 
ATOM     55  C   UNL     1       9.116   1.885  21.719  0.00  0.00    +0.001 A 
ATOM     56  C   UNL     1       9.328   0.513  21.634  0.00  0.00    +0.009 A 
ENDBRANCH  49  50
ENDBRANCH  48  49
ENDBRANCH  32  48
ENDBRANCH   1  32
TORSDOF 17
ENDMDL
MODEL 2
REMARK VINA RESULT:      -7.4      0.787      9.436
REMARK  Name = 
REMARK  17 active torsions:
REMARK  status: ('A' for Active; 'I' for Inactive)
REMARK    1  A    between atoms: O_1  and  C_2
REMARK    2  A    between atoms: C_2  and  C_4
REMARK    3  A    between atoms: C_2  and  C_33
REMARK    4  A    between atoms: C_4  and  O_6
REMARK    5  A    between atoms: C_4  and  C_7
REMARK    6  A    between atoms: C_7  and  O_9
REMARK    7  A    between atoms: C_7  and  C_18
REMARK    8  A    between atoms: O_9  and  C_10
REMARK    9  A    between atoms: C_10  and  C_11
REMARK   10  A    between atoms: N_20  and  C_21
REMARK   11  A    between atoms: C_23  and  O_25
REMARK   12  A    between atoms: C_33  and  O_35
REMARK   13  A    between atoms: C_33  and  C_44
REMARK   14  A    between atoms: O_35  and  C_36
REMARK   15  A    between atoms: C_36  and  C_37
REMARK   16  A    between atoms: N_46  and  C_47
REMARK   17  A    between atoms: C_49  and  O_51
REMARK                            x       y       z     vdW  Elec       q    Type
REMARK                         _______ _______ _______ _____ _____    ______ ____
ROOT
ATOM      1  C   UNL     1       6.739  -0.197  24.277  0.00  0.00    +0.184 C 
ENDROOT
BRANCH   1   2
ATOM      2  O   UNL     1       6.077   0.503  23.194  0.00  0.00    -0.386 OA
ATOM      3  H   UNL     1       5.342   1.008  23.601  0.00  0.00    +0.210 HD
ENDBRANCH   1   2
BRANCH   1   4
ATOM      4  C   UNL     1       6.832  -1.657  23.799  0.00  0.00    +0.184 C 
BRANCH   4   5
ATOM      5  O   UNL     1       6.380  -1.605  22.424  0.00  0.00    -0.386 OA
ATOM      6  H   UNL     1       6.036  -2.498  22.213  0.00  0.00    +0.210 HD
ENDBRANCH   4   5
BRANCH   4   7
ATOM      7  C   UNL     1       8.299  -2.147  23.873  0.00  0.00    +0.235 C 
BRANCH   7   8
ATOM      8  C   UNL     1       8.327  -3.571  24.456  0.00  0.00    +0.245 C 
ATOM      9  N   UNL     1       7.140  -3.960  25.030  0.00  0.00    -0.304 N 
ATOM     10  H   UNL     1       6.478  -3.243  25.290  0.00  0.00    +0.149 HD
ATOM     11  O   UNL     1       9.295  -4.325  24.372  0.00  0.00    -0.273 OA
BRANCH   9  12
ATOM     12  C   UNL     1       6.988  -5.294  25.577  0.00  0.00    +0.132 C 
ATOM     13  C   UNL     1       5.671  -5.869  25.161  0.00  0.00    -0.022 A 
ATOM     14  C   UNL     1       4.879  -6.208  26.255  0.00  0.00    -0.040 A 
ATOM     15  C   UNL     1       3.608  -6.727  26.077  0.00  0.00    +0.004 A 
ATOM     16  C   UNL     1       3.131  -6.900  24.775  0.00  0.00    +0.000 A 
ATOM     17  C   UNL     1       3.927  -6.565  23.672  0.00  0.00    +0.000 A 
ATOM     18  C   UNL     1       5.562  -5.918  27.555  0.00  0.00    +0.069 C 
ATOM     19  C   UNL     1       5.209  -6.053  23.861  0.00  0.00    +0.006 A 
ATOM     20  C   UNL     1       6.921  -5.315  27.136  0.00  0.00    +0.143 C 
BRANCH  20  21
ATOM     21  O   UNL     1       7.981  -6.096  27.707  0.00  0.00    -0.389 OA
ATOM     22  H   UNL     1       8.696  -6.161  27.052  0.00  0.00    +0.210 HD
ENDBRANCH  20  21
ENDBRANCH   9  12
ENDBRANCH   7   8
BRANCH   7  23
ATOM     23  O   UNL     1       8.950  -2.204  22.599  0.00  0.00    -0.360 OA
BRANCH  23  24
ATOM     24  C   UNL     1      10.231  -1.572  22.591  0.00  0.00    +0.199 C 
BRANCH  24  25
ATOM     25  C   UNL     1      10.027  -0.096  22.722  0.00  0.00    +0.013 A 
ATOM     26  C   UNL     1      10.389   0.583  23.883  0.00  0.00    +0.129 A 
ATOM     27  F   UNL     1      10.966  -0.076  24.898  0.00  0.00    -0.205 F 
ATOM     28  C   UNL     1      10.147   1.946  24.015  0.00  0.00    +0.039 A 
ATOM     29  C   UNL     1       9.528   2.643  22.977  0.00  0.00    +0.003 A 
ATOM     30  C   UNL     1       9.150   1.974  21.813  0.00  0.00    +0.001 A 
ATOM     31  C   UNL     1       9.397   0.609  21.687  0.00  0.00    +0.009 A 
ENDBRANCH  24  25
ENDBRANCH  23  24
ENDBRANCH   7  23
ENDBRANCH   4   7
ENDBRANCH   1   4
BRANCH   1  32
ATOM     32  C   UNL     1       5.965  -0.023  25.601  0.00  0.00    +0.235 C 
BRANCH  32  33
ATOM     33  C   UNL     1       5.515   1.441  25.717  0.00  0.00    +0.245 C 
ATOM     34  N   UNL     1       6.460   2.373  25.329  0.00  0.00    -0.304 N 
ATOM     35  H   UNL     1       7.276   2.030  24.833  0.00  0.00    +0.149 HD
ATOM     36  O   UNL     1       4.433   1.743  26.218  0.00  0.00    -0.273 OA
BRANCH  34  37
ATOM     37  C   UNL     1       6.300   3.801  25.544  0.00  0.00    +0.132 C 
ATOM     38  C   UNL     1       6.835   4.602  24.392  0.00  0.00    -0.022 A 
ATOM     39  C   UNL     1       7.813   5.513  24.789  0.00  0.00    -0.040 A 
ATOM     40  C   UNL     1       8.425   6.357  23.871  0.00  0.00    +0.004 A 
ATOM     41  C   UNL     1       8.036   6.280  22.532  0.00  0.00    +0.000 A 
ATOM     42  C   UNL     1       7.049   5.372  22.131  0.00  0.00    +0.000 A 
ATOM     43  C   UNL     1       8.097   5.433  26.255  0.00  0.00    +0.069 C 
ATOM     44  C   UNL     1       6.439   4.529  23.063  0.00  0.00    +0.006 A 
ATOM     45  C   UNL     1       7.132   4.338  26.759  0.00  0.00    +0.143 C 
BRANCH  45  46
ATOM     46  O   UNL     1       6.280   4.882  27.778  0.00  0.00    -0.389 OA
ATOM     47  H   UNL     1       6.503   5.822  27.886  0.00  0.00    +0.210 HD
ENDBRANCH  45  46
ENDBRANCH  34  37
ENDBRANCH  32  33
BRANCH  32  48
ATOM     48  O   UNL     1       4.806  -0.871  25.639  0.00  0.00    -0.360 OA
BRANCH  48  49
ATOM     49  C   UNL     1       4.873  -1.850  26.678  0.00  0.00    +0.199 C 
BRANCH  49  50
ATOM     50  C   UNL     1       3.597  -2.622  26.685  0.00  0.00    +0.013 A 
ATOM     51  C   UNL     1       3.066  -3.118  27.871  0.00  0.00    +0.129 A 
ATOM     52  F   UNL     1       3.690  -2.893  29.035  0.00  0.00    -0.205 F 
ATOM     53  C   UNL     1       1.898  -3.868  27.863  0.00  0.00    +0.039 A 
ATOM     54  C   UNL     1       1.260  -4.139  26.652  0.00  0.00    +0.003 A 
ATOM     55  C   UNL     1       1.795  -3.670  25.454  0.00  0.00    +0.001 A 
ATOM     56  C   UNL     1       2.964  -2.917  25.468  0.00  0.00    +0.009 A 
ENDBRANCH  49  50
ENDBRANCH  48  49
ENDBRANCH  32  48
ENDBRANCH   1  32
TORSDOF 17
ENDMDL
MODEL 3
REMARK VINA RESULT:      -6.9      2.081      4.567
REMARK  Name = 
REMARK  17 active torsions:
REMARK  status: ('A' for Active; 'I' for Inactive)
REMARK    1  A    between atoms: O_1  and  C_2
REMARK    2  A    between atoms: C_2  and  C_4
REMARK    3  A    between atoms: C_2  and  C_33
REMARK    4  A    between atoms: C_4  and  O_6
REMARK    5  A    between atoms: C_4  and  C_7
REMARK    6  A    between atoms: C_7  and  O_9
REMARK    7  A    between atoms: C_7  and  C_18
REMARK    8  A    between atoms: O_9  and  C_10
REMARK    9  A    between atoms: C_10  and  C_11
REMARK   10  A    between atoms: N_20  and  C_21
REMARK   11  A    between atoms: C_23  and  O_25
REMARK   12  A    between atoms: C_33  and  O_35
REMARK   13  A    between atoms: C_33  and  C_44
REMARK   14  A    between atoms: O_35  and  C_36
REMARK   15  A    between atoms: C_36  and  C_37
REMARK   16  A    between atoms: N_46  and  C_47
REMARK   17  A    between atoms: C_49  and  O_51
REMARK                            x       y       z     vdW  Elec       q    Type
REMARK                         _______ _______ _______ _____ _____    ______ ____
ROOT
ATOM      1  C   UNL     1       6.671  -1.712  24.086  0.00  0.00    +0.184 C 
ENDROOT
BRANCH   1   2
ATOM      2  O   UNL     1       6.406  -0.991  22.856  0.00  0.00    -0.386 OA
ATOM      3  H   UNL     1       5.748  -1.523  22.361  0.00  0.00    +0.210 HD
ENDBRANCH   1   2
BRANCH   1   4
ATOM      4  C   UNL     1       6.427  -0.681  25.202  0.00  0.00    +0.184 C 
BRANCH   4   5
ATOM      5  O   UNL     1       7.722  -0.534  25.834  0.00  0.00    -0.386 OA
ATOM      6  H   UNL     1       8.037   0.366  25.610  0.00  0.00    +0.210 HD
ENDBRANCH   4   5
BRANCH   4   7
ATOM      7  C   UNL     1       5.963   0.663  24.589  0.00  0.00    +0.235 C 
BRANCH   7   8
ATOM      8  C   UNL     1       5.067   1.398  25.602  0.00  0.00    +0.245 C 
ATOM      9  N   UNL     1       5.753   1.923  26.672  0.00  0.00    -0.304 N 
ATOM     10  H   UNL     1       6.674   1.563  26.872  0.00  0.00    +0.149 HD
ATOM     11  O   UNL     1       3.857   1.558  25.454  0.00  0.00    -0.273 OA
BRANCH   9  12
ATOM     12  C   UNL     1       5.059   2.690  27.687  0.00  0.00    +0.132 C 
ATOM     13  C   UNL     1       5.213   4.154  27.416  0.00  0.00    -0.022 A 
ATOM     14  C   UNL     1       5.818   4.822  28.478  0.00  0.00    -0.040 A 
ATOM     15  C   UNL     1       6.077   6.179  28.405  0.00  0.00    +0.004 A 
ATOM     16  C   UNL     1       5.724   6.868  27.242  0.00  0.00    +0.000 A 
ATOM     17  C   UNL     1       5.111   6.200  26.175  0.00  0.00    +0.000 A 
ATOM     18  C   UNL     1       6.141   3.900  29.611  0.00  0.00    +0.069 C 
ATOM     19  C   UNL     1       4.844   4.836  26.260  0.00  0.00    +0.006 A 
ATOM     20  C   UNL     1       5.669   2.516  29.113  0.00  0.00    +0.143 C 
BRANCH  20  21
ATOM     21  O   UNL     1       4.716   1.979  30.042  0.00  0.00    -0.389 OA
ATOM     22  H   UNL     1       3.891   2.485  29.957  0.00  0.00    +0.210 HD
ENDBRANCH  20  21
ENDBRANCH   9  12
ENDBRANCH   7   8
BRANCH   7  23
ATOM     23  O   UNL     1       7.040   1.548  24.266  0.00  0.00    -0.360 OA
BRANCH  23  24
ATOM     24  C   UNL     1       6.657   2.607  23.388  0.00  0.00    +0.199 C 
BRANCH  24  25
ATOM     25  C   UNL     1       7.384   3.847  23.801  0.00  0.00    +0.013 A 
ATOM     26  C   UNL     1       7.577   4.902  22.912  0.00  0.00    +0.129 A 
ATOM     27  F   UNL     1       7.076   4.838  21.671  0.00  0.00    -0.205 F 
ATOM     28  C   UNL     1       8.301   6.028  23.291  0.00  0.00    +0.039 A 
ATOM     29  C   UNL     1       8.848   6.101  24.572  0.00  0.00    +0.003 A 
ATOM     30  C   UNL     1       8.672   5.048  25.469  0.00  0.00    +0.001 A 
ATOM     31  C   UNL     1       7.945   3.924  25.084  0.00  0.00    +0.009 A 
ENDBRANCH  24  25
ENDBRANCH  23  24
ENDBRANCH   7  23
ENDBRANCH   4   7
ENDBRANCH   1   4
BRANCH   1  32
ATOM     32  C   UNL     1       8.098  -2.301  24.083  0.00  0.00    +0.235 C 
BRANCH  32  33
ATOM     33  C   UNL     1       8.016  -3.785  24.471  0.00  0.00    +0.245 C 
ATOM     34  N   UNL     1       6.845  -4.159  25.104  0.00  0.00    -0.304 N 
ATOM     35  H   UNL     1       6.077  -3.495  25.091  0.00  0.00    +0.149 HD
ATOM     36  O   UNL     1       8.973  -4.543  24.316  0.00  0.00    -0.273 OA
BRANCH  34  37
ATOM     37  C   UNL     1       6.656  -5.462  25.716  0.00  0.00    +0.132 C 
ATOM     38  C   UNL     1       5.316  -6.049  25.378  0.00  0.00    -0.022 A 
ATOM     39  C   UNL     1       4.566  -6.348  26.515  0.00  0.00    -0.040 A 
ATOM     40  C   UNL     1       3.299  -6.910  26.413  0.00  0.00    +0.004 A 
ATOM     41  C   UNL     1       2.787  -7.176  25.142  0.00  0.00    +0.000 A 
ATOM     42  C   UNL     1       3.540  -6.883  23.999  0.00  0.00    +0.000 A 
ATOM     43  C   UNL     1       5.280  -5.980  27.775  0.00  0.00    +0.069 C 
ATOM     44  C   UNL     1       4.813  -6.320  24.112  0.00  0.00    +0.006 A 
ATOM     45  C   UNL     1       6.628  -5.409  27.282  0.00  0.00    +0.143 C 
BRANCH  45  46
ATOM     46  O   UNL     1       7.706  -6.166  27.853  0.00  0.00    -0.389 OA
ATOM     47  H   UNL     1       7.611  -6.140  28.820  0.00  0.00    +0.210 HD
ENDBRANCH  45  46
ENDBRANCH  34  37
ENDBRANCH  32  33
BRANCH  32  48
ATOM     48  O   UNL     1       8.702  -2.192  22.784  0.00  0.00    -0.360 OA
BRANCH  48  49
ATOM     49  C   UNL     1      10.079  -1.814  22.847  0.00  0.00    +0.199 C 
BRANCH  49  50
ATOM     50  C   UNL     1      10.160  -0.326  22.904  0.00  0.00    +0.013 A 
ATOM     51  C   UNL     1       9.777   0.453  21.818  0.00  0.00    +0.129 A 
ATOM     52  F   UNL     1       9.311  -0.125  20.702  0.00  0.00    -0.205 F 
ATOM     53  C   UNL     1       9.892   1.836  21.866  0.00  0.00    +0.039 A 
ATOM     54  C   UNL     1      10.410   2.447  23.008  0.00  0.00    +0.003 A 
ATOM     55  C   UNL     1      10.821   1.675  24.094  0.00  0.00    +0.001 A 
ATOM     56  C   UNL     1      10.702   0.291  24.041  0.00  0.00    +0.009 A 
ENDBRANCH  49  50
ENDBRANCH  48  49
ENDBRANCH  32  48
ENDBRANCH   1  32
TORSDOF 17
ENDMDL
MODEL 4
REMARK VINA RESULT:      -6.9      2.115      3.969
REMARK  Name = 
REMARK  17 active torsions:
REMARK  status: ('A' for Active; 'I' for Inactive)
REMARK    1  A    between atoms: O_1  and  C_2
REMARK    2  A    between atoms: C_2  and  C_4
REMARK    3  A    between atoms: C_2  and  C_33
REMARK    4  A    between atoms: C_4  and  O_6
REMARK    5  A    between atoms: C_4  and  C_7
REMARK    6  A    between atoms: C_7  and  O_9
REMARK    7  A    between atoms: C_7  and  C_18
REMARK    8  A    between atoms: O_9  and  C_10
REMARK    9  A    between atoms: C_10  and  C_11
REMARK   10  A    between atoms: N_20  and  C_21
REMARK   11  A    between atoms: C_23  and  O_25
REMARK   12  A    between atoms: C_33  and  O_35
REMARK   13  A    between atoms: C_33  and  C_44
REMARK   14  A    between atoms: O_35  and  C_36
REMARK   15  A    between atoms: C_36  and  C_37
REMARK   16  A    between atoms: N_46  and  C_47
REMARK   17  A    between atoms: C_49  and  O_51
REMARK                            x       y       z     vdW  Elec       q    Type
REMARK                         _______ _______ _______ _____ _____    ______ ____
ROOT
ATOM      1  C   UNL     1       7.801  -0.326  24.562  0.00  0.00    +0.184 C 
ENDROOT
BRANCH   1   2
ATOM      2  O   UNL     1       7.013   0.799  24.095  0.00  0.00    -0.386 OA
ATOM      3  H   UNL     1       7.611   1.575  24.102  0.00  0.00    +0.210 HD
ENDBRANCH   1   2
BRANCH   1   4
ATOM      4  C   UNL     1       8.259   0.079  25.974  0.00  0.00    +0.184 C 
BRANCH   4   5
ATOM      5  O   UNL     1       8.043   1.511  26.016  0.00  0.00    -0.386 OA
ATOM      6  H   UNL     1       8.682   1.904  25.386  0.00  0.00    +0.210 HD
ENDBRANCH   4   5
BRANCH   4   7
ATOM      7  C   UNL     1       7.390  -0.636  27.038  0.00  0.00    +0.235 C 
BRANCH   7   8
ATOM      8  C   UNL     1       6.440   0.387  27.685  0.00  0.00    +0.245 C 
ATOM      9  N   UNL     1       5.332   0.676  26.924  0.00  0.00    -0.304 N 
ATOM     10  H   UNL     1       5.360   0.457  25.939  0.00  0.00    +0.149 HD
ATOM     11  O   UNL     1       6.612   0.867  28.804  0.00  0.00    -0.273 OA
BRANCH   9  12
ATOM     12  C   UNL     1       4.314   1.581  27.417  0.00  0.00    +0.132 C 
ATOM     13  C   UNL     1       3.083   0.815  27.786  0.00  0.00    -0.022 A 
ATOM     14  C   UNL     1       1.967   1.242  27.071  0.00  0.00    -0.040 A 
ATOM     15  C   UNL     1       0.737   0.633  27.246  0.00  0.00    +0.004 A 
ATOM     16  C   UNL     1       0.636  -0.425  28.153  0.00  0.00    +0.000 A 
ATOM     17  C   UNL     1       1.755  -0.854  28.878  0.00  0.00    +0.000 A 
ATOM     18  C   UNL     1       2.294   2.363  26.134  0.00  0.00    +0.069 C 
ATOM     19  C   UNL     1       2.988  -0.228  28.702  0.00  0.00    +0.006 A 
ATOM     20  C   UNL     1       3.809   2.587  26.336  0.00  0.00    +0.143 C 
BRANCH  20  21
ATOM     21  O   UNL     1       4.039   3.950  26.724  0.00  0.00    -0.389 OA
ATOM     22  H   UNL     1       3.741   4.526  26.000  0.00  0.00    +0.210 HD
ENDBRANCH  20  21
ENDBRANCH   9  12
ENDBRANCH   7   8
BRANCH   7  23
ATOM     23  O   UNL     1       6.575  -1.683  26.503  0.00  0.00    -0.360 OA
BRANCH  23  24
ATOM     24  C   UNL     1       6.125  -2.610  27.492  0.00  0.00    +0.199 C 
BRANCH  24  25
ATOM     25  C   UNL     1       4.712  -2.985  27.177  0.00  0.00    +0.013 A 
ATOM     26  C   UNL     1       3.989  -3.838  28.007  0.00  0.00    +0.129 A 
ATOM     27  F   UNL     1       4.541  -4.313  29.132  0.00  0.00    -0.205 F 
ATOM     28  C   UNL     1       2.693  -4.222  27.677  0.00  0.00    +0.039 A 
ATOM     29  C   UNL     1       2.112  -3.755  26.498  0.00  0.00    +0.003 A 
ATOM     30  C   UNL     1       2.828  -2.908  25.653  0.00  0.00    +0.001 A 
ATOM     31  C   UNL     1       4.124  -2.527  25.990  0.00  0.00    +0.009 A 
ENDBRANCH  24  25
ENDBRANCH  23  24
ENDBRANCH   7  23
ENDBRANCH   4   7
ENDBRANCH   1   4
BRANCH   1  32
ATOM     32  C   UNL     1       8.963  -0.626  23.591  0.00  0.00    +0.235 C 
BRANCH  32  33
ATOM     33  C   UNL     1       9.165  -2.147  23.524  0.00  0.00    +0.245 C 
ATOM     34  N   UNL     1       8.137  -2.897  24.065  0.00  0.00    -0.304 N 
ATOM     35  H   UNL     1       7.272  -2.412  24.280  0.00  0.00    +0.149 HD
ATOM     36  O   UNL     1      10.216  -2.637  23.112  0.00  0.00    -0.273 OA
BRANCH  34  37
ATOM     37  C   UNL     1       8.225  -4.332  24.269  0.00  0.00    +0.132 C 
ATOM     38  C   UNL     1       6.869  -4.958  24.424  0.00  0.00    -0.022 A 
ATOM     39  C   UNL     1       6.739  -5.650  25.628  0.00  0.00    -0.040 A 
ATOM     40  C   UNL     1       5.561  -6.310  25.954  0.00  0.00    +0.004 A 
ATOM     41  C   UNL     1       4.501  -6.271  25.046  0.00  0.00    +0.000 A 
ATOM     42  C   UNL     1       4.631  -5.583  23.834  0.00  0.00    +0.000 A 
ATOM     43  C   UNL     1       7.975  -5.563  26.465  0.00  0.00    +0.069 C 
ATOM     44  C   UNL     1       5.820  -4.925  23.514  0.00  0.00    +0.006 A 
ATOM     45  C   UNL     1       8.943  -4.720  25.607  0.00  0.00    +0.143 C 
BRANCH  45  46
ATOM     46  O   UNL     1      10.142  -5.470  25.361  0.00  0.00    -0.389 OA
ATOM     47  H   UNL     1       9.936  -6.412  25.479  0.00  0.00    +0.210 HD
ENDBRANCH  45  46
ENDBRANCH  34  37
ENDBRANCH  32  33
BRANCH  32  48
ATOM     48  O   UNL     1       8.677  -0.135  22.272  0.00  0.00    -0.360 OA
BRANCH  48  49
ATOM     49  C   UNL     1       9.625   0.838  21.829  0.00  0.00    +0.199 C 
BRANCH  49  50
ATOM     50  C   UNL     1       9.210   2.174  22.344  0.00  0.00    +0.013 A 
ATOM     51  C   UNL     1       9.950   2.825  23.324  0.00  0.00    +0.129 A 
ATOM     52  F   UNL     1      11.064   2.264  23.814  0.00  0.00    -0.205 F 
ATOM     53  C   UNL     1       9.535   4.052  23.825  0.00  0.00    +0.039 A 
ATOM     54  C   UNL     1       8.357   4.629  23.350  0.00  0.00    +0.003 A 
ATOM     55  C   UNL     1       7.593   3.975  22.385  0.00  0.00    +0.001 A 
ATOM     56  C   UNL     1       8.014   2.747  21.886  0.00  0.00    +0.009 A 
ENDBRANCH  49  50
ENDBRANCH  48  49
ENDBRANCH  32  48
ENDBRANCH   1  32
TORSDOF 17
ENDMDL
MODEL 5
REMARK VINA RESULT:      -6.9      1.671      2.197
REMARK  Name = 
REMARK  17 active torsions:
REMARK  status: ('A' for Active; 'I' for Inactive)
REMARK    1  A    between atoms: O_1  and  C_2
REMARK    2  A    between atoms: C_2  and  C_4
REMARK    3  A    between atoms: C_2  and  C_33
REMARK    4  A    between atoms: C_4  and  O_6
REMARK    5  A    between atoms: C_4  and  C_7
REMARK    6  A    between atoms: C_7  and  O_9
REMARK    7  A    between atoms: C_7  and  C_18
REMARK    8  A    between atoms: O_9  and  C_10
REMARK    9  A    between atoms: C_10  and  C_11
REMARK   10  A    between atoms: N_20  and  C_21
REMARK   11  A    between atoms: C_23  and  O_25
REMARK   12  A    between atoms: C_33  and  O_35
REMARK   13  A    between atoms: C_33  and  C_44
REMARK   14  A    between atoms: O_35  and  C_36
REMARK   15  A    between atoms: C_36  and  C_37
REMARK   16  A    between atoms: N_46  and  C_47
REMARK   17  A    between atoms: C_49  and  O_51
REMARK                            x       y       z     vdW  Elec       q    Type
REMARK                         _______ _______ _______ _____ _____    ______ ____
ROOT
ATOM      1  C   UNL     1       7.849  -0.460  24.705  0.00  0.00    +0.184 C 
ENDROOT
BRANCH   1   2
ATOM      2  O   UNL     1       7.021   0.597  24.156  0.00  0.00    -0.386 OA
ATOM      3  H   UNL     1       6.186   0.172  23.869  0.00  0.00    +0.210 HD
ENDBRANCH   1   2
BRANCH   1   4
ATOM      4  C   UNL     1       8.312   0.077  26.071  0.00  0.00    +0.184 C 
BRANCH   4   5
ATOM      5  O   UNL     1       8.579   1.479  25.825  0.00  0.00    -0.386 OA
ATOM      6  H   UNL     1       9.384   1.512  25.266  0.00  0.00    +0.210 HD
ENDBRANCH   4   5
BRANCH   4   7
ATOM      7  C   UNL     1       7.181  -0.089  27.116  0.00  0.00    +0.235 C 
BRANCH   7   8
ATOM      8  C   UNL     1       6.628   1.299  27.486  0.00  0.00    +0.245 C 
ATOM      9  N   UNL     1       5.884   1.886  26.490  0.00  0.00    -0.304 N 
ATOM     10  H   UNL     1       5.993   1.541  25.547  0.00  0.00    +0.149 HD
ATOM     11  O   UNL     1       6.781   1.824  28.588  0.00  0.00    -0.273 OA
BRANCH   9  12
ATOM     12  C   UNL     1       5.250   3.171  26.702  0.00  0.00    +0.132 C 
ATOM     13  C   UNL     1       4.676   3.677  25.416  0.00  0.00    -0.022 A 
ATOM     14  C   UNL     1       5.211   4.911  25.054  0.00  0.00    -0.040 A 
ATOM     15  C   UNL     1       4.830   5.531  23.877  0.00  0.00    +0.004 A 
ATOM     16  C   UNL     1       3.900   4.891  23.054  0.00  0.00    +0.000 A 
ATOM     17  C   UNL     1       3.356   3.652  23.417  0.00  0.00    +0.000 A 
ATOM     18  C   UNL     1       6.207   5.408  26.055  0.00  0.00    +0.069 C 
ATOM     19  C   UNL     1       3.738   3.040  24.609  0.00  0.00    +0.006 A 
ATOM     20  C   UNL     1       6.254   4.291  27.120  0.00  0.00    +0.143 C 
BRANCH  20  21
ATOM     21  O   UNL     1       5.933   4.847  28.404  0.00  0.00    -0.389 OA
ATOM     22  H   UNL     1       5.065   5.278  28.339  0.00  0.00    +0.210 HD
ENDBRANCH  20  21
ENDBRANCH   9  12
ENDBRANCH   7   8
BRANCH   7  23
ATOM     23  O   UNL     1       6.075  -0.866  26.645  0.00  0.00    -0.360 OA
BRANCH  23  24
ATOM     24  C   UNL     1       6.135  -2.235  27.050  0.00  0.00    +0.199 C 
BRANCH  24  25
ATOM     25  C   UNL     1       4.805  -2.863  26.778  0.00  0.00    +0.013 A 
ATOM     26  C   UNL     1       4.213  -2.783  25.520  0.00  0.00    +0.129 A 
ATOM     27  F   UNL     1       4.849  -2.169  24.512  0.00  0.00    -0.205 F 
ATOM     28  C   UNL     1       2.952  -3.326  25.291  0.00  0.00    +0.039 A 
ATOM     29  C   UNL     1       2.267  -3.949  26.334  0.00  0.00    +0.003 A 
ATOM     30  C   UNL     1       2.843  -4.026  27.602  0.00  0.00    +0.001 A 
ATOM     31  C   UNL     1       4.106  -3.483  27.823  0.00  0.00    +0.009 A 
ENDBRANCH  24  25
ENDBRANCH  23  24
ENDBRANCH   7  23
ENDBRANCH   4   7
ENDBRANCH   1   4
BRANCH   1  32
ATOM     32  C   UNL     1       9.008  -0.806  23.746  0.00  0.00    +0.235 C 
BRANCH  32  33
ATOM     33  C   UNL     1       9.252  -2.322  23.798  0.00  0.00    +0.245 C 
ATOM     34  N   UNL     1       8.163  -3.074  24.202  0.00  0.00    -0.304 N 
ATOM     35  H   UNL     1       7.264  -2.605  24.244  0.00  0.00    +0.149 HD
ATOM     36  O   UNL     1      10.367  -2.800  23.595  0.00  0.00    -0.273 OA
BRANCH  34  37
ATOM     37  C   UNL     1       8.247  -4.493  24.499  0.00  0.00    +0.132 C 
ATOM     38  C   UNL     1       6.899  -5.151  24.462  0.00  0.00    -0.022 A 
ATOM     39  C   UNL     1       6.584  -5.784  25.664  0.00  0.00    -0.040 A 
ATOM     40  C   UNL     1       5.382  -6.462  25.827  0.00  0.00    +0.004 A 
ATOM     41  C   UNL     1       4.489  -6.503  24.755  0.00  0.00    +0.000 A 
ATOM     42  C   UNL     1       4.805  -5.875  23.544  0.00  0.00    +0.000 A 
ATOM     43  C   UNL     1       7.660  -5.616  26.688  0.00  0.00    +0.069 C 
ATOM     44  C   UNL     1       6.016  -5.198  23.390  0.00  0.00    +0.006 A 
ATOM     45  C   UNL     1       8.740  -4.789  25.957  0.00  0.00    +0.143 C 
BRANCH  45  46
ATOM     46  O   UNL     1       9.979  -5.513  25.955  0.00  0.00    -0.389 OA
ATOM     47  H   UNL     1      10.139  -5.831  25.051  0.00  0.00    +0.210 HD
ENDBRANCH  45  46
ENDBRANCH  34  37
ENDBRANCH  32  33
BRANCH  32  48
ATOM     48  O   UNL     1       8.693  -0.431  22.395  0.00  0.00    -0.360 OA
BRANCH  48  49
ATOM     49  C   UNL     1       9.616   0.519  21.858  0.00  0.00    +0.199 C 
BRANCH  49  50
ATOM     50  C   UNL     1       9.173   1.886  22.255  0.00  0.00    +0.013 A 
ATOM     51  C   UNL     1       9.920   2.651  23.144  0.00  0.00    +0.129 A 
ATOM     52  F   UNL     1      11.065   2.172  23.650  0.00  0.00    -0.205 F 
ATOM     53  C   UNL     1       9.481   3.908  23.537  0.00  0.00    +0.039 A 
ATOM     54  C   UNL     1       8.272   4.401  23.047  0.00  0.00    +0.003 A 
ATOM     55  C   UNL     1       7.501   3.635  22.174  0.00  0.00    +0.001 A 
ATOM     56  C   UNL     1       7.947   2.377  21.782  0.00  0.00    +0.009 A 
ENDBRANCH  49  50
ENDBRANCH  48  49
ENDBRANCH  32  48
ENDBRANCH   1  32
TORSDOF 17
ENDMDL
MODEL 6
REMARK VINA RESULT:      -6.9      1.657      2.121
REMARK  Name = 
REMARK  17 active torsions:
REMARK  status: ('A' for Active; 'I' for Inactive)
REMARK    1  A    between atoms: O_1  and  C_2
REMARK    2  A    between atoms: C_2  and  C_4
REMARK    3  A    between atoms: C_2  and  C_33
REMARK    4  A    between atoms: C_4  and  O_6
REMARK    5  A    between atoms: C_4  and  C_7
REMARK    6  A    between atoms: C_7  and  O_9
REMARK    7  A    between atoms: C_7  and  C_18
REMARK    8  A    between atoms: O_9  and  C_10
REMARK    9  A    between atoms: C_10  and  C_11
REMARK   10  A    between atoms: N_20  and  C_21
REMARK   11  A    between atoms: C_23  and  O_25
REMARK   12  A    between atoms: C_33  and  O_35
REMARK   13  A    between atoms: C_33  and  C_44
REMARK   14  A    between atoms: O_35  and  C_36
REMARK   15  A    between atoms: C_36  and  C_37
REMARK   16  A    between atoms: N_46  and  C_47
REMARK   17  A    between atoms: C_49  and  O_51
REMARK                            x       y       z     vdW  Elec       q    Type
REMARK                         _______ _______ _______ _____ _____    ______ ____
ROOT
ATOM      1  C   UNL     1       7.654  -1.647  25.458  0.00  0.00    +0.184 C 
ENDROOT
BRANCH   1   2
ATOM      2  O   UNL     1       7.277  -0.535  24.606  0.00  0.00    -0.386 OA
ATOM      3  H   UNL     1       6.514  -0.101  25.042  0.00  0.00    +0.210 HD
ENDBRANCH   1   2
BRANCH   1   4
ATOM      4  C   UNL     1       8.068  -0.996  26.789  0.00  0.00    +0.184 C 
BRANCH   4   5
ATOM      5  O   UNL     1       8.894   0.125  26.389  0.00  0.00    -0.386 OA
ATOM      6  H   UNL     1       9.697   0.089  26.950  0.00  0.00    +0.210 HD
ENDBRANCH   4   5
BRANCH   4   7
ATOM      7  C   UNL     1       6.812  -0.505  27.552  0.00  0.00    +0.235 C 
BRANCH   7   8
ATOM      8  C   UNL     1       6.774   1.033  27.524  0.00  0.00    +0.245 C 
ATOM      9  N   UNL     1       6.383   1.558  26.315  0.00  0.00    -0.304 N 
ATOM     10  H   UNL     1       6.440   0.967  25.498  0.00  0.00    +0.149 HD
ATOM     11  O   UNL     1       7.011   1.740  28.502  0.00  0.00    -0.273 OA
BRANCH   9  12
ATOM     12  C   UNL     1       6.245   2.990  26.143  0.00  0.00    +0.132 C 
ATOM     13  C   UNL     1       5.415   3.282  24.933  0.00  0.00    -0.022 A 
ATOM     14  C   UNL     1       6.103   4.054  24.000  0.00  0.00    -0.040 A 
ATOM     15  C   UNL     1       5.516   4.403  22.797  0.00  0.00    +0.004 A 
ATOM     16  C   UNL     1       4.217   3.961  22.532  0.00  0.00    +0.000 A 
ATOM     17  C   UNL     1       3.520   3.189  23.470  0.00  0.00    +0.000 A 
ATOM     18  C   UNL     1       7.485   4.396  24.463  0.00  0.00    +0.069 C 
ATOM     19  C   UNL     1       4.116   2.851  24.683  0.00  0.00    +0.006 A 
ATOM     20  C   UNL     1       7.598   3.707  25.840  0.00  0.00    +0.143 C 
BRANCH  20  21
ATOM     21  O   UNL     1       7.918   4.689  26.837  0.00  0.00    -0.389 OA
ATOM     22  H   UNL     1       8.822   4.520  27.150  0.00  0.00    +0.210 HD
ENDBRANCH  20  21
ENDBRANCH   9  12
ENDBRANCH   7   8
BRANCH   7  23
ATOM     23  O   UNL     1       5.581  -0.964  26.983  0.00  0.00    -0.360 OA
BRANCH  23  24
ATOM     24  C   UNL     1       4.840  -1.817  27.857  0.00  0.00    +0.199 C 
BRANCH  24  25
ATOM     25  C   UNL     1       3.748  -2.464  27.067  0.00  0.00    +0.013 A 
ATOM     26  C   UNL     1       2.561  -2.870  27.673  0.00  0.00    +0.129 A 
ATOM     27  F   UNL     1       2.361  -2.651  28.980  0.00  0.00    -0.205 F 
ATOM     28  C   UNL     1       1.573  -3.518  26.939  0.00  0.00    +0.039 A 
ATOM     29  C   UNL     1       1.773  -3.773  25.582  0.00  0.00    +0.003 A 
ATOM     30  C   UNL     1       2.961  -3.382  24.965  0.00  0.00    +0.001 A 
ATOM     31  C   UNL     1       3.945  -2.732  25.705  0.00  0.00    +0.009 A 
ENDBRANCH  24  25
ENDBRANCH  23  24
ENDBRANCH   7  23
ENDBRANCH   4   7
ENDBRANCH   1   4
BRANCH   1  32
ATOM     32  C   UNL     1       8.769  -2.490  24.803  0.00  0.00    +0.235 C 
BRANCH  32  33
ATOM     33  C   UNL     1       8.450  -3.977  25.016  0.00  0.00    +0.245 C 
ATOM     34  N   UNL     1       7.277  -4.228  25.704  0.00  0.00    -0.304 N 
ATOM     35  H   UNL     1       6.641  -3.449  25.840  0.00  0.00    +0.149 HD
ATOM     36  O   UNL     1       9.242  -4.858  24.685  0.00  0.00    -0.273 OA
BRANCH  34  37
ATOM     37  C   UNL     1       6.900  -5.551  26.170  0.00  0.00    +0.132 C 
ATOM     38  C   UNL     1       5.638  -6.035  25.516  0.00  0.00    -0.022 A 
ATOM     39  C   UNL     1       4.647  -6.354  26.445  0.00  0.00    -0.040 A 
ATOM     40  C   UNL     1       3.407  -6.831  26.038  0.00  0.00    +0.004 A 
ATOM     41  C   UNL     1       3.169  -6.992  24.672  0.00  0.00    +0.000 A 
ATOM     42  C   UNL     1       4.164  -6.680  23.737  0.00  0.00    +0.000 A 
ATOM     43  C   UNL     1       5.090  -6.102  27.850  0.00  0.00    +0.069 C 
ATOM     44  C   UNL     1       5.408  -6.202  24.156  0.00  0.00    +0.006 A 
ATOM     45  C   UNL     1       6.537  -5.586  27.694  0.00  0.00    +0.143 C 
BRANCH  45  46
ATOM     46  O   UNL     1       7.431  -6.439  28.427  0.00  0.00    -0.389 OA
ATOM     47  H   UNL     1       7.982  -6.917  27.784  0.00  0.00    +0.210 HD
ENDBRANCH  45  46
ENDBRANCH  34  37
ENDBRANCH  32  33
BRANCH  32  48
ATOM     48  O   UNL     1       8.856  -2.229  23.393  0.00  0.00    -0.360 OA
BRANCH  48  49
ATOM     49  C   UNL     1      10.159  -1.804  22.990  0.00  0.00    +0.199 C 
BRANCH  49  50
ATOM     50  C   UNL     1      10.178  -0.314  22.942  0.00  0.00    +0.013 A 
ATOM     51  C   UNL     1       9.710   0.372  21.826  0.00  0.00    +0.129 A 
ATOM     52  F   UNL     1       9.219  -0.301  20.777  0.00  0.00    -0.205 F 
ATOM     53  C   UNL     1       9.766   1.759  21.775  0.00  0.00    +0.039 A 
ATOM     54  C   UNL     1      10.310   2.468  22.846  0.00  0.00    +0.003 A 
ATOM     55  C   UNL     1      10.805   1.791  23.959  0.00  0.00    +0.001 A 
ATOM     56  C   UNL     1      10.745   0.402  24.006  0.00  0.00    +0.009 A 
ENDBRANCH  49  50
ENDBRANCH  48  49
ENDBRANCH  32  48
ENDBRANCH   1  32
TORSDOF 17
ENDMDL
MODEL 7
REMARK VINA RESULT:      -6.8      2.095      9.226
REMARK  Name = 
REMARK  17 active torsions:
REMARK  status: ('A' for Active; 'I' for Inactive)
REMARK    1  A    between atoms: O_1  and  C_2
REMARK    2  A    between atoms: C_2  and  C_4
REMARK    3  A    between atoms: C_2  and  C_33
REMARK    4  A    between atoms: C_4  and  O_6
REMARK    5  A    between atoms: C_4  and  C_7
REMARK    6  A    between atoms: C_7  and  O_9
REMARK    7  A    between atoms: C_7  and  C_18
REMARK    8  A    between atoms: O_9  and  C_10
REMARK    9  A    between atoms: C_10  and  C_11
REMARK   10  A    between atoms: N_20  and  C_21
REMARK   11  A    between atoms: C_23  and  O_25
REMARK   12  A    between atoms: C_33  and  O_35
REMARK   13  A    between atoms: C_33  and  C_44
REMARK   14  A    between atoms: O_35  and  C_36
REMARK   15  A    between atoms: C_36  and  C_37
REMARK   16  A    between atoms: N_46  and  C_47
REMARK   17  A    between atoms: C_49  and  O_51
REMARK                            x       y       z     vdW  Elec       q    Type
REMARK                         _______ _______ _______ _____ _____    ______ ____
ROOT
ATOM      1  C   UNL     1       6.832  -1.125  25.256  0.00  0.00    +0.184 C 
ENDROOT
BRANCH   1   2
ATOM      2  O   UNL     1       5.613  -1.835  24.917  0.00  0.00    -0.386 OA
ATOM      3  H   UNL     1       5.357  -2.340  25.716  0.00  0.00    +0.210 HD
ENDBRANCH   1   2
BRANCH   1   4
ATOM      4  C   UNL     1       7.407  -1.892  26.460  0.00  0.00    +0.184 C 
BRANCH   4   5
ATOM      5  O   UNL     1       6.235  -2.377  27.159  0.00  0.00    -0.386 OA
ATOM      6  H   UNL     1       5.526  -2.455  26.487  0.00  0.00    +0.210 HD
ENDBRANCH   4   5
BRANCH   4   7
ATOM      7  C   UNL     1       8.278  -3.074  25.968  0.00  0.00    +0.235 C 
BRANCH   7   8
ATOM      8  C   UNL     1       7.614  -4.398  26.384  0.00  0.00    +0.245 C 
ATOM      9  N   UNL     1       6.502  -4.720  25.643  0.00  0.00    -0.304 N 
ATOM     10  H   UNL     1       6.046  -3.984  25.123  0.00  0.00    +0.149 HD
ATOM     11  O   UNL     1       8.058  -5.140  27.259  0.00  0.00    -0.273 OA
BRANCH   9  12
ATOM     12  C   UNL     1       5.794  -5.963  25.876  0.00  0.00    +0.132 C 
ATOM     13  C   UNL     1       4.582  -6.033  25.001  0.00  0.00    -0.022 A 
ATOM     14  C   UNL     1       3.409  -6.169  25.740  0.00  0.00    -0.040 A 
ATOM     15  C   UNL     1       2.178  -6.219  25.111  0.00  0.00    +0.004 A 
ATOM     16  C   UNL     1       2.132  -6.126  23.718  0.00  0.00    +0.000 A 
ATOM     17  C   UNL     1       3.310  -5.995  22.971  0.00  0.00    +0.000 A 
ATOM     18  C   UNL     1       3.675  -6.220  27.211  0.00  0.00    +0.069 C 
ATOM     19  C   UNL     1       4.546  -5.956  23.611  0.00  0.00    +0.006 A 
ATOM     20  C   UNL     1       5.209  -6.076  27.319  0.00  0.00    +0.143 C 
BRANCH  20  21
ATOM     21  O   UNL     1       5.743  -7.206  28.026  0.00  0.00    -0.389 OA
ATOM     22  H   UNL     1       6.144  -6.886  28.851  0.00  0.00    +0.210 HD
ENDBRANCH  20  21
ENDBRANCH   9  12
ENDBRANCH   7   8
BRANCH   7  23
ATOM     23  O   UNL     1       8.437  -3.115  24.546  0.00  0.00    -0.360 OA
BRANCH  23  24
ATOM     24  C   UNL     1       9.780  -2.880  24.121  0.00  0.00    +0.199 C 
BRANCH  24  25
ATOM     25  C   UNL     1       9.815  -1.587  23.370  0.00  0.00    +0.013 A 
ATOM     26  C   UNL     1      10.161  -0.394  24.001  0.00  0.00    +0.129 A 
ATOM     27  F   UNL     1      10.508  -0.392  25.296  0.00  0.00    -0.205 F 
ATOM     28  C   UNL     1      10.140   0.810  23.306  0.00  0.00    +0.039 A 
ATOM     29  C   UNL     1       9.760   0.829  21.963  0.00  0.00    +0.003 A 
ATOM     30  C   UNL     1       9.401  -0.356  21.322  0.00  0.00    +0.001 A 
ATOM     31  C   UNL     1       9.426  -1.559  22.023  0.00  0.00    +0.009 A 
ENDBRANCH  24  25
ENDBRANCH  23  24
ENDBRANCH   7  23
ENDBRANCH   4   7
ENDBRANCH   1   4
BRANCH   1  32
ATOM     32  C   UNL     1       6.540   0.363  25.547  0.00  0.00    +0.235 C 
BRANCH  32  33
ATOM     33  C   UNL     1       6.712   1.160  24.245  0.00  0.00    +0.245 C 
ATOM     34  N   UNL     1       7.119   2.471  24.413  0.00  0.00    -0.304 N 
ATOM     35  H   UNL     1       7.450   2.741  25.333  0.00  0.00    +0.149 HD
ATOM     36  O   UNL     1       6.404   0.681  23.154  0.00  0.00    -0.273 OA
BRANCH  34  37
ATOM     37  C   UNL     1       7.153   3.435  23.327  0.00  0.00    +0.132 C 
ATOM     38  C   UNL     1       8.086   4.574  23.621  0.00  0.00    -0.022 A 
ATOM     39  C   UNL     1       7.446   5.812  23.570  0.00  0.00    -0.040 A 
ATOM     40  C   UNL     1       8.142   6.991  23.802  0.00  0.00    +0.004 A 
ATOM     41  C   UNL     1       9.507   6.916  24.085  0.00  0.00    +0.000 A 
ATOM     42  C   UNL     1      10.154   5.676  24.130  0.00  0.00    +0.000 A 
ATOM     43  C   UNL     1       5.988   5.680  23.265  0.00  0.00    +0.069 C 
ATOM     44  C   UNL     1       9.446   4.495  23.894  0.00  0.00    +0.006 A 
ATOM     45  C   UNL     1       5.781   4.158  23.104  0.00  0.00    +0.143 C 
BRANCH  45  46
ATOM     46  O   UNL     1       5.248   3.882  21.800  0.00  0.00    -0.389 OA
ATOM     47  H   UNL     1       4.319   3.615  21.906  0.00  0.00    +0.210 HD
ENDBRANCH  45  46
ENDBRANCH  34  37
ENDBRANCH  32  33
BRANCH  32  48
ATOM     48  O   UNL     1       5.199   0.544  26.030  0.00  0.00    -0.360 OA
BRANCH  48  49
ATOM     49  C   UNL     1       5.158   1.082  27.353  0.00  0.00    +0.199 C 
BRANCH  49  50
ATOM     50  C   UNL     1       5.434   2.546  27.278  0.00  0.00    +0.013 A 
ATOM     51  C   UNL     1       6.553   3.096  27.895  0.00  0.00    +0.129 A 
ATOM     52  F   UNL     1       7.413   2.311  28.558  0.00  0.00    -0.205 F 
ATOM     53  C   UNL     1       6.781   4.465  27.852  0.00  0.00    +0.039 A 
ATOM     54  C   UNL     1       5.874   5.296  27.197  0.00  0.00    +0.003 A 
ATOM     55  C   UNL     1       4.736   4.761  26.596  0.00  0.00    +0.001 A 
ATOM     56  C   UNL     1       4.513   3.389  26.640  0.00  0.00    +0.009 A 
ENDBRANCH  49  50
ENDBRANCH  48  49
ENDBRANCH  32  48
ENDBRANCH   1  32
TORSDOF 17
ENDMDL
MODEL 8
REMARK VINA RESULT:      -6.8      2.135      8.480
REMARK  Name = 
REMARK  17 active torsions:
REMARK  status: ('A' for Active; 'I' for Inactive)
REMARK    1  A    between atoms: O_1  and  C_2
REMARK    2  A    between atoms: C_2  and  C_4
REMARK    3  A    between atoms: C_2  and  C_33
REMARK    4  A    between atoms: C_4  and  O_6
REMARK    5  A    between atoms: C_4  and  C_7
REMARK    6  A    between atoms: C_7  and  O_9
REMARK    7  A    between atoms: C_7  and  C_18
REMARK    8  A    between atoms: O_9  and  C_10
REMARK    9  A    between atoms: C_10  and  C_11
REMARK   10  A    between atoms: N_20  and  C_21
REMARK   11  A    between atoms: C_23  and  O_25
REMARK   12  A    between atoms: C_33  and  O_35
REMARK   13  A    between atoms: C_33  and  C_44
REMARK   14  A    between atoms: O_35  and  C_36
REMARK   15  A    between atoms: C_36  and  C_37
REMARK   16  A    between atoms: N_46  and  C_47
REMARK   17  A    between atoms: C_49  and  O_51
REMARK                            x       y       z     vdW  Elec       q    Type
REMARK                         _______ _______ _______ _____ _____    ______ ____
ROOT
ATOM      1  C   UNL     1       6.614  -0.497  24.222  0.00  0.00    +0.184 C 
ENDROOT
BRANCH   1   2
ATOM      2  O   UNL     1       5.549  -1.480  24.168  0.00  0.00    -0.386 OA
ATOM      3  H   UNL     1       5.348  -1.616  23.218  0.00  0.00    +0.210 HD
ENDBRANCH   1   2
BRANCH   1   4
ATOM      4  C   UNL     1       7.407  -0.852  25.492  0.00  0.00    +0.184 C 
BRANCH   4   5
ATOM      5  O   UNL     1       6.434  -1.502  26.344  0.00  0.00    -0.386 OA
ATOM      6  H   UNL     1       5.994  -0.790  26.853  0.00  0.00    +0.210 HD
ENDBRANCH   4   5
BRANCH   4   7
ATOM      7  C   UNL     1       8.562  -1.823  25.140  0.00  0.00    +0.235 C 
BRANCH   7   8
ATOM      8  C   UNL     1       8.283  -3.193  25.784  0.00  0.00    +0.245 C 
ATOM      9  N   UNL     1       7.279  -3.903  25.168  0.00  0.00    -0.304 N 
ATOM     10  H   UNL     1       6.633  -3.400  24.578  0.00  0.00    +0.149 HD
ATOM     11  O   UNL     1       8.928  -3.649  26.727  0.00  0.00    -0.273 OA
BRANCH   9  12
ATOM     12  C   UNL     1       6.932  -5.235  25.622  0.00  0.00    +0.132 C 
ATOM     13  C   UNL     1       5.655  -5.677  24.980  0.00  0.00    -0.022 A 
ATOM     14  C   UNL     1       4.674  -5.980  25.921  0.00  0.00    -0.040 A 
ATOM     15  C   UNL     1       3.409  -6.377  25.524  0.00  0.00    +0.004 A 
ATOM     16  C   UNL     1       3.133  -6.465  24.157  0.00  0.00    +0.000 A 
ATOM     17  C   UNL     1       4.119  -6.166  23.208  0.00  0.00    +0.000 A 
ATOM     18  C   UNL     1       5.163  -5.793  27.323  0.00  0.00    +0.069 C 
ATOM     19  C   UNL     1       5.392  -5.776  23.617  0.00  0.00    +0.006 A 
ATOM     20  C   UNL     1       6.616  -5.301  27.149  0.00  0.00    +0.143 C 
BRANCH  20  21
ATOM     21  O   UNL     1       7.504  -6.191  27.842  0.00  0.00    -0.389 OA
ATOM     22  H   UNL     1       8.402  -6.055  27.495  0.00  0.00    +0.210 HD
ENDBRANCH  20  21
ENDBRANCH   9  12
ENDBRANCH   7   8
BRANCH   7  23
ATOM     23  O   UNL     1       8.716  -2.046  23.735  0.00  0.00    -0.360 OA
BRANCH  23  24
ATOM     24  C   UNL     1      10.023  -1.730  23.253  0.00  0.00    +0.199 C 
BRANCH  24  25
ATOM     25  C   UNL     1      10.127  -0.245  23.116  0.00  0.00    +0.013 A 
ATOM     26  C   UNL     1       9.753   0.400  21.939  0.00  0.00    +0.129 A 
ATOM     27  F   UNL     1       9.254  -0.304  20.913  0.00  0.00    -0.205 F 
ATOM     28  C   UNL     1       9.903   1.776  21.803  0.00  0.00    +0.039 A 
ATOM     29  C   UNL     1      10.441   2.521  22.853  0.00  0.00    +0.003 A 
ATOM     30  C   UNL     1      10.829   1.888  24.033  0.00  0.00    +0.001 A 
ATOM     31  C   UNL     1      10.675   0.510  24.163  0.00  0.00    +0.009 A 
ENDBRANCH  24  25
ENDBRANCH  23  24
ENDBRANCH   7  23
ENDBRANCH   4   7
ENDBRANCH   1   4
BRANCH   1  32
ATOM     32  C   UNL     1       6.042   0.937  24.225  0.00  0.00    +0.235 C 
BRANCH  32  33
ATOM     33  C   UNL     1       5.286   1.160  25.543  0.00  0.00    +0.245 C 
ATOM     34  N   UNL     1       5.974   1.892  26.494  0.00  0.00    -0.304 N 
ATOM     35  H   UNL     1       6.813   2.375  26.190  0.00  0.00    +0.149 HD
ATOM     36  O   UNL     1       4.196   0.629  25.757  0.00  0.00    -0.273 OA
BRANCH  34  37
ATOM     37  C   UNL     1       5.513   2.046  27.862  0.00  0.00    +0.132 C 
ATOM     38  C   UNL     1       6.018   3.317  28.482  0.00  0.00    -0.022 A 
ATOM     39  C   UNL     1       6.744   3.085  29.650  0.00  0.00    -0.040 A 
ATOM     40  C   UNL     1       7.287   4.136  30.379  0.00  0.00    +0.004 A 
ATOM     41  C   UNL     1       7.088   5.440  29.921  0.00  0.00    +0.000 A 
ATOM     42  C   UNL     1       6.353   5.676  28.753  0.00  0.00    +0.000 A 
ATOM     43  C   UNL     1       6.856   1.628  29.965  0.00  0.00    +0.069 C 
ATOM     44  C   UNL     1       5.810   4.613  28.028  0.00  0.00    +0.006 A 
ATOM     45  C   UNL     1       6.069   0.943  28.827  0.00  0.00    +0.143 C 
BRANCH  45  46
ATOM     46  O   UNL     1       5.009   0.152  29.385  0.00  0.00    -0.389 OA
ATOM     47  H   UNL     1       5.312  -0.771  29.424  0.00  0.00    +0.210 HD
ENDBRANCH  45  46
ENDBRANCH  34  37
ENDBRANCH  32  33
BRANCH  32  48
ATOM     48  O   UNL     1       7.089   1.914  24.118  0.00  0.00    -0.360 OA
BRANCH  48  49
ATOM     49  C   UNL     1       6.711   3.041  23.325  0.00  0.00    +0.199 C 
BRANCH  49  50
ATOM     50  C   UNL     1       7.501   4.223  23.775  0.00  0.00    +0.013 A 
ATOM     51  C   UNL     1       7.812   5.254  22.894  0.00  0.00    +0.129 A 
ATOM     52  F   UNL     1       7.391   5.206  21.623  0.00  0.00    -0.205 F 
ATOM     53  C   UNL     1       8.580   6.332  23.312  0.00  0.00    +0.039 A 
ATOM     54  C   UNL     1       9.056   6.374  24.623  0.00  0.00    +0.003 A 
ATOM     55  C   UNL     1       8.773   5.336  25.508  0.00  0.00    +0.001 A 
ATOM     56  C   UNL     1       8.001   4.259  25.085  0.00  0.00    +0.009 A 
ENDBRANCH  49  50
ENDBRANCH  48  49
ENDBRANCH  32  48
ENDBRANCH   1  32
TORSDOF 17
ENDMDL
MODEL 9
REMARK VINA RESULT:      -6.7      2.083      8.497
REMARK  Name = 
REMARK  17 active torsions:
REMARK  status: ('A' for Active; 'I' for Inactive)
REMARK    1  A    between atoms: O_1  and  C_2
REMARK    2  A    between atoms: C_2  and  C_4
REMARK    3  A    between atoms: C_2  and  C_33
REMARK    4  A    between atoms: C_4  and  O_6
REMARK    5  A    between atoms: C_4  and  C_7
REMARK    6  A    between atoms: C_7  and  O_9
REMARK    7  A    between atoms: C_7  and  C_18
REMARK    8  A    between atoms: O_9  and  C_10
REMARK    9  A    between atoms: C_10  and  C_11
REMARK   10  A    between atoms: N_20  and  C_21
REMARK   11  A    between atoms: C_23  and  O_25
REMARK   12  A    between atoms: C_33  and  O_35
REMARK   13  A    between atoms: C_33  and  C_44
REMARK   14  A    between atoms: O_35  and  C_36
REMARK   15  A    between atoms: C_36  and  C_37
REMARK   16  A    between atoms: N_46  and  C_47
REMARK   17  A    between atoms: C_49  and  O_51
REMARK                            x       y       z     vdW  Elec       q    Type
REMARK                         _______ _______ _______ _____ _____    ______ ____
ROOT
ATOM      1  C   UNL     1       9.172  -0.601  24.821  0.00  0.00    +0.184 C 
ENDROOT
BRANCH   1   2
ATOM      2  O   UNL     1       9.928  -1.829  24.661  0.00  0.00    -0.386 OA
ATOM      3  H   UNL     1       9.994  -1.987  23.696  0.00  0.00    +0.210 HD
ENDBRANCH   1   2
BRANCH   1   4
ATOM      4  C   UNL     1       8.545  -0.709  26.221  0.00  0.00    +0.184 C 
BRANCH   4   5
ATOM      5  O   UNL     1       8.328   0.667  26.616  0.00  0.00    -0.386 OA
ATOM      6  H   UNL     1       8.103   1.156  25.797  0.00  0.00    +0.210 HD
ENDBRANCH   4   5
BRANCH   4   7
ATOM      7  C   UNL     1       7.200  -1.473  26.141  0.00  0.00    +0.235 C 
BRANCH   7   8
ATOM      8  C   UNL     1       7.455  -2.972  26.381  0.00  0.00    +0.245 C 
ATOM      9  N   UNL     1       6.335  -3.757  26.243  0.00  0.00    -0.304 N 
ATOM     10  H   UNL     1       5.431  -3.310  26.294  0.00  0.00    +0.149 HD
ATOM     11  O   UNL     1       8.565  -3.446  26.618  0.00  0.00    -0.273 OA
BRANCH   9  12
ATOM     12  C   UNL     1       6.421  -5.196  26.385  0.00  0.00    +0.132 C 
ATOM     13  C   UNL     1       5.216  -5.843  25.778  0.00  0.00    -0.022 A 
ATOM     14  C   UNL     1       4.509  -6.607  26.704  0.00  0.00    -0.040 A 
ATOM     15  C   UNL     1       3.344  -7.259  26.342  0.00  0.00    +0.004 A 
ATOM     16  C   UNL     1       2.885  -7.133  25.028  0.00  0.00    +0.000 A 
ATOM     17  C   UNL     1       3.596  -6.369  24.093  0.00  0.00    +0.000 A 
ATOM     18  C   UNL     1       5.151  -6.587  28.055  0.00  0.00    +0.069 C 
ATOM     19  C   UNL     1       4.773  -5.724  24.463  0.00  0.00    +0.006 A 
ATOM     20  C   UNL     1       6.381  -5.671  27.871  0.00  0.00    +0.143 C 
BRANCH  20  21
ATOM     21  O   UNL     1       7.568  -6.392  28.235  0.00  0.00    -0.389 OA
ATOM     22  H   UNL     1       7.419  -6.805  29.102  0.00  0.00    +0.210 HD
ENDBRANCH  20  21
ENDBRANCH   9  12
ENDBRANCH   7   8
BRANCH   7  23
ATOM     23  O   UNL     1       6.242  -1.051  27.117  0.00  0.00    -0.360 OA
BRANCH  23  24
ATOM     24  C   UNL     1       4.978  -0.700  26.553  0.00  0.00    +0.199 C 
BRANCH  24  25
ATOM     25  C   UNL     1       3.964  -1.697  27.015  0.00  0.00    +0.013 A 
ATOM     26  C   UNL     1       3.404  -2.619  26.133  0.00  0.00    +0.129 A 
ATOM     27  F   UNL     1       3.797  -2.653  24.852  0.00  0.00    -0.205 F 
ATOM     28  C   UNL     1       2.423  -3.508  26.562  0.00  0.00    +0.039 A 
ATOM     29  C   UNL     1       1.987  -3.472  27.886  0.00  0.00    +0.003 A 
ATOM     30  C   UNL     1       2.531  -2.547  28.777  0.00  0.00    +0.001 A 
ATOM     31  C   UNL     1       3.514  -1.661  28.342  0.00  0.00    +0.009 A 
ENDBRANCH  24  25
ENDBRANCH  23  24
ENDBRANCH   7  23
ENDBRANCH   4   7
ENDBRANCH   1   4
BRANCH   1  32
ATOM     32  C   UNL     1       8.140  -0.437  23.685  0.00  0.00    +0.235 C 
BRANCH  32  33
ATOM     33  C   UNL     1       8.500   0.814  22.871  0.00  0.00    +0.245 C 
ATOM     34  N   UNL     1       8.275   2.016  23.519  0.00  0.00    -0.304 N 
ATOM     35  H   UNL     1       8.082   1.978  24.515  0.00  0.00    +0.149 HD
ATOM     36  O   UNL     1       8.859   0.736  21.697  0.00  0.00    -0.273 OA
BRANCH  34  37
ATOM     37  C   UNL     1       8.370   3.304  22.854  0.00  0.00    +0.132 C 
ATOM     38  C   UNL     1       9.647   4.015  23.195  0.00  0.00    -0.022 A 
ATOM     39  C   UNL     1       9.422   5.273  23.753  0.00  0.00    -0.040 A 
ATOM     40  C   UNL     1      10.479   6.094  24.126  0.00  0.00    +0.004 A 
ATOM     41  C   UNL     1      11.782   5.636  23.926  0.00  0.00    +0.000 A 
ATOM     42  C   UNL     1      12.012   4.376  23.360  0.00  0.00    +0.000 A 
ATOM     43  C   UNL     1       7.964   5.574  23.895  0.00  0.00    +0.069 C 
ATOM     44  C   UNL     1      10.943   3.559  22.986  0.00  0.00    +0.006 A 
ATOM     45  C   UNL     1       7.271   4.319  23.321  0.00  0.00    +0.143 C 
BRANCH  45  46
ATOM     46  O   UNL     1       6.413   4.700  22.235  0.00  0.00    -0.389 OA
ATOM     47  H   UNL     1       5.496   4.678  22.556  0.00  0.00    +0.210 HD
ENDBRANCH  45  46
ENDBRANCH  34  37
ENDBRANCH  32  33
BRANCH  32  48
ATOM     48  O   UNL     1       8.143  -1.578  22.812  0.00  0.00    -0.360 OA
BRANCH  48  49
ATOM     49  C   UNL     1       6.838  -2.122  22.610  0.00  0.00    +0.199 C 
BRANCH  49  50
ATOM     50  C   UNL     1       6.970  -3.579  22.323  0.00  0.00    +0.013 A 
ATOM     51  C   UNL     1       6.193  -4.189  21.344  0.00  0.00    +0.129 A 
ATOM     52  F   UNL     1       5.318  -3.468  20.630  0.00  0.00    -0.205 F 
ATOM     53  C   UNL     1       6.296  -5.554  21.109  0.00  0.00    +0.039 A 
ATOM     54  C   UNL     1       7.177  -6.321  21.872  0.00  0.00    +0.003 A 
ATOM     55  C   UNL     1       7.943  -5.726  22.873  0.00  0.00    +0.001 A 
ATOM     56  C   UNL     1       7.837  -4.358  23.102  0.00  0.00    +0.009 A 
ENDBRANCH  49  50
ENDBRANCH  48  49
ENDBRANCH  32  48
ENDBRANCH   1  32
TORSDOF 17
ENDMDL
