MODEL 1
REMARK VINA RESULT:      -7.5      0.000      0.000
REMARK  Name = 
REMARK  8 active torsions:
REMARK  status: ('A' for Active; 'I' for Inactive)
REMARK    1  A    between atoms: C_2  and  C_4
REMARK    2  A    between atoms: C_11  and  N_13
REMARK    3  A    between atoms: N_16  and  C_17
REMARK    4  A    between atoms: C_17  and  C_18
REMARK    5  A    between atoms: C_18  and  C_19
REMARK    6  A    between atoms: C_19  and  C_20
REMARK    7  A    between atoms: C_20  and  C_21
REMARK    8  A    between atoms: C_27  and  C_30
REMARK                            x       y       z     vdW  Elec       q    Type
REMARK                         _______ _______ _______ _____ _____    ______ ____
ROOT
ATOM      1  N   UNL     1       7.305  -0.753  25.910  0.00  0.00    -0.327 N 
ATOM      2  C   UNL     1       6.879  -1.961  25.177  0.00  0.00    +0.120 C 
ATOM      3  C   UNL     1       5.379  -1.893  24.781  0.00  0.00    +0.103 C 
ATOM      4  N   UNL     1       4.442  -1.512  25.875  0.00  0.00    -0.299 NA
ATOM      5  C   UNL     1       4.926  -0.219  26.421  0.00  0.00    +0.103 C 
ATOM      6  C   UNL     1       6.381  -0.248  26.937  0.00  0.00    +0.120 C 
ENDROOT
BRANCH   1  12
ATOM      7  C   UNL     1      10.540   3.754  23.792  0.00  0.00    +0.190 A 
ATOM      8  O   UNL     1      11.176   2.538  23.760  0.00  0.00    -0.450 OA
ATOM      9  C   UNL     1      10.310   1.622  24.272  0.00  0.00    +0.136 A 
ATOM     10  C   UNL     1      10.563   0.266  24.427  0.00  0.00    +0.049 A 
ATOM     11  C   UNL     1       9.524  -0.497  24.978  0.00  0.00    +0.027 A 
ATOM     12  C   UNL     1       8.284   0.055  25.354  0.00  0.00    +0.031 A 
ATOM     13  C   UNL     1       8.091   1.436  25.169  0.00  0.00    +0.034 A 
ATOM     14  C   UNL     1       9.116   2.230  24.627  0.00  0.00    +0.023 A 
ATOM     15  C   UNL     1       9.271   3.604  24.319  0.00  0.00    +0.063 A 
BRANCH   7  19
ATOM     16  N   UNL     1      10.429   6.019  23.108  0.00  0.00    -0.323 N 
ATOM     17  H   UNL     1       9.442   5.984  23.330  0.00  0.00    +0.145 HD
ATOM     18  H   UNL     1      10.855   6.880  22.804  0.00  0.00    +0.145 HD
ATOM     19  C   UNL     1      11.226   4.929  23.312  0.00  0.00    +0.277 C 
ATOM     20  O   UNL     1      12.432   4.994  23.097  0.00  0.00    -0.267 OA
ENDBRANCH   7  19
ENDBRANCH   1  12
BRANCH   4  21
ATOM     21  C   UNL     1       4.403  -2.584  26.885  0.00  0.00    +0.084 C 
BRANCH  21  22
ATOM     22  C   UNL     1       3.348  -3.669  26.630  0.00  0.00    +0.016 C 
BRANCH  22  23
ATOM     23  C   UNL     1       3.404  -4.793  27.672  0.00  0.00    +0.006 C 
BRANCH  23  24
ATOM     24  C   UNL     1       4.083  -6.057  27.134  0.00  0.00    +0.037 C 
BRANCH  24  25
ATOM     25  C   UNL     1       5.550  -5.887  26.929  0.00  0.00    -0.022 A 
ATOM     26  C   UNL     1       6.218  -5.661  25.683  0.00  0.00    +0.004 A 
ATOM     27  C   UNL     1       5.788  -5.563  24.341  0.00  0.00    +0.029 A 
ATOM     28  C   UNL     1       6.725  -5.291  23.335  0.00  0.00    +0.052 A 
ATOM     29  C   UNL     1       8.076  -5.122  23.652  0.00  0.00    +0.021 A 
ATOM     30  C   UNL     1       8.524  -5.225  24.974  0.00  0.00    +0.027 A 
ATOM     31  C   UNL     1       7.572  -5.495  25.963  0.00  0.00    +0.047 A 
ATOM     32  N   UNL     1       7.726  -5.640  27.323  0.00  0.00    -0.360 N 
ATOM     33  H   UNL     1       8.606  -5.568  27.812  0.00  0.00    +0.165 HD
ATOM     34  C   UNL     1       6.514  -5.871  27.914  0.00  0.00    +0.087 A 
BRANCH  28  35
ATOM     35  C   UNL     1       6.290  -5.174  21.972  0.00  0.00    +0.099 C 
ATOM     36  N   UNL     1       5.939  -5.075  20.871  0.00  0.00    -0.191 NA
ENDBRANCH  28  35
ENDBRANCH  24  25
ENDBRANCH  23  24
ENDBRANCH  22  23
ENDBRANCH  21  22
ENDBRANCH   4  21
TORSDOF 8
ENDMDL
MODEL 2
REMARK VINA RESULT:      -7.5      3.738      9.758
REMARK  Name = 
REMARK  8 active torsions:
REMARK  status: ('A' for Active; 'I' for Inactive)
REMARK    1  A    between atoms: C_2  and  C_4
REMARK    2  A    between atoms: C_11  and  N_13
REMARK    3  A    between atoms: N_16  and  C_17
REMARK    4  A    between atoms: C_17  and  C_18
REMARK    5  A    between atoms: C_18  and  C_19
REMARK    6  A    between atoms: C_19  and  C_20
REMARK    7  A    between atoms: C_20  and  C_21
REMARK    8  A    between atoms: C_27  and  C_30
REMARK                            x       y       z     vdW  Elec       q    Type
REMARK                         _______ _______ _______ _____ _____    ______ ____
ROOT
ATOM      1  N   UNL     1       8.274  -1.737  24.096  0.00  0.00    -0.327 N 
ATOM      2  C   UNL     1       7.632  -1.196  22.883  0.00  0.00    +0.120 C 
ATOM      3  C   UNL     1       8.612  -1.171  21.678  0.00  0.00    +0.103 C 
ATOM      4  N   UNL     1       9.950  -0.573  21.950  0.00  0.00    -0.299 NA
ATOM      5  C   UNL     1      10.519  -1.308  23.106  0.00  0.00    +0.103 C 
ATOM      6  C   UNL     1       9.643  -1.277  24.377  0.00  0.00    +0.120 C 
ENDROOT
BRANCH   1  12
ATOM      7  C   UNL     1       5.863  -5.868  27.617  0.00  0.00    +0.190 A 
ATOM      8  O   UNL     1       6.203  -6.320  26.366  0.00  0.00    -0.450 OA
ATOM      9  C   UNL     1       6.737  -5.265  25.693  0.00  0.00    +0.136 A 
ATOM     10  C   UNL     1       7.203  -5.290  24.386  0.00  0.00    +0.049 A 
ATOM     11  C   UNL     1       7.716  -4.084  23.889  0.00  0.00    +0.027 A 
ATOM     12  C   UNL     1       7.771  -2.902  24.654  0.00  0.00    +0.031 A 
ATOM     13  C   UNL     1       7.283  -2.944  25.973  0.00  0.00    +0.034 A 
ATOM     14  C   UNL     1       6.756  -4.137  26.498  0.00  0.00    +0.023 A 
ATOM     15  C   UNL     1       6.189  -4.531  27.735  0.00  0.00    +0.063 A 
BRANCH   7  19
ATOM     16  N   UNL     1       3.988  -7.167  28.255  0.00  0.00    -0.323 N 
ATOM     17  H   UNL     1       3.548  -6.858  27.398  0.00  0.00    +0.145 HD
ATOM     18  H   UNL     1       3.525  -7.827  28.860  0.00  0.00    +0.145 HD
ATOM     19  C   UNL     1       5.261  -6.777  28.562  0.00  0.00    +0.277 C 
ATOM     20  O   UNL     1       5.812  -7.200  29.573  0.00  0.00    -0.267 OA
ENDBRANCH   7  19
ENDBRANCH   1  12
BRANCH   4  21
ATOM     21  C   UNL     1       9.801   0.870  22.202  0.00  0.00    +0.084 C 
BRANCH  21  22
ATOM     22  C   UNL     1       8.695   1.554  21.387  0.00  0.00    +0.016 C 
BRANCH  22  23
ATOM     23  C   UNL     1       7.864   2.528  22.232  0.00  0.00    +0.006 C 
BRANCH  23  24
ATOM     24  C   UNL     1       8.052   2.306  23.737  0.00  0.00    +0.037 C 
BRANCH  24  25
ATOM     25  C   UNL     1       8.288   3.572  24.487  0.00  0.00    -0.022 A 
ATOM     26  C   UNL     1       9.420   4.440  24.364  0.00  0.00    +0.004 A 
ATOM     27  C   UNL     1      10.607   4.404  23.601  0.00  0.00    +0.029 A 
ATOM     28  C   UNL     1      11.519   5.466  23.692  0.00  0.00    +0.052 A 
ATOM     29  C   UNL     1      11.259   6.552  24.533  0.00  0.00    +0.021 A 
ATOM     30  C   UNL     1      10.092   6.602  25.305  0.00  0.00    +0.027 A 
ATOM     31  C   UNL     1       9.196   5.533  25.198  0.00  0.00    +0.047 A 
ATOM     32  N   UNL     1       7.988   5.326  25.824  0.00  0.00    -0.360 N 
ATOM     33  H   UNL     1       7.568   5.960  26.487  0.00  0.00    +0.165 HD
ATOM     34  C   UNL     1       7.431   4.151  25.399  0.00  0.00    +0.087 A 
BRANCH  28  35
ATOM     35  C   UNL     1      12.719   5.441  22.906  0.00  0.00    +0.099 C 
ATOM     36  N   UNL     1      13.691   5.422  22.274  0.00  0.00    -0.191 NA
ENDBRANCH  28  35
ENDBRANCH  24  25
ENDBRANCH  23  24
ENDBRANCH  22  23
ENDBRANCH  21  22
ENDBRANCH   4  21
TORSDOF 8
ENDMDL
MODEL 3
REMARK VINA RESULT:      -7.5      4.094     10.113
REMARK  Name = 
REMARK  8 active torsions:
REMARK  status: ('A' for Active; 'I' for Inactive)
REMARK    1  A    between atoms: C_2  and  C_4
REMARK    2  A    between atoms: C_11  and  N_13
REMARK    3  A    between atoms: N_16  and  C_17
REMARK    4  A    between atoms: C_17  and  C_18
REMARK    5  A    between atoms: C_18  and  C_19
REMARK    6  A    between atoms: C_19  and  C_20
REMARK    7  A    between atoms: C_20  and  C_21
REMARK    8  A    between atoms: C_27  and  C_30
REMARK                            x       y       z     vdW  Elec       q    Type
REMARK                         _______ _______ _______ _____ _____    ______ ____
ROOT
ATOM      1  N   UNL     1       7.584  -2.583  24.027  0.00  0.00    -0.327 N 
ATOM      2  C   UNL     1       7.405  -1.940  22.711  0.00  0.00    +0.120 C 
ATOM      3  C   UNL     1       8.691  -2.036  21.845  0.00  0.00    +0.103 C 
ATOM      4  N   UNL     1       9.955  -1.633  22.525  0.00  0.00    -0.299 NA
ATOM      5  C   UNL     1      10.057  -2.456  23.756  0.00  0.00    +0.103 C 
ATOM      6  C   UNL     1       8.857  -2.321  24.718  0.00  0.00    +0.120 C 
ENDROOT
BRANCH   1  12
ATOM      7  C   UNL     1       3.491  -6.881  24.214  0.00  0.00    +0.190 A 
ATOM      8  O   UNL     1       4.424  -6.945  25.219  0.00  0.00    -0.450 OA
ATOM      9  C   UNL     1       5.279  -5.902  25.036  0.00  0.00    +0.136 A 
ATOM     10  C   UNL     1       6.377  -5.606  25.831  0.00  0.00    +0.049 A 
ATOM     11  C   UNL     1       7.123  -4.478  25.459  0.00  0.00    +0.027 A 
ATOM     12  C   UNL     1       6.794  -3.674  24.351  0.00  0.00    +0.031 A 
ATOM     13  C   UNL     1       5.667  -4.028  23.587  0.00  0.00    +0.034 A 
ATOM     14  C   UNL     1       4.903  -5.157  23.929  0.00  0.00    +0.023 A 
ATOM     15  C   UNL     1       3.753  -5.795  23.402  0.00  0.00    +0.063 A 
BRANCH   7  19
ATOM     16  N   UNL     1       1.402  -7.559  23.329  0.00  0.00    -0.323 N 
ATOM     17  H   UNL     1       1.410  -6.703  22.790  0.00  0.00    +0.145 HD
ATOM     18  H   UNL     1       0.656  -8.228  23.215  0.00  0.00    +0.145 HD
ATOM     19  C   UNL     1       2.449  -7.876  24.147  0.00  0.00    +0.277 C 
ATOM     20  O   UNL     1       2.460  -8.942  24.754  0.00  0.00    -0.267 OA
ENDBRANCH   7  19
ENDBRANCH   1  12
BRANCH   4  21
ATOM     21  C   UNL     1       9.925  -0.187  22.802  0.00  0.00    +0.084 C 
BRANCH  21  22
ATOM     22  C   UNL     1       9.407   0.677  21.644  0.00  0.00    +0.016 C 
BRANCH  22  23
ATOM     23  C   UNL     1       8.691   1.942  22.135  0.00  0.00    +0.006 C 
BRANCH  23  24
ATOM     24  C   UNL     1       8.327   1.870  23.623  0.00  0.00    +0.037 C 
BRANCH  24  25
ATOM     25  C   UNL     1       8.395   3.194  24.303  0.00  0.00    -0.022 A 
ATOM     26  C   UNL     1       9.457   4.150  24.210  0.00  0.00    +0.004 A 
ATOM     27  C   UNL     1      10.702   4.174  23.545  0.00  0.00    +0.029 A 
ATOM     28  C   UNL     1      11.511   5.315  23.635  0.00  0.00    +0.052 A 
ATOM     29  C   UNL     1      11.093   6.422  24.379  0.00  0.00    +0.021 A 
ATOM     30  C   UNL     1       9.867   6.415  25.054  0.00  0.00    +0.027 A 
ATOM     31  C   UNL     1       9.074   5.267  24.950  0.00  0.00    +0.047 A 
ATOM     32  N   UNL     1       7.840   4.991  25.493  0.00  0.00    -0.360 N 
ATOM     33  H   UNL     1       7.316   5.625  26.078  0.00  0.00    +0.165 HD
ATOM     34  C   UNL     1       7.419   3.748  25.105  0.00  0.00    +0.087 A 
BRANCH  28  35
ATOM     35  C   UNL     1      12.770   5.349  22.947  0.00  0.00    +0.099 C 
ATOM     36  N   UNL     1      13.786   5.379  22.388  0.00  0.00    -0.191 NA
ENDBRANCH  28  35
ENDBRANCH  24  25
ENDBRANCH  23  24
ENDBRANCH  22  23
ENDBRANCH  21  22
ENDBRANCH   4  21
TORSDOF 8
ENDMDL
MODEL 4
REMARK VINA RESULT:      -7.4      4.353     10.499
REMARK  Name = 
REMARK  8 active torsions:
REMARK  status: ('A' for Active; 'I' for Inactive)
REMARK    1  A    between atoms: C_2  and  C_4
REMARK    2  A    between atoms: C_11  and  N_13
REMARK    3  A    between atoms: N_16  and  C_17
REMARK    4  A    between atoms: C_17  and  C_18
REMARK    5  A    between atoms: C_18  and  C_19
REMARK    6  A    between atoms: C_19  and  C_20
REMARK    7  A    between atoms: C_20  and  C_21
REMARK    8  A    between atoms: C_27  and  C_30
REMARK                            x       y       z     vdW  Elec       q    Type
REMARK                         _______ _______ _______ _____ _____    ______ ____
ROOT
ATOM      1  N   UNL     1       7.239  -4.579  24.280  0.00  0.00    -0.327 N 
ATOM      2  C   UNL     1       7.882  -3.680  25.257  0.00  0.00    +0.120 C 
ATOM      3  C   UNL     1       7.724  -2.188  24.853  0.00  0.00    +0.103 C 
ATOM      4  N   UNL     1       8.074  -1.863  23.441  0.00  0.00    -0.299 NA
ATOM      5  C   UNL     1       7.253  -2.754  22.584  0.00  0.00    +0.103 C 
ATOM      6  C   UNL     1       7.447  -4.261  22.858  0.00  0.00    +0.120 C 
ENDROOT
BRANCH   1  12
ATOM      7  C   UNL     1       2.381  -7.972  24.674  0.00  0.00    +0.190 A 
ATOM      8  O   UNL     1       3.052  -7.805  25.860  0.00  0.00    -0.450 OA
ATOM      9  C   UNL     1       4.126  -7.011  25.603  0.00  0.00    +0.136 A 
ATOM     10  C   UNL     1       5.074  -6.604  26.530  0.00  0.00    +0.049 A 
ATOM     11  C   UNL     1       6.102  -5.783  26.045  0.00  0.00    +0.027 A 
ATOM     12  C   UNL     1       6.186  -5.377  24.699  0.00  0.00    +0.031 A 
ATOM     13  C   UNL     1       5.192  -5.824  23.809  0.00  0.00    +0.034 A 
ATOM     14  C   UNL     1       4.153  -6.654  24.263  0.00  0.00    +0.023 A 
ATOM     15  C   UNL     1       3.029  -7.279  23.670  0.00  0.00    +0.063 A 
BRANCH   7  19
ATOM     16  N   UNL     1       0.598  -8.887  23.412  0.00  0.00    -0.323 N 
ATOM     17  H   UNL     1       1.016  -8.450  22.601  0.00  0.00    +0.145 HD
ATOM     18  H   UNL     1      -0.222  -9.466  23.316  0.00  0.00    +0.145 HD
ATOM     19  C   UNL     1       1.189  -8.784  24.640  0.00  0.00    +0.277 C 
ATOM     20  O   UNL     1       0.709  -9.362  25.609  0.00  0.00    -0.267 OA
ENDBRANCH   7  19
ENDBRANCH   1  12
BRANCH   4  21
ATOM     21  C   UNL     1       9.521  -2.044  23.239  0.00  0.00    +0.084 C 
BRANCH  21  22
ATOM     22  C   UNL     1      10.121  -1.200  22.105  0.00  0.00    +0.016 C 
BRANCH  22  23
ATOM     23  C   UNL     1      10.027   0.305  22.386  0.00  0.00    +0.006 C 
BRANCH  23  24
ATOM     24  C   UNL     1      10.170   0.633  23.877  0.00  0.00    +0.037 C 
BRANCH  24  25
ATOM     25  C   UNL     1       9.630   1.977  24.231  0.00  0.00    -0.022 A 
ATOM     26  C   UNL     1      10.235   3.243  23.948  0.00  0.00    +0.004 A 
ATOM     27  C   UNL     1      11.443   3.639  23.334  0.00  0.00    +0.029 A 
ATOM     28  C   UNL     1      11.723   5.004  23.179  0.00  0.00    +0.052 A 
ATOM     29  C   UNL     1      10.819   5.968  23.631  0.00  0.00    +0.021 A 
ATOM     30  C   UNL     1       9.620   5.597  24.252  0.00  0.00    +0.027 A 
ATOM     31  C   UNL     1       9.359   4.230  24.395  0.00  0.00    +0.047 A 
ATOM     32  N   UNL     1       8.276   3.589  24.950  0.00  0.00    -0.360 N 
ATOM     33  H   UNL     1       7.478   4.056  25.356  0.00  0.00    +0.165 HD
ATOM     34  C   UNL     1       8.425   2.233  24.852  0.00  0.00    +0.087 A 
BRANCH  28  35
ATOM     35  C   UNL     1      12.942   5.411  22.539  0.00  0.00    +0.099 C 
ATOM     36  N   UNL     1      13.929   5.736  22.024  0.00  0.00    -0.191 NA
ENDBRANCH  28  35
ENDBRANCH  24  25
ENDBRANCH  23  24
ENDBRANCH  22  23
ENDBRANCH  21  22
ENDBRANCH   4  21
TORSDOF 8
ENDMDL
MODEL 5
REMARK VINA RESULT:      -7.3      3.813      8.194
REMARK  Name = 
REMARK  8 active torsions:
REMARK  status: ('A' for Active; 'I' for Inactive)
REMARK    1  A    between atoms: C_2  and  C_4
REMARK    2  A    between atoms: C_11  and  N_13
REMARK    3  A    between atoms: N_16  and  C_17
REMARK    4  A    between atoms: C_17  and  C_18
REMARK    5  A    between atoms: C_18  and  C_19
REMARK    6  A    between atoms: C_19  and  C_20
REMARK    7  A    between atoms: C_20  and  C_21
REMARK    8  A    between atoms: C_27  and  C_30
REMARK                            x       y       z     vdW  Elec       q    Type
REMARK                         _______ _______ _______ _____ _____    ______ ____
ROOT
ATOM      1  N   UNL     1       6.166  -0.560  24.976  0.00  0.00    -0.327 N 
ATOM      2  C   UNL     1       6.660  -0.606  26.366  0.00  0.00    +0.120 C 
ATOM      3  C   UNL     1       5.797   0.277  27.309  0.00  0.00    +0.103 C 
ATOM      4  N   UNL     1       5.531   1.662  26.828  0.00  0.00    -0.299 NA
ATOM      5  C   UNL     1       4.918   1.535  25.482  0.00  0.00    +0.103 C 
ATOM      6  C   UNL     1       5.778   0.761  24.459  0.00  0.00    +0.120 C 
ENDROOT
BRANCH   1  12
ATOM      7  C   UNL     1       3.565  -5.754  23.742  0.00  0.00    +0.190 A 
ATOM      8  O   UNL     1       4.267  -5.211  22.695  0.00  0.00    -0.450 OA
ATOM      9  C   UNL     1       4.797  -4.038  23.136  0.00  0.00    +0.136 A 
ATOM     10  C   UNL     1       5.573  -3.166  22.385  0.00  0.00    +0.049 A 
ATOM     11  C   UNL     1       6.017  -2.011  23.044  0.00  0.00    +0.027 A 
ATOM     12  C   UNL     1       5.711  -1.731  24.390  0.00  0.00    +0.031 A 
ATOM     13  C   UNL     1       4.920  -2.656  25.095  0.00  0.00    +0.034 A 
ATOM     14  C   UNL     1       4.454  -3.820  24.462  0.00  0.00    +0.023 A 
ATOM     15  C   UNL     1       3.657  -4.928  24.845  0.00  0.00    +0.063 A 
BRANCH   7  19
ATOM     16  N   UNL     1       2.017  -7.053  22.505  0.00  0.00    -0.323 N 
ATOM     17  H   UNL     1       1.921  -6.257  21.888  0.00  0.00    +0.145 HD
ATOM     18  H   UNL     1       1.533  -7.915  22.309  0.00  0.00    +0.145 HD
ATOM     19  C   UNL     1       2.882  -7.012  23.563  0.00  0.00    +0.277 C 
ATOM     20  O   UNL     1       3.037  -7.999  24.274  0.00  0.00    -0.267 OA
ENDBRANCH   7  19
ENDBRANCH   1  12
BRANCH   4  21
ATOM     21  C   UNL     1       6.787   2.430  26.818  0.00  0.00    +0.084 C 
BRANCH  21  22
ATOM     22  C   UNL     1       6.737   3.732  26.007  0.00  0.00    +0.016 C 
BRANCH  22  23
ATOM     23  C   UNL     1       8.020   3.965  25.199  0.00  0.00    +0.006 C 
BRANCH  23  24
ATOM     24  C   UNL     1       8.889   2.706  25.102  0.00  0.00    +0.037 C 
BRANCH  24  25
ATOM     25  C   UNL     1       9.040   2.209  23.705  0.00  0.00    -0.022 A 
ATOM     26  C   UNL     1       9.252   0.853  23.299  0.00  0.00    +0.004 A 
ATOM     27  C   UNL     1       9.412  -0.367  23.991  0.00  0.00    +0.029 A 
ATOM     28  C   UNL     1       9.570  -1.557  23.267  0.00  0.00    +0.052 A 
ATOM     29  C   UNL     1       9.572  -1.540  21.870  0.00  0.00    +0.021 A 
ATOM     30  C   UNL     1       9.424  -0.340  21.163  0.00  0.00    +0.027 A 
ATOM     31  C   UNL     1       9.267   0.836  21.906  0.00  0.00    +0.047 A 
ATOM     32  N   UNL     1       9.097   2.133  21.482  0.00  0.00    -0.360 N 
ATOM     33  H   UNL     1       9.065   2.423  20.515  0.00  0.00    +0.165 HD
ATOM     34  C   UNL     1       8.954   2.968  22.557  0.00  0.00    +0.087 A 
BRANCH  28  35
ATOM     35  C   UNL     1       9.717  -2.801  23.967  0.00  0.00    +0.099 C 
ATOM     36  N   UNL     1       9.836  -3.804  24.537  0.00  0.00    -0.191 NA
ENDBRANCH  28  35
ENDBRANCH  24  25
ENDBRANCH  23  24
ENDBRANCH  22  23
ENDBRANCH  21  22
ENDBRANCH   4  21
TORSDOF 8
ENDMDL
MODEL 6
REMARK VINA RESULT:      -7.3      2.039      4.223
REMARK  Name = 
REMARK  8 active torsions:
REMARK  status: ('A' for Active; 'I' for Inactive)
REMARK    1  A    between atoms: C_2  and  C_4
REMARK    2  A    between atoms: C_11  and  N_13
REMARK    3  A    between atoms: N_16  and  C_17
REMARK    4  A    between atoms: C_17  and  C_18
REMARK    5  A    between atoms: C_18  and  C_19
REMARK    6  A    between atoms: C_19  and  C_20
REMARK    7  A    between atoms: C_20  and  C_21
REMARK    8  A    between atoms: C_27  and  C_30
REMARK                            x       y       z     vdW  Elec       q    Type
REMARK                         _______ _______ _______ _____ _____    ______ ____
ROOT
ATOM      1  N   UNL     1       8.446  -0.424  22.818  0.00  0.00    -0.327 N 
ATOM      2  C   UNL     1       7.087  -0.894  23.150  0.00  0.00    +0.120 C 
ATOM      3  C   UNL     1       7.120  -2.080  24.153  0.00  0.00    +0.103 C 
ATOM      4  N   UNL     1       8.055  -3.188  23.807  0.00  0.00    -0.299 NA
ATOM      5  C   UNL     1       9.396  -2.577  23.635  0.00  0.00    +0.103 C 
ATOM      6  C   UNL     1       9.458  -1.462  22.568  0.00  0.00    +0.120 C 
ENDROOT
BRANCH   1  12
ATOM      7  C   UNL     1      11.271   4.714  23.760  0.00  0.00    +0.190 A 
ATOM      8  O   UNL     1       9.933   4.741  24.064  0.00  0.00    -0.450 OA
ATOM      9  C   UNL     1       9.438   3.502  23.797  0.00  0.00    +0.136 A 
ATOM     10  C   UNL     1       8.119   3.104  23.958  0.00  0.00    +0.049 A 
ATOM     11  C   UNL     1       7.829   1.774  23.622  0.00  0.00    +0.027 A 
ATOM     12  C   UNL     1       8.804   0.873  23.151  0.00  0.00    +0.031 A 
ATOM     13  C   UNL     1      10.123   1.339  23.011  0.00  0.00    +0.034 A 
ATOM     14  C   UNL     1      10.445   2.669  23.333  0.00  0.00    +0.023 A 
ATOM     15  C   UNL     1      11.622   3.457  23.308  0.00  0.00    +0.063 A 
BRANCH   7  19
ATOM     16  N   UNL     1      13.150   6.004  23.114  0.00  0.00    -0.323 N 
ATOM     17  H   UNL     1      13.328   5.297  22.411  0.00  0.00    +0.145 HD
ATOM     18  H   UNL     1      13.726   6.829  23.168  0.00  0.00    +0.145 HD
ATOM     19  C   UNL     1      12.065   5.905  23.939  0.00  0.00    +0.277 C 
ATOM     20  O   UNL     1      11.821   6.792  24.750  0.00  0.00    -0.267 OA
ENDBRANCH   7  19
ENDBRANCH   1  12
BRANCH   4  21
ATOM     21  C   UNL     1       7.576  -3.875  22.595  0.00  0.00    +0.084 C 
BRANCH  21  22
ATOM     22  C   UNL     1       7.415  -5.395  22.740  0.00  0.00    +0.016 C 
BRANCH  22  23
ATOM     23  C   UNL     1       6.090  -5.899  22.152  0.00  0.00    +0.006 C 
BRANCH  23  24
ATOM     24  C   UNL     1       5.107  -6.361  23.233  0.00  0.00    +0.037 C 
BRANCH  24  25
ATOM     25  C   UNL     1       4.664  -5.254  24.128  0.00  0.00    -0.022 A 
ATOM     26  C   UNL     1       4.891  -5.152  25.538  0.00  0.00    +0.004 A 
ATOM     27  C   UNL     1       5.513  -5.982  26.496  0.00  0.00    +0.029 A 
ATOM     28  C   UNL     1       5.598  -5.554  27.828  0.00  0.00    +0.052 A 
ATOM     29  C   UNL     1       5.069  -4.319  28.210  0.00  0.00    +0.021 A 
ATOM     30  C   UNL     1       4.439  -3.485  27.279  0.00  0.00    +0.027 A 
ATOM     31  C   UNL     1       4.366  -3.930  25.954  0.00  0.00    +0.047 A 
ATOM     32  N   UNL     1       3.819  -3.325  24.846  0.00  0.00    -0.360 N 
ATOM     33  H   UNL     1       3.367  -2.422  24.849  0.00  0.00    +0.165 HD
ATOM     34  C   UNL     1       3.998  -4.110  23.740  0.00  0.00    +0.087 A 
BRANCH  28  35
ATOM     35  C   UNL     1       6.245  -6.387  28.801  0.00  0.00    +0.099 C 
ATOM     36  N   UNL     1       6.767  -7.058  29.591  0.00  0.00    -0.191 NA
ENDBRANCH  28  35
ENDBRANCH  24  25
ENDBRANCH  23  24
ENDBRANCH  22  23
ENDBRANCH  21  22
ENDBRANCH   4  21
TORSDOF 8
ENDMDL
MODEL 7
REMARK VINA RESULT:      -7.2      3.681      8.294
REMARK  Name = 
REMARK  8 active torsions:
REMARK  status: ('A' for Active; 'I' for Inactive)
REMARK    1  A    between atoms: C_2  and  C_4
REMARK    2  A    between atoms: C_11  and  N_13
REMARK    3  A    between atoms: N_16  and  C_17
REMARK    4  A    between atoms: C_17  and  C_18
REMARK    5  A    between atoms: C_18  and  C_19
REMARK    6  A    between atoms: C_19  and  C_20
REMARK    7  A    between atoms: C_20  and  C_21
REMARK    8  A    between atoms: C_27  and  C_30
REMARK                            x       y       z     vdW  Elec       q    Type
REMARK                         _______ _______ _______ _____ _____    ______ ____
ROOT
ATOM      1  N   UNL     1       8.447  -1.627  24.060  0.00  0.00    -0.327 N 
ATOM      2  C   UNL     1       8.180  -1.806  22.620  0.00  0.00    +0.120 C 
ATOM      3  C   UNL     1       9.443  -1.517  21.763  0.00  0.00    +0.103 C 
ATOM      4  N   UNL     1      10.153  -0.244  22.072  0.00  0.00    -0.299 NA
ATOM      5  C   UNL     1      10.468  -0.274  23.523  0.00  0.00    +0.103 C 
ATOM      6  C   UNL     1       9.239  -0.446  24.440  0.00  0.00    +0.120 C 
ENDROOT
BRANCH   1  12
ATOM      7  C   UNL     1       6.694  -5.655  28.056  0.00  0.00    +0.190 A 
ATOM      8  O   UNL     1       7.857  -5.977  27.402  0.00  0.00    -0.450 OA
ATOM      9  C   UNL     1       8.119  -4.963  26.533  0.00  0.00    +0.136 A 
ATOM     10  C   UNL     1       9.202  -4.898  25.668  0.00  0.00    +0.049 A 
ATOM     11  C   UNL     1       9.277  -3.756  24.857  0.00  0.00    +0.027 A 
ATOM     12  C   UNL     1       8.324  -2.720  24.903  0.00  0.00    +0.031 A 
ATOM     13  C   UNL     1       7.250  -2.848  25.802  0.00  0.00    +0.034 A 
ATOM     14  C   UNL     1       7.143  -3.983  26.623  0.00  0.00    +0.023 A 
ATOM     15  C   UNL     1       6.225  -4.436  27.604  0.00  0.00    +0.063 A 
BRANCH   7  19
ATOM     16  N   UNL     1       5.318  -7.517  28.556  0.00  0.00    -0.323 N 
ATOM     17  H   UNL     1       5.138  -7.586  27.563  0.00  0.00    +0.145 HD
ATOM     18  H   UNL     1       4.938  -8.199  29.194  0.00  0.00    +0.145 HD
ATOM     19  C   UNL     1       6.160  -6.559  29.046  0.00  0.00    +0.277 C 
ATOM     20  O   UNL     1       6.420  -6.516  30.244  0.00  0.00    -0.267 OA
ENDBRANCH   7  19
ENDBRANCH   1  12
BRANCH   4  21
ATOM     21  C   UNL     1       9.305   0.898  21.691  0.00  0.00    +0.084 C 
BRANCH  21  22
ATOM     22  C   UNL     1       9.695   2.232  22.342  0.00  0.00    +0.016 C 
BRANCH  22  23
ATOM     23  C   UNL     1       8.479   3.130  22.605  0.00  0.00    +0.006 C 
BRANCH  23  24
ATOM     24  C   UNL     1       7.300   2.358  23.209  0.00  0.00    +0.037 C 
BRANCH  24  25
ATOM     25  C   UNL     1       7.211   2.497  24.690  0.00  0.00    -0.022 A 
ATOM     26  C   UNL     1       6.464   1.664  25.584  0.00  0.00    +0.004 A 
ATOM     27  C   UNL     1       5.608   0.556  25.409  0.00  0.00    +0.029 A 
ATOM     28  C   UNL     1       5.049  -0.070  26.532  0.00  0.00    +0.052 A 
ATOM     29  C   UNL     1       5.333   0.399  27.818  0.00  0.00    +0.021 A 
ATOM     30  C   UNL     1       6.172   1.503  28.013  0.00  0.00    +0.027 A 
ATOM     31  C   UNL     1       6.719   2.112  26.878  0.00  0.00    +0.047 A 
ATOM     32  N   UNL     1       7.568   3.190  26.775  0.00  0.00    -0.360 N 
ATOM     33  H   UNL     1       7.925   3.717  27.558  0.00  0.00    +0.165 HD
ATOM     34  C   UNL     1       7.875   3.427  25.463  0.00  0.00    +0.087 A 
BRANCH  28  35
ATOM     35  C   UNL     1       4.191  -1.207  26.360  0.00  0.00    +0.099 C 
ATOM     36  N   UNL     1       3.500  -2.128  26.217  0.00  0.00    -0.191 NA
ENDBRANCH  28  35
ENDBRANCH  24  25
ENDBRANCH  23  24
ENDBRANCH  22  23
ENDBRANCH  21  22
ENDBRANCH   4  21
TORSDOF 8
ENDMDL
MODEL 8
REMARK VINA RESULT:      -7.2      4.027      9.433
REMARK  Name = 
REMARK  8 active torsions:
REMARK  status: ('A' for Active; 'I' for Inactive)
REMARK    1  A    between atoms: C_2  and  C_4
REMARK    2  A    between atoms: C_11  and  N_13
REMARK    3  A    between atoms: N_16  and  C_17
REMARK    4  A    between atoms: C_17  and  C_18
REMARK    5  A    between atoms: C_18  and  C_19
REMARK    6  A    between atoms: C_19  and  C_20
REMARK    7  A    between atoms: C_20  and  C_21
REMARK    8  A    between atoms: C_27  and  C_30
REMARK                            x       y       z     vdW  Elec       q    Type
REMARK                         _______ _______ _______ _____ _____    ______ ____
ROOT
ATOM      1  N   UNL     1       7.537  -2.688  24.126  0.00  0.00    -0.327 N 
ATOM      2  C   UNL     1       7.341  -2.027  22.821  0.00  0.00    +0.120 C 
ATOM      3  C   UNL     1       8.608  -2.136  21.928  0.00  0.00    +0.103 C 
ATOM      4  N   UNL     1       9.892  -1.764  22.585  0.00  0.00    -0.299 NA
ATOM      5  C   UNL     1      10.005  -2.604  23.804  0.00  0.00    +0.103 C 
ATOM      6  C   UNL     1       8.828  -2.458  24.792  0.00  0.00    +0.120 C 
ENDROOT
BRANCH   1  12
ATOM      7  C   UNL     1       3.540  -7.079  24.220  0.00  0.00    +0.190 A 
ATOM      8  O   UNL     1       4.337  -7.016  25.335  0.00  0.00    -0.450 OA
ATOM      9  C   UNL     1       5.187  -5.968  25.160  0.00  0.00    +0.136 A 
ATOM     10  C   UNL     1       6.168  -5.562  26.053  0.00  0.00    +0.049 A 
ATOM     11  C   UNL     1       6.933  -4.452  25.669  0.00  0.00    +0.027 A 
ATOM     12  C   UNL     1       6.733  -3.768  24.454  0.00  0.00    +0.031 A 
ATOM     13  C   UNL     1       5.721  -4.230  23.593  0.00  0.00    +0.034 A 
ATOM     14  C   UNL     1       4.942  -5.345  23.946  0.00  0.00    +0.023 A 
ATOM     15  C   UNL     1       3.882  -6.067  23.344  0.00  0.00    +0.063 A 
BRANCH   7  19
ATOM     16  N   UNL     1       1.673  -7.974  23.069  0.00  0.00    -0.323 N 
ATOM     17  H   UNL     1       1.787  -7.220  22.404  0.00  0.00    +0.145 HD
ATOM     18  H   UNL     1       0.967  -8.680  22.927  0.00  0.00    +0.145 HD
ATOM     19  C   UNL     1       2.534  -8.109  24.121  0.00  0.00    +0.277 C 
ATOM     20  O   UNL     1       2.426  -9.056  24.892  0.00  0.00    -0.267 OA
ENDBRANCH   7  19
ENDBRANCH   1  12
BRANCH   4  21
ATOM     21  C   UNL     1       9.896  -0.321  22.879  0.00  0.00    +0.084 C 
BRANCH  21  22
ATOM     22  C   UNL     1       9.660   0.583  21.661  0.00  0.00    +0.016 C 
BRANCH  22  23
ATOM     23  C   UNL     1       9.158   1.977  22.057  0.00  0.00    +0.006 C 
BRANCH  23  24
ATOM     24  C   UNL     1      10.028   2.627  23.139  0.00  0.00    +0.037 C 
BRANCH  24  25
ATOM     25  C   UNL     1       9.232   3.376  24.153  0.00  0.00    -0.022 A 
ATOM     26  C   UNL     1       8.343   2.817  25.125  0.00  0.00    +0.004 A 
ATOM     27  C   UNL     1       7.914   1.506  25.424  0.00  0.00    +0.029 A 
ATOM     28  C   UNL     1       7.037   1.294  26.497  0.00  0.00    +0.052 A 
ATOM     29  C   UNL     1       6.586   2.371  27.266  0.00  0.00    +0.021 A 
ATOM     30  C   UNL     1       6.991   3.680  26.980  0.00  0.00    +0.027 A 
ATOM     31  C   UNL     1       7.867   3.869  25.905  0.00  0.00    +0.047 A 
ATOM     32  N   UNL     1       8.426   5.025  25.411  0.00  0.00    -0.360 N 
ATOM     33  H   UNL     1       8.260   5.948  25.785  0.00  0.00    +0.165 HD
ATOM     34  C   UNL     1       9.253   4.740  24.360  0.00  0.00    +0.087 A 
BRANCH  28  35
ATOM     35  C   UNL     1       6.611  -0.039  26.815  0.00  0.00    +0.099 C 
ATOM     36  N   UNL     1       6.271  -1.117  27.074  0.00  0.00    -0.191 NA
ENDBRANCH  28  35
ENDBRANCH  24  25
ENDBRANCH  23  24
ENDBRANCH  22  23
ENDBRANCH  21  22
ENDBRANCH   4  21
TORSDOF 8
ENDMDL
MODEL 9
REMARK VINA RESULT:      -7.1      1.397      2.300
REMARK  Name = 
REMARK  8 active torsions:
REMARK  status: ('A' for Active; 'I' for Inactive)
REMARK    1  A    between atoms: C_2  and  C_4
REMARK    2  A    between atoms: C_11  and  N_13
REMARK    3  A    between atoms: N_16  and  C_17
REMARK    4  A    between atoms: C_17  and  C_18
REMARK    5  A    between atoms: C_18  and  C_19
REMARK    6  A    between atoms: C_19  and  C_20
REMARK    7  A    between atoms: C_20  and  C_21
REMARK    8  A    between atoms: C_27  and  C_30
REMARK                            x       y       z     vdW  Elec       q    Type
REMARK                         _______ _______ _______ _____ _____    ______ ____
ROOT
ATOM      1  N   UNL     1       7.752  -0.898  25.647  0.00  0.00    -0.327 N 
ATOM      2  C   UNL     1       6.785  -1.579  24.764  0.00  0.00    +0.120 C 
ATOM      3  C   UNL     1       5.320  -1.325  25.214  0.00  0.00    +0.103 C 
ATOM      4  N   UNL     1       5.045  -1.544  26.662  0.00  0.00    -0.299 NA
ATOM      5  C   UNL     1       6.005  -0.696  27.411  0.00  0.00    +0.103 C 
ATOM      6  C   UNL     1       7.490  -0.977  27.093  0.00  0.00    +0.120 C 
ENDROOT
BRANCH   1  12
ATOM      7  C   UNL     1      10.214   4.180  23.800  0.00  0.00    +0.190 A 
ATOM      8  O   UNL     1      10.986   3.066  23.583  0.00  0.00    -0.450 OA
ATOM      9  C   UNL     1      10.287   1.998  24.055  0.00  0.00    +0.136 A 
ATOM     10  C   UNL     1      10.715   0.678  24.039  0.00  0.00    +0.049 A 
ATOM     11  C   UNL     1       9.830  -0.265  24.579  0.00  0.00    +0.027 A 
ATOM     12  C   UNL     1       8.572   0.082  25.110  0.00  0.00    +0.031 A 
ATOM     13  C   UNL     1       8.198   1.438  25.096  0.00  0.00    +0.034 A 
ATOM     14  C   UNL     1       9.066   2.408  24.567  0.00  0.00    +0.023 A 
ATOM     15  C   UNL     1       9.026   3.815  24.403  0.00  0.00    +0.063 A 
BRANCH   7  19
ATOM     16  N   UNL     1      11.931   5.464  22.793  0.00  0.00    -0.323 N 
ATOM     17  H   UNL     1      12.407   4.590  22.611  0.00  0.00    +0.145 HD
ATOM     18  H   UNL     1      12.315   6.336  22.462  0.00  0.00    +0.145 HD
ATOM     19  C   UNL     1      10.708   5.476  23.401  0.00  0.00    +0.277 C 
ATOM     20  O   UNL     1      10.108   6.533  23.567  0.00  0.00    -0.267 OA
ENDBRANCH   7  19
ENDBRANCH   1  12
BRANCH   4  21
ATOM     21  C   UNL     1       5.177  -2.977  26.976  0.00  0.00    +0.084 C 
BRANCH  21  22
ATOM     22  C   UNL     1       3.957  -3.596  27.674  0.00  0.00    +0.016 C 
BRANCH  22  23
ATOM     23  C   UNL     1       3.054  -4.362  26.698  0.00  0.00    +0.006 C 
BRANCH  23  24
ATOM     24  C   UNL     1       3.589  -5.763  26.381  0.00  0.00    +0.037 C 
BRANCH  24  25
ATOM     25  C   UNL     1       3.918  -5.947  24.938  0.00  0.00    -0.022 A 
ATOM     26  C   UNL     1       5.184  -5.710  24.313  0.00  0.00    +0.004 A 
ATOM     27  C   UNL     1       6.432  -5.238  24.771  0.00  0.00    +0.029 A 
ATOM     28  C   UNL     1       7.510  -5.157  23.877  0.00  0.00    +0.052 A 
ATOM     29  C   UNL     1       7.352  -5.539  22.542  0.00  0.00    +0.021 A 
ATOM     30  C   UNL     1       6.120  -6.001  22.065  0.00  0.00    +0.027 A 
ATOM     31  C   UNL     1       5.058  -6.074  22.974  0.00  0.00    +0.047 A 
ATOM     32  N   UNL     1       3.760  -6.491  22.786  0.00  0.00    -0.360 N 
ATOM     33  H   UNL     1       3.382  -6.816  21.909  0.00  0.00    +0.165 HD
ATOM     34  C   UNL     1       3.066  -6.424  23.963  0.00  0.00    +0.087 A 
BRANCH  28  35
ATOM     35  C   UNL     1       8.786  -4.693  24.343  0.00  0.00    +0.099 C 
ATOM     36  N   UNL     1       9.818  -4.318  24.715  0.00  0.00    -0.191 NA
ENDBRANCH  28  35
ENDBRANCH  24  25
ENDBRANCH  23  24
ENDBRANCH  22  23
ENDBRANCH  21  22
ENDBRANCH   4  21
TORSDOF 8
ENDMDL
