MODEL 1
REMARK VINA RESULT:      -6.1      0.000      0.000
REMARK  Name = 
REMARK  6 active torsions:
REMARK  status: ('A' for Active; 'I' for Inactive)
REMARK    1  A    between atoms: C_2  and  C_3
REMARK    2  A    between atoms: C_2  and  N_10
REMARK    3  A    between atoms: C_2  and  C_20
REMARK    4  A    between atoms: C_3  and  C_4
REMARK    5  A    between atoms: C_17  and  S_18
REMARK    6  A    between atoms: N_22  and  C_23
REMARK                            x       y       z     vdW  Elec       q    Type
REMARK                         _______ _______ _______ _____ _____    ______ ____
ROOT
ATOM      1  C   UNL     1       9.553   3.146  23.344  0.00  0.00    +0.165 C 
ENDROOT
BRANCH   1   2
ATOM      2  N   UNL     1       8.283   3.642  22.806  0.00  0.00    -0.287 N 
ATOM      3  H   UNL     1       8.316   4.546  22.358  0.00  0.00    +0.151 HD
ATOM      4  C   UNL     1       7.088   3.242  23.369  0.00  0.00    +0.306 C 
ATOM      5  N   UNL     1       6.019   3.870  22.792  0.00  0.00    -0.247 N 
ATOM      6  H   UNL     1       6.158   4.618  22.136  0.00  0.00    +0.158 HD
ATOM      7  C   UNL     1       4.731   3.575  23.148  0.00  0.00    +0.190 A 
ATOM      8  S   UNL     1       3.554   4.628  22.492  0.00  0.00    -0.024 S 
ATOM      9  C   UNL     1       2.391   3.721  23.362  0.00  0.00    +0.157 A 
ATOM     10  N   UNL     1       2.878   2.700  24.031  0.00  0.00    -0.133 NA
ATOM     11  N   UNL     1       4.256   2.621  23.912  0.00  0.00    -0.125 NA
ATOM     12  O   UNL     1       7.058   2.420  24.278  0.00  0.00    -0.252 OA
BRANCH   9  13
ATOM     13  S   UNL     1       0.689   4.097  23.388  0.00  0.00    -0.114 S 
ATOM     14  H   UNL     1       0.775   5.079  24.297  0.00  0.00    +0.109 HD
ENDBRANCH   9  13
ENDBRANCH   1   2
BRANCH   1  15
ATOM     15  C   UNL     1      10.467   4.369  23.575  0.00  0.00    +0.233 C 
ATOM     16  N   UNL     1      11.743   4.222  23.076  0.00  0.00    -0.317 N 
ATOM     17  H   UNL     1      12.002   3.327  22.663  0.00  0.00    +0.148 HD
ATOM     18  C   UNL     1      12.730   5.270  23.150  0.00  0.00    +0.128 C 
ATOM     19  O   UNL     1      10.111   5.347  24.228  0.00  0.00    -0.274 OA
ENDBRANCH   1  15
BRANCH   1  20
ATOM     20  C   UNL     1      10.248   2.178  22.370  0.00  0.00    +0.067 C 
BRANCH  20  21
ATOM     21  C   UNL     1      10.026   0.696  22.578  0.00  0.00    -0.045 A 
ATOM     22  C   UNL     1       9.580  -0.165  21.566  0.00  0.00    +0.004 A 
ATOM     23  C   UNL     1       9.338  -1.515  21.834  0.00  0.00    +0.000 A 
ATOM     24  C   UNL     1       9.531  -2.022  23.118  0.00  0.00    +0.000 A 
ATOM     25  C   UNL     1       9.961  -1.179  24.136  0.00  0.00    +0.000 A 
ATOM     26  C   UNL     1      10.201   0.170  23.869  0.00  0.00    +0.004 A 
ENDBRANCH  20  21
ENDBRANCH   1  20
TORSDOF 5
ENDMDL
MODEL 2
REMARK VINA RESULT:      -6.1      3.952      5.896
REMARK  Name = 
REMARK  6 active torsions:
REMARK  status: ('A' for Active; 'I' for Inactive)
REMARK    1  A    between atoms: C_2  and  C_3
REMARK    2  A    between atoms: C_2  and  N_10
REMARK    3  A    between atoms: C_2  and  C_20
REMARK    4  A    between atoms: C_3  and  C_4
REMARK    5  A    between atoms: C_17  and  S_18
REMARK    6  A    between atoms: N_22  and  C_23
REMARK                            x       y       z     vdW  Elec       q    Type
REMARK                         _______ _______ _______ _____ _____    ______ ____
ROOT
ATOM      1  C   UNL     1       8.281  -2.521  23.376  0.00  0.00    +0.165 C 
ENDROOT
BRANCH   1   2
ATOM      2  N   UNL     1       7.579  -2.091  24.589  0.00  0.00    -0.287 N 
ATOM      3  H   UNL     1       7.471  -2.790  25.309  0.00  0.00    +0.151 HD
ATOM      4  C   UNL     1       6.645  -1.077  24.525  0.00  0.00    +0.306 C 
ATOM      5  N   UNL     1       6.036  -0.871  25.733  0.00  0.00    -0.247 N 
ATOM      6  H   UNL     1       6.196  -1.500  26.500  0.00  0.00    +0.158 HD
ATOM      7  C   UNL     1       5.123   0.131  25.919  0.00  0.00    +0.190 A 
ATOM      8  S   UNL     1       4.303   0.076  27.418  0.00  0.00    -0.024 S 
ATOM      9  C   UNL     1       3.425   1.447  26.884  0.00  0.00    +0.157 A 
ATOM     10  N   UNL     1       3.782   1.902  25.705  0.00  0.00    -0.133 NA
ATOM     11  N   UNL     1       4.774   1.121  25.133  0.00  0.00    -0.125 NA
ATOM     12  O   UNL     1       6.430  -0.475  23.480  0.00  0.00    -0.252 OA
BRANCH   9  13
ATOM     13  S   UNL     1       2.150   2.200  27.804  0.00  0.00    -0.114 S 
ATOM     14  H   UNL     1       2.575   3.460  27.628  0.00  0.00    +0.109 HD
ENDBRANCH   9  13
ENDBRANCH   1   2
BRANCH   1  15
ATOM     15  C   UNL     1       8.221  -4.063  23.330  0.00  0.00    +0.233 C 
ATOM     16  N   UNL     1       7.346  -4.567  22.393  0.00  0.00    -0.317 N 
ATOM     17  H   UNL     1       6.775  -3.910  21.862  0.00  0.00    +0.148 HD
ATOM     18  C   UNL     1       7.183  -5.981  22.162  0.00  0.00    +0.128 C 
ATOM     19  O   UNL     1       8.834  -4.774  24.124  0.00  0.00    -0.274 OA
ENDBRANCH   1  15
BRANCH   1  20
ATOM     20  C   UNL     1       9.754  -2.076  23.379  0.00  0.00    +0.067 C 
BRANCH  20  21
ATOM     21  C   UNL     1      10.039  -0.595  23.264  0.00  0.00    -0.045 A 
ATOM     22  C   UNL     1      10.507   0.184  24.331  0.00  0.00    +0.004 A 
ATOM     23  C   UNL     1      10.697   1.560  24.179  0.00  0.00    +0.000 A 
ATOM     24  C   UNL     1      10.415   2.178  22.962  0.00  0.00    +0.000 A 
ATOM     25  C   UNL     1       9.937   1.422  21.898  0.00  0.00    +0.000 A 
ATOM     26  C   UNL     1       9.746   0.048  22.050  0.00  0.00    +0.004 A 
ENDBRANCH  20  21
ENDBRANCH   1  20
TORSDOF 5
ENDMDL
MODEL 3
REMARK VINA RESULT:      -6.0      5.864      7.369
REMARK  Name = 
REMARK  6 active torsions:
REMARK  status: ('A' for Active; 'I' for Inactive)
REMARK    1  A    between atoms: C_2  and  C_3
REMARK    2  A    between atoms: C_2  and  N_10
REMARK    3  A    between atoms: C_2  and  C_20
REMARK    4  A    between atoms: C_3  and  C_4
REMARK    5  A    between atoms: C_17  and  S_18
REMARK    6  A    between atoms: N_22  and  C_23
REMARK                            x       y       z     vdW  Elec       q    Type
REMARK                         _______ _______ _______ _____ _____    ______ ____
ROOT
ATOM      1  C   UNL     1       7.978  -2.214  24.187  0.00  0.00    +0.165 C 
ENDROOT
BRANCH   1   2
ATOM      2  N   UNL     1       6.783  -2.795  24.804  0.00  0.00    -0.287 N 
ATOM      3  H   UNL     1       6.859  -3.026  25.784  0.00  0.00    +0.151 HD
ATOM      4  C   UNL     1       5.886  -3.512  24.038  0.00  0.00    +0.306 C 
ATOM      5  N   UNL     1       4.882  -4.046  24.797  0.00  0.00    -0.247 N 
ATOM      6  H   UNL     1       4.920  -4.000  25.801  0.00  0.00    +0.158 HD
ATOM      7  C   UNL     1       3.844  -4.740  24.237  0.00  0.00    +0.190 A 
ATOM      8  S   UNL     1       2.827  -5.528  25.362  0.00  0.00    -0.024 S 
ATOM      9  C   UNL     1       1.954  -6.127  24.015  0.00  0.00    +0.157 A 
ATOM     10  N   UNL     1       2.390  -5.708  22.848  0.00  0.00    -0.133 NA
ATOM     11  N   UNL     1       3.509  -4.901  22.980  0.00  0.00    -0.125 NA
ATOM     12  O   UNL     1       6.032  -3.622  22.826  0.00  0.00    -0.252 OA
BRANCH   9  13
ATOM     13  S   UNL     1       0.596  -7.211  24.143  0.00  0.00    -0.114 S 
ATOM     14  H   UNL     1      -0.211  -6.525  23.321  0.00  0.00    +0.109 HD
ENDBRANCH   9  13
ENDBRANCH   1   2
BRANCH   1  15
ATOM     15  C   UNL     1       9.144  -3.200  24.417  0.00  0.00    +0.233 C 
ATOM     16  N   UNL     1       8.906  -4.136  25.400  0.00  0.00    -0.317 N 
ATOM     17  H   UNL     1       8.037  -4.072  25.929  0.00  0.00    +0.148 HD
ATOM     18  C   UNL     1       9.852  -5.173  25.730  0.00  0.00    +0.128 C 
ATOM     19  O   UNL     1      10.222  -3.099  23.835  0.00  0.00    -0.274 OA
ENDBRANCH   1  15
BRANCH   1  20
ATOM     20  C   UNL     1       8.342  -0.855  24.811  0.00  0.00    +0.067 C 
BRANCH  20  21
ATOM     21  C   UNL     1       9.043   0.155  23.930  0.00  0.00    -0.045 A 
ATOM     22  C   UNL     1       9.750   1.256  24.432  0.00  0.00    +0.004 A 
ATOM     23  C   UNL     1      10.329   2.187  23.565  0.00  0.00    +0.000 A 
ATOM     24  C   UNL     1      10.203   2.036  22.186  0.00  0.00    +0.000 A 
ATOM     25  C   UNL     1       9.494   0.956  21.670  0.00  0.00    +0.000 A 
ATOM     26  C   UNL     1       8.914   0.027  22.536  0.00  0.00    +0.004 A 
ENDBRANCH  20  21
ENDBRANCH   1  20
TORSDOF 5
ENDMDL
MODEL 4
REMARK VINA RESULT:      -6.0      4.465      6.678
REMARK  Name = 
REMARK  6 active torsions:
REMARK  status: ('A' for Active; 'I' for Inactive)
REMARK    1  A    between atoms: C_2  and  C_3
REMARK    2  A    between atoms: C_2  and  N_10
REMARK    3  A    between atoms: C_2  and  C_20
REMARK    4  A    between atoms: C_3  and  C_4
REMARK    5  A    between atoms: C_17  and  S_18
REMARK    6  A    between atoms: N_22  and  C_23
REMARK                            x       y       z     vdW  Elec       q    Type
REMARK                         _______ _______ _______ _____ _____    ______ ____
ROOT
ATOM      1  C   UNL     1       8.187  -2.152  23.519  0.00  0.00    +0.165 C 
ENDROOT
BRANCH   1   2
ATOM      2  N   UNL     1       9.030  -0.991  23.218  0.00  0.00    -0.287 N 
ATOM      3  H   UNL     1      10.006  -1.186  23.050  0.00  0.00    +0.151 HD
ATOM      4  C   UNL     1       8.692   0.255  23.705  0.00  0.00    +0.306 C 
ATOM      5  N   UNL     1       9.636   1.195  23.394  0.00  0.00    -0.247 N 
ATOM      6  H   UNL     1      10.508   0.925  22.976  0.00  0.00    +0.158 HD
ATOM      7  C   UNL     1       9.474   2.514  23.719  0.00  0.00    +0.190 A 
ATOM      8  S   UNL     1      10.858   3.484  23.462  0.00  0.00    -0.024 S 
ATOM      9  C   UNL     1       9.948   4.790  24.094  0.00  0.00    +0.157 A 
ATOM     10  N   UNL     1       8.708   4.493  24.410  0.00  0.00    -0.133 NA
ATOM     11  N   UNL     1       8.434   3.152  24.199  0.00  0.00    -0.125 NA
ATOM     12  O   UNL     1       7.657   0.431  24.338  0.00  0.00    -0.252 OA
BRANCH   9  13
ATOM     13  S   UNL     1      10.586   6.396  24.320  0.00  0.00    -0.114 S 
ATOM     14  H   UNL     1      11.854   6.090  24.010  0.00  0.00    +0.109 HD
ENDBRANCH   9  13
ENDBRANCH   1   2
BRANCH   1  15
ATOM     15  C   UNL     1       9.037  -3.137  24.352  0.00  0.00    +0.233 C 
ATOM     16  N   UNL     1       8.401  -3.623  25.473  0.00  0.00    -0.317 N 
ATOM     17  H   UNL     1       7.475  -3.262  25.700  0.00  0.00    +0.148 HD
ATOM     18  C   UNL     1       9.009  -4.590  26.353  0.00  0.00    +0.128 C 
ATOM     19  O   UNL     1      10.209  -3.391  24.083  0.00  0.00    -0.274 OA
ENDBRANCH   1  15
BRANCH   1  20
ATOM     20  C   UNL     1       7.709  -2.861  22.239  0.00  0.00    +0.067 C 
BRANCH  20  21
ATOM     21  C   UNL     1       6.627  -3.908  22.381  0.00  0.00    -0.045 A 
ATOM     22  C   UNL     1       5.372  -3.647  22.948  0.00  0.00    +0.004 A 
ATOM     23  C   UNL     1       4.434  -4.671  23.103  0.00  0.00    +0.000 A 
ATOM     24  C   UNL     1       4.739  -5.970  22.703  0.00  0.00    +0.000 A 
ATOM     25  C   UNL     1       5.984  -6.249  22.151  0.00  0.00    +0.000 A 
ATOM     26  C   UNL     1       6.922  -5.227  21.997  0.00  0.00    +0.004 A 
ENDBRANCH  20  21
ENDBRANCH   1  20
TORSDOF 5
ENDMDL
MODEL 5
REMARK VINA RESULT:      -5.9      5.170      6.773
REMARK  Name = 
REMARK  6 active torsions:
REMARK  status: ('A' for Active; 'I' for Inactive)
REMARK    1  A    between atoms: C_2  and  C_3
REMARK    2  A    between atoms: C_2  and  N_10
REMARK    3  A    between atoms: C_2  and  C_20
REMARK    4  A    between atoms: C_3  and  C_4
REMARK    5  A    between atoms: C_17  and  S_18
REMARK    6  A    between atoms: N_22  and  C_23
REMARK                            x       y       z     vdW  Elec       q    Type
REMARK                         _______ _______ _______ _____ _____    ______ ____
ROOT
ATOM      1  C   UNL     1       8.248  -2.667  23.874  0.00  0.00    +0.165 C 
ENDROOT
BRANCH   1   2
ATOM      2  N   UNL     1       7.577  -2.483  25.164  0.00  0.00    -0.287 N 
ATOM      3  H   UNL     1       8.042  -2.883  25.965  0.00  0.00    +0.151 HD
ATOM      4  C   UNL     1       6.205  -2.338  25.217  0.00  0.00    +0.306 C 
ATOM      5  N   UNL     1       5.752  -2.262  26.505  0.00  0.00    -0.247 N 
ATOM      6  H   UNL     1       6.373  -2.430  27.277  0.00  0.00    +0.158 HD
ATOM      7  C   UNL     1       4.431  -2.049  26.793  0.00  0.00    +0.190 A 
ATOM      8  S   UNL     1       4.027  -2.224  28.445  0.00  0.00    -0.024 S 
ATOM      9  C   UNL     1       2.408  -1.900  27.990  0.00  0.00    +0.157 A 
ATOM     10  N   UNL     1       2.239  -1.640  26.713  0.00  0.00    -0.133 NA
ATOM     11  N   UNL     1       3.428  -1.738  26.008  0.00  0.00    -0.125 NA
ATOM     12  O   UNL     1       5.531  -2.294  24.194  0.00  0.00    -0.252 OA
BRANCH   9  13
ATOM     13  S   UNL     1       1.067  -1.911  29.102  0.00  0.00    -0.114 S 
ATOM     14  H   UNL     1       1.017  -3.243  29.250  0.00  0.00    +0.109 HD
ENDBRANCH   9  13
ENDBRANCH   1   2
BRANCH   1  15
ATOM     15  C   UNL     1       8.244  -4.179  23.562  0.00  0.00    +0.233 C 
ATOM     16  N   UNL     1       7.339  -4.553  22.592  0.00  0.00    -0.317 N 
ATOM     17  H   UNL     1       6.717  -3.842  22.210  0.00  0.00    +0.148 HD
ATOM     18  C   UNL     1       7.217  -5.912  22.126  0.00  0.00    +0.128 C 
ATOM     19  O   UNL     1       8.923  -4.987  24.191  0.00  0.00    -0.274 OA
ENDBRANCH   1  15
BRANCH   1  20
ATOM     20  C   UNL     1       9.703  -2.167  23.909  0.00  0.00    +0.067 C 
BRANCH  20  21
ATOM     21  C   UNL     1       9.959  -0.728  23.519  0.00  0.00    -0.045 A 
ATOM     22  C   UNL     1      10.435   0.240  24.413  0.00  0.00    +0.004 A 
ATOM     23  C   UNL     1      10.597   1.567  24.006  0.00  0.00    +0.000 A 
ATOM     24  C   UNL     1      10.278   1.947  22.704  0.00  0.00    +0.000 A 
ATOM     25  C   UNL     1       9.793   1.002  21.808  0.00  0.00    +0.000 A 
ATOM     26  C   UNL     1       9.629  -0.323  22.214  0.00  0.00    +0.004 A 
ENDBRANCH  20  21
ENDBRANCH   1  20
TORSDOF 5
ENDMDL
MODEL 6
REMARK VINA RESULT:      -5.8      5.962      7.331
REMARK  Name = 
REMARK  6 active torsions:
REMARK  status: ('A' for Active; 'I' for Inactive)
REMARK    1  A    between atoms: C_2  and  C_3
REMARK    2  A    between atoms: C_2  and  N_10
REMARK    3  A    between atoms: C_2  and  C_20
REMARK    4  A    between atoms: C_3  and  C_4
REMARK    5  A    between atoms: C_17  and  S_18
REMARK    6  A    between atoms: N_22  and  C_23
REMARK                            x       y       z     vdW  Elec       q    Type
REMARK                         _______ _______ _______ _____ _____    ______ ____
ROOT
ATOM      1  C   UNL     1       8.654  -2.703  25.049  0.00  0.00    +0.165 C 
ENDROOT
BRANCH   1   2
ATOM      2  N   UNL     1       7.469  -3.142  24.307  0.00  0.00    -0.287 N 
ATOM      3  H   UNL     1       6.949  -2.417  23.835  0.00  0.00    +0.151 HD
ATOM      4  C   UNL     1       6.788  -4.277  24.697  0.00  0.00    +0.306 C 
ATOM      5  N   UNL     1       5.667  -4.482  23.942  0.00  0.00    -0.247 N 
ATOM      6  H   UNL     1       5.357  -3.786  23.287  0.00  0.00    +0.158 HD
ATOM      7  C   UNL     1       4.875  -5.586  24.110  0.00  0.00    +0.190 A 
ATOM      8  S   UNL     1       3.401  -5.542  23.245  0.00  0.00    -0.024 S 
ATOM      9  C   UNL     1       3.041  -7.055  23.962  0.00  0.00    +0.157 A 
ATOM     10  N   UNL     1       3.989  -7.537  24.734  0.00  0.00    -0.133 NA
ATOM     11  N   UNL     1       5.063  -6.667  24.828  0.00  0.00    -0.125 NA
ATOM     12  O   UNL     1       7.192  -4.974  25.621  0.00  0.00    -0.252 OA
BRANCH   9  13
ATOM     13  S   UNL     1       1.544  -7.913  23.716  0.00  0.00    -0.114 S 
ATOM     14  H   UNL     1       0.745  -6.935  24.167  0.00  0.00    +0.109 HD
ENDBRANCH   9  13
ENDBRANCH   1   2
BRANCH   1  15
ATOM     15  C   UNL     1       8.263  -1.432  25.835  0.00  0.00    +0.233 C 
ATOM     16  N   UNL     1       7.155  -0.781  25.339  0.00  0.00    -0.317 N 
ATOM     17  H   UNL     1       6.727  -1.134  24.484  0.00  0.00    +0.148 HD
ATOM     18  C   UNL     1       6.603   0.397  25.962  0.00  0.00    +0.128 C 
ATOM     19  O   UNL     1       8.939  -0.994  26.763  0.00  0.00    -0.274 OA
ENDBRANCH   1  15
BRANCH   1  20
ATOM     20  C   UNL     1       9.827  -2.371  24.110  0.00  0.00    +0.067 C 
BRANCH  20  21
ATOM     21  C   UNL     1       9.756  -1.075  23.333  0.00  0.00    -0.045 A 
ATOM     22  C   UNL     1       9.128  -0.958  22.085  0.00  0.00    +0.004 A 
ATOM     23  C   UNL     1       9.146   0.254  21.389  0.00  0.00    +0.000 A 
ATOM     24  C   UNL     1       9.798   1.363  21.925  0.00  0.00    +0.000 A 
ATOM     25  C   UNL     1      10.437   1.261  23.156  0.00  0.00    +0.000 A 
ATOM     26  C   UNL     1      10.421   0.050  23.850  0.00  0.00    +0.004 A 
ENDBRANCH  20  21
ENDBRANCH   1  20
TORSDOF 5
ENDMDL
MODEL 7
REMARK VINA RESULT:      -5.8      4.408      6.399
REMARK  Name = 
REMARK  6 active torsions:
REMARK  status: ('A' for Active; 'I' for Inactive)
REMARK    1  A    between atoms: C_2  and  C_3
REMARK    2  A    between atoms: C_2  and  N_10
REMARK    3  A    between atoms: C_2  and  C_20
REMARK    4  A    between atoms: C_3  and  C_4
REMARK    5  A    between atoms: C_17  and  S_18
REMARK    6  A    between atoms: N_22  and  C_23
REMARK                            x       y       z     vdW  Elec       q    Type
REMARK                         _______ _______ _______ _____ _____    ______ ____
ROOT
ATOM      1  C   UNL     1       8.275   2.326  24.562  0.00  0.00    +0.165 C 
ENDROOT
BRANCH   1   2
ATOM      2  N   UNL     1       7.556   1.310  23.788  0.00  0.00    -0.287 N 
ATOM      3  H   UNL     1       6.585   1.508  23.593  0.00  0.00    +0.151 HD
ATOM      4  C   UNL     1       7.948  -0.011  23.845  0.00  0.00    +0.306 C 
ATOM      5  N   UNL     1       7.113  -0.822  23.127  0.00  0.00    -0.247 N 
ATOM      6  H   UNL     1       6.260  -0.460  22.737  0.00  0.00    +0.158 HD
ATOM      7  C   UNL     1       7.350  -2.162  22.989  0.00  0.00    +0.190 A 
ATOM      8  S   UNL     1       6.074  -3.039  22.263  0.00  0.00    -0.024 S 
ATOM      9  C   UNL     1       7.027  -4.442  22.497  0.00  0.00    +0.157 A 
ATOM     10  N   UNL     1       8.209  -4.222  23.028  0.00  0.00    -0.133 NA
ATOM     11  N   UNL     1       8.393  -2.881  23.327  0.00  0.00    -0.125 NA
ATOM     12  O   UNL     1       8.937  -0.354  24.484  0.00  0.00    -0.252 OA
BRANCH   9  13
ATOM     13  S   UNL     1       6.502  -6.051  22.081  0.00  0.00    -0.114 S 
ATOM     14  H   UNL     1       5.570  -6.148  23.040  0.00  0.00    +0.109 HD
ENDBRANCH   9  13
ENDBRANCH   1   2
BRANCH   1  15
ATOM     15  C   UNL     1       7.487   2.552  25.871  0.00  0.00    +0.233 C 
ATOM     16  N   UNL     1       7.612   1.532  26.788  0.00  0.00    -0.317 N 
ATOM     17  H   UNL     1       8.142   0.703  26.522  0.00  0.00    +0.148 HD
ATOM     18  C   UNL     1       6.993   1.578  28.090  0.00  0.00    +0.128 C 
ATOM     19  O   UNL     1       6.744   3.516  26.038  0.00  0.00    -0.274 OA
ENDBRANCH   1  15
BRANCH   1  20
ATOM     20  C   UNL     1       8.377   3.660  23.802  0.00  0.00    +0.067 C 
BRANCH  20  21
ATOM     21  C   UNL     1       9.724   4.347  23.771  0.00  0.00    -0.045 A 
ATOM     22  C   UNL     1      10.892   3.731  23.302  0.00  0.00    +0.004 A 
ATOM     23  C   UNL     1      12.119   4.398  23.352  0.00  0.00    +0.000 A 
ATOM     24  C   UNL     1      12.197   5.686  23.878  0.00  0.00    +0.000 A 
ATOM     25  C   UNL     1      11.050   6.308  24.359  0.00  0.00    +0.000 A 
ATOM     26  C   UNL     1       9.825   5.640  24.310  0.00  0.00    +0.004 A 
ENDBRANCH  20  21
ENDBRANCH   1  20
TORSDOF 5
ENDMDL
MODEL 8
REMARK VINA RESULT:      -5.7      3.812      5.538
REMARK  Name = 
REMARK  6 active torsions:
REMARK  status: ('A' for Active; 'I' for Inactive)
REMARK    1  A    between atoms: C_2  and  C_3
REMARK    2  A    between atoms: C_2  and  N_10
REMARK    3  A    between atoms: C_2  and  C_20
REMARK    4  A    between atoms: C_3  and  C_4
REMARK    5  A    between atoms: C_17  and  S_18
REMARK    6  A    between atoms: N_22  and  C_23
REMARK                            x       y       z     vdW  Elec       q    Type
REMARK                         _______ _______ _______ _____ _____    ______ ____
ROOT
ATOM      1  C   UNL     1       8.455  -2.448  23.673  0.00  0.00    +0.165 C 
ENDROOT
BRANCH   1   2
ATOM      2  N   UNL     1       7.802  -1.785  24.805  0.00  0.00    -0.287 N 
ATOM      3  H   UNL     1       7.792  -2.301  25.673  0.00  0.00    +0.151 HD
ATOM      4  C   UNL     1       6.795  -0.868  24.585  0.00  0.00    +0.306 C 
ATOM      5  N   UNL     1       6.252  -0.419  25.757  0.00  0.00    -0.247 N 
ATOM      6  H   UNL     1       6.506  -0.840  26.633  0.00  0.00    +0.158 HD
ATOM      7  C   UNL     1       5.282   0.547  25.780  0.00  0.00    +0.190 A 
ATOM      8  S   UNL     1       4.566   0.799  27.311  0.00  0.00    -0.024 S 
ATOM      9  C   UNL     1       3.559   1.956  26.549  0.00  0.00    +0.157 A 
ATOM     10  N   UNL     1       3.805   2.141  25.271  0.00  0.00    -0.133 NA
ATOM     11  N   UNL     1       4.812   1.304  24.818  0.00  0.00    -0.125 NA
ATOM     12  O   UNL     1       6.471  -0.540  23.449  0.00  0.00    -0.252 OA
BRANCH   9  13
ATOM     13  S   UNL     1       2.294   2.831  27.368  0.00  0.00    -0.114 S 
ATOM     14  H   UNL     1       1.393   1.840  27.337  0.00  0.00    +0.109 HD
ENDBRANCH   9  13
ENDBRANCH   1   2
BRANCH   1  15
ATOM     15  C   UNL     1       8.570  -3.948  24.019  0.00  0.00    +0.233 C 
ATOM     16  N   UNL     1       9.214  -4.204  25.210  0.00  0.00    -0.317 N 
ATOM     17  H   UNL     1       9.609  -3.419  25.726  0.00  0.00    +0.148 HD
ATOM     18  C   UNL     1       9.379  -5.539  25.732  0.00  0.00    +0.128 C 
ATOM     19  O   UNL     1       8.202  -4.835  23.252  0.00  0.00    -0.274 OA
ENDBRANCH   1  15
BRANCH   1  20
ATOM     20  C   UNL     1       9.863  -1.884  23.412  0.00  0.00    +0.067 C 
BRANCH  20  21
ATOM     21  C   UNL     1       9.990  -0.393  23.190  0.00  0.00    -0.045 A 
ATOM     22  C   UNL     1       9.631   0.241  21.993  0.00  0.00    +0.004 A 
ATOM     23  C   UNL     1       9.826   1.615  21.828  0.00  0.00    +0.000 A 
ATOM     24  C   UNL     1      10.389   2.373  22.853  0.00  0.00    +0.000 A 
ATOM     25  C   UNL     1      10.762   1.758  24.043  0.00  0.00    +0.000 A 
ATOM     26  C   UNL     1      10.569   0.385  24.207  0.00  0.00    +0.004 A 
ENDBRANCH  20  21
ENDBRANCH   1  20
TORSDOF 5
ENDMDL
MODEL 9
REMARK VINA RESULT:      -5.7      6.750      8.496
REMARK  Name = 
REMARK  6 active torsions:
REMARK  status: ('A' for Active; 'I' for Inactive)
REMARK    1  A    between atoms: C_2  and  C_3
REMARK    2  A    between atoms: C_2  and  N_10
REMARK    3  A    between atoms: C_2  and  C_20
REMARK    4  A    between atoms: C_3  and  C_4
REMARK    5  A    between atoms: C_17  and  S_18
REMARK    6  A    between atoms: N_22  and  C_23
REMARK                            x       y       z     vdW  Elec       q    Type
REMARK                         _______ _______ _______ _____ _____    ______ ____
ROOT
ATOM      1  C   UNL     1       8.097  -3.399  24.356  0.00  0.00    +0.165 C 
ENDROOT
BRANCH   1   2
ATOM      2  N   UNL     1       7.752  -3.817  25.718  0.00  0.00    -0.287 N 
ATOM      3  H   UNL     1       8.519  -4.148  26.285  0.00  0.00    +0.151 HD
ATOM      4  C   UNL     1       6.487  -4.291  25.998  0.00  0.00    +0.306 C 
ATOM      5  N   UNL     1       6.378  -4.709  27.296  0.00  0.00    -0.247 N 
ATOM      6  H   UNL     1       7.189  -4.764  27.886  0.00  0.00    +0.158 HD
ATOM      7  C   UNL     1       5.191  -5.155  27.812  0.00  0.00    +0.190 A 
ATOM      8  S   UNL     1       5.312  -5.854  29.367  0.00  0.00    -0.024 S 
ATOM      9  C   UNL     1       3.630  -6.163  29.259  0.00  0.00    +0.157 A 
ATOM     10  N   UNL     1       3.060  -5.720  28.161  0.00  0.00    -0.133 NA
ATOM     11  N   UNL     1       3.982  -5.137  27.306  0.00  0.00    -0.125 NA
ATOM     12  O   UNL     1       5.612  -4.311  25.141  0.00  0.00    -0.252 OA
BRANCH   9  13
ATOM     13  S   UNL     1       2.716  -6.999  30.485  0.00  0.00    -0.114 S 
ATOM     14  H   UNL     1       1.920  -7.665  29.637  0.00  0.00    +0.109 HD
ENDBRANCH   9  13
ENDBRANCH   1   2
BRANCH   1  15
ATOM     15  C   UNL     1       7.998  -4.646  23.450  0.00  0.00    +0.233 C 
ATOM     16  N   UNL     1       7.035  -4.556  22.469  0.00  0.00    -0.317 N 
ATOM     17  H   UNL     1       6.436  -3.731  22.452  0.00  0.00    +0.148 HD
ATOM     18  C   UNL     1       6.821  -5.596  21.493  0.00  0.00    +0.128 C 
ATOM     19  O   UNL     1       8.659  -5.662  23.649  0.00  0.00    -0.274 OA
ENDBRANCH   1  15
BRANCH   1  20
ATOM     20  C   UNL     1       9.525  -2.832  24.274  0.00  0.00    +0.067 C 
BRANCH  20  21
ATOM     21  C   UNL     1       9.718  -1.524  23.540  0.00  0.00    -0.045 A 
ATOM     22  C   UNL     1      10.112  -0.337  24.173  0.00  0.00    +0.004 A 
ATOM     23  C   UNL     1      10.219   0.855  23.449  0.00  0.00    +0.000 A 
ATOM     24  C   UNL     1       9.925   0.879  22.087  0.00  0.00    +0.000 A 
ATOM     25  C   UNL     1       9.521  -0.287  21.447  0.00  0.00    +0.000 A 
ATOM     26  C   UNL     1       9.413  -1.477  22.170  0.00  0.00    +0.004 A 
ENDBRANCH  20  21
ENDBRANCH   1  20
TORSDOF 5
ENDMDL
