MODEL 1
REMARK VINA RESULT:      -7.2      0.000      0.000
REMARK  Name = 
REMARK  7 active torsions:
REMARK  status: ('A' for Active; 'I' for Inactive)
REMARK    1  A    between atoms: C_1  and  C_2
REMARK    2  A    between atoms: N_6  and  C_7
REMARK    3  A    between atoms: C_7  and  C_8
REMARK    4  A    between atoms: C_8  and  C_9
REMARK    5  A    between atoms: C_9  and  C_10
REMARK    6  A    between atoms: C_9  and  C_13
REMARK    7  A    between atoms: C_9  and  C_19
REMARK                            x       y       z     vdW  Elec       q    Type
REMARK                         _______ _______ _______ _____ _____    ______ ____
ROOT
ATOM      1  C   UNL     1       8.408  -3.484  24.903  0.00  0.00    +0.098 C 
ENDROOT
BRANCH   1   2
ATOM      2  C   UNL     1       9.143  -2.174  24.503  0.00  0.00    -0.028 A 
ATOM      3  C   UNL     1       9.866  -2.053  23.301  0.00  0.00    +0.005 A 
ATOM      4  C   UNL     1      10.424  -0.830  22.911  0.00  0.00    +0.000 A 
ATOM      5  C   UNL     1      10.316   0.286  23.734  0.00  0.00    +0.000 A 
ATOM      6  C   UNL     1       9.675   0.173  24.962  0.00  0.00    +0.000 A 
ATOM      7  C   UNL     1       9.107  -1.045  25.346  0.00  0.00    +0.005 A 
ENDBRANCH   1   2
BRANCH   1   8
ATOM      8  C   UNL     1       7.650  -4.035  23.645  0.00  0.00    -0.028 A 
ATOM      9  C   UNL     1       7.800  -5.375  23.228  0.00  0.00    +0.005 A 
ATOM     10  C   UNL     1       7.069  -5.889  22.150  0.00  0.00    +0.000 A 
ATOM     11  C   UNL     1       6.206  -5.070  21.432  0.00  0.00    +0.000 A 
ATOM     12  C   UNL     1       6.092  -3.730  21.776  0.00  0.00    +0.000 A 
ATOM     13  C   UNL     1       6.811  -3.217  22.861  0.00  0.00    +0.005 A 
ENDBRANCH   1   8
BRANCH   1  14
ATOM     14  C   UNL     1       9.425  -4.548  25.483  0.00  0.00    +0.225 C 
ATOM     15  O   UNL     1      10.392  -4.986  24.867  0.00  0.00    -0.275 OA
ATOM     16  N   UNL     1       9.306  -4.902  26.800  0.00  0.00    -0.328 N 
ATOM     17  H   UNL     1       9.923  -5.641  27.113  0.00  0.00    +0.145 HD
ATOM     18  H   UNL     1       8.446  -4.766  27.318  0.00  0.00    +0.145 HD
ENDBRANCH   1  14
BRANCH   1  19
ATOM     19  C   UNL     1       7.405  -3.280  26.104  0.00  0.00    +0.047 C 
BRANCH  19  20
ATOM     20  C   UNL     1       6.000  -3.881  25.911  0.00  0.00    +0.124 C 
BRANCH  20  23
ATOM     21  C   UNL     1       4.860  -6.641  25.080  0.00  0.00    +0.086 C 
ATOM     22  C   UNL     1       5.279  -6.258  26.452  0.00  0.00    +0.106 A 
ATOM     23  N   UNL     1       5.779  -5.021  26.791  0.00  0.00    -0.334 N 
ATOM     24  C   UNL     1       6.073  -5.047  28.130  0.00  0.00    +0.107 A 
ATOM     25  C   UNL     1       5.731  -6.310  28.548  0.00  0.00    +0.130 A 
ATOM     26  N   UNL     1       5.233  -7.045  27.509  0.00  0.00    -0.241 NA
ENDBRANCH  20  23
ENDBRANCH  19  20
ENDBRANCH   1  19
TORSDOF 6
ENDMDL
MODEL 2
REMARK VINA RESULT:      -6.7      2.117      5.901
REMARK  Name = 
REMARK  7 active torsions:
REMARK  status: ('A' for Active; 'I' for Inactive)
REMARK    1  A    between atoms: C_1  and  C_2
REMARK    2  A    between atoms: N_6  and  C_7
REMARK    3  A    between atoms: C_7  and  C_8
REMARK    4  A    between atoms: C_8  and  C_9
REMARK    5  A    between atoms: C_9  and  C_10
REMARK    6  A    between atoms: C_9  and  C_13
REMARK    7  A    between atoms: C_9  and  C_19
REMARK                            x       y       z     vdW  Elec       q    Type
REMARK                         _______ _______ _______ _____ _____    ______ ____
ROOT
ATOM      1  C   UNL     1       7.769  -3.984  24.938  0.00  0.00    +0.098 C 
ENDROOT
BRANCH   1   2
ATOM      2  C   UNL     1       7.290  -4.409  23.522  0.00  0.00    -0.028 A 
ATOM      3  C   UNL     1       7.617  -5.657  22.959  0.00  0.00    +0.005 A 
ATOM      4  C   UNL     1       7.082  -6.062  21.731  0.00  0.00    +0.000 A 
ATOM      5  C   UNL     1       6.249  -5.210  21.013  0.00  0.00    +0.000 A 
ATOM      6  C   UNL     1       5.973  -3.942  21.509  0.00  0.00    +0.000 A 
ATOM      7  C   UNL     1       6.498  -3.543  22.741  0.00  0.00    +0.005 A 
ENDBRANCH   1   2
BRANCH   1   8
ATOM      8  C   UNL     1       6.517  -3.868  25.875  0.00  0.00    -0.028 A 
ATOM      9  C   UNL     1       6.337  -2.755  26.723  0.00  0.00    +0.005 A 
ATOM     10  C   UNL     1       5.185  -2.613  27.507  0.00  0.00    +0.000 A 
ATOM     11  C   UNL     1       4.206  -3.599  27.500  0.00  0.00    +0.000 A 
ATOM     12  C   UNL     1       4.389  -4.739  26.729  0.00  0.00    +0.000 A 
ATOM     13  C   UNL     1       5.533  -4.876  25.935  0.00  0.00    +0.005 A 
ENDBRANCH   1   8
BRANCH   1  14
ATOM     14  C   UNL     1       8.830  -5.010  25.507  0.00  0.00    +0.225 C 
ATOM     15  O   UNL     1       9.950  -5.179  25.034  0.00  0.00    -0.275 OA
ATOM     16  N   UNL     1       8.540  -5.652  26.680  0.00  0.00    -0.328 N 
ATOM     17  H   UNL     1       9.206  -6.358  26.970  0.00  0.00    +0.145 HD
ATOM     18  H   UNL     1       7.591  -5.742  27.025  0.00  0.00    +0.145 HD
ENDBRANCH   1  14
BRANCH   1  19
ATOM     19  C   UNL     1       8.577  -2.628  24.929  0.00  0.00    +0.047 C 
BRANCH  19  20
ATOM     20  C   UNL     1       9.772  -2.570  23.959  0.00  0.00    +0.124 C 
BRANCH  20  23
ATOM     21  C   UNL     1      10.699   0.278  24.756  0.00  0.00    +0.086 C 
ATOM     22  C   UNL     1      10.128  -0.107  23.440  0.00  0.00    +0.106 A 
ATOM     23  N   UNL     1       9.722  -1.381  23.117  0.00  0.00    -0.334 N 
ATOM     24  C   UNL     1       9.275  -1.357  21.821  0.00  0.00    +0.107 A 
ATOM     25  C   UNL     1       9.429  -0.054  21.413  0.00  0.00    +0.130 A 
ATOM     26  N   UNL     1       9.946   0.711  22.422  0.00  0.00    -0.241 NA
ENDBRANCH  20  23
ENDBRANCH  19  20
ENDBRANCH   1  19
TORSDOF 6
ENDMDL
MODEL 3
REMARK VINA RESULT:      -6.7      1.513      1.953
REMARK  Name = 
REMARK  7 active torsions:
REMARK  status: ('A' for Active; 'I' for Inactive)
REMARK    1  A    between atoms: C_1  and  C_2
REMARK    2  A    between atoms: N_6  and  C_7
REMARK    3  A    between atoms: C_7  and  C_8
REMARK    4  A    between atoms: C_8  and  C_9
REMARK    5  A    between atoms: C_9  and  C_10
REMARK    6  A    between atoms: C_9  and  C_13
REMARK    7  A    between atoms: C_9  and  C_19
REMARK                            x       y       z     vdW  Elec       q    Type
REMARK                         _______ _______ _______ _____ _____    ______ ____
ROOT
ATOM      1  C   UNL     1       8.172  -3.816  24.899  0.00  0.00    +0.098 C 
ENDROOT
BRANCH   1   2
ATOM      2  C   UNL     1       8.955  -2.496  24.654  0.00  0.00    -0.028 A 
ATOM      3  C   UNL     1       9.775  -2.304  23.525  0.00  0.00    +0.005 A 
ATOM      4  C   UNL     1      10.380  -1.069  23.269  0.00  0.00    +0.000 A 
ATOM      5  C   UNL     1      10.222  -0.012  24.160  0.00  0.00    +0.000 A 
ATOM      6  C   UNL     1       9.483  -0.198  25.321  0.00  0.00    +0.000 A 
ATOM      7  C   UNL     1       8.869  -1.429  25.570  0.00  0.00    +0.005 A 
ENDBRANCH   1   2
BRANCH   1   8
ATOM      8  C   UNL     1       7.503  -4.257  23.551  0.00  0.00    -0.028 A 
ATOM      9  C   UNL     1       7.688  -5.557  23.032  0.00  0.00    +0.005 A 
ATOM     10  C   UNL     1       7.033  -5.977  21.867  0.00  0.00    +0.000 A 
ATOM     11  C   UNL     1       6.217  -5.098  21.165  0.00  0.00    +0.000 A 
ATOM     12  C   UNL     1       6.073  -3.793  21.613  0.00  0.00    +0.000 A 
ATOM     13  C   UNL     1       6.715  -3.375  22.785  0.00  0.00    +0.005 A 
ENDBRANCH   1   8
BRANCH   1  14
ATOM     14  C   UNL     1       9.126  -4.941  25.472  0.00  0.00    +0.225 C 
ATOM     15  O   UNL     1      10.303  -5.078  25.151  0.00  0.00    -0.275 OA
ATOM     16  N   UNL     1       8.657  -5.725  26.491  0.00  0.00    -0.328 N 
ATOM     17  H   UNL     1       9.266  -6.483  26.776  0.00  0.00    +0.145 HD
ATOM     18  H   UNL     1       7.667  -5.832  26.676  0.00  0.00    +0.145 HD
ENDBRANCH   1  14
BRANCH   1  19
ATOM     19  C   UNL     1       7.084  -3.680  26.034  0.00  0.00    +0.047 C 
BRANCH  19  20
ATOM     20  C   UNL     1       5.813  -4.529  25.846  0.00  0.00    +0.124 C 
BRANCH  20  23
ATOM     21  C   UNL     1       3.390  -4.646  23.918  0.00  0.00    +0.086 C 
ATOM     22  C   UNL     1       3.516  -3.745  25.092  0.00  0.00    +0.106 A 
ATOM     23  N   UNL     1       4.608  -3.714  25.928  0.00  0.00    -0.334 N 
ATOM     24  C   UNL     1       4.357  -2.782  26.902  0.00  0.00    +0.107 A 
ATOM     25  C   UNL     1       3.112  -2.281  26.607  0.00  0.00    +0.130 A 
ATOM     26  N   UNL     1       2.606  -2.874  25.483  0.00  0.00    -0.241 NA
ENDBRANCH  20  23
ENDBRANCH  19  20
ENDBRANCH   1  19
TORSDOF 6
ENDMDL
MODEL 4
REMARK VINA RESULT:      -6.6      2.249      5.800
REMARK  Name = 
REMARK  7 active torsions:
REMARK  status: ('A' for Active; 'I' for Inactive)
REMARK    1  A    between atoms: C_1  and  C_2
REMARK    2  A    between atoms: N_6  and  C_7
REMARK    3  A    between atoms: C_7  and  C_8
REMARK    4  A    between atoms: C_8  and  C_9
REMARK    5  A    between atoms: C_9  and  C_10
REMARK    6  A    between atoms: C_9  and  C_13
REMARK    7  A    between atoms: C_9  and  C_19
REMARK                            x       y       z     vdW  Elec       q    Type
REMARK                         _______ _______ _______ _____ _____    ______ ____
ROOT
ATOM      1  C   UNL     1       8.467  -3.723  24.538  0.00  0.00    +0.098 C 
ENDROOT
BRANCH   1   2
ATOM      2  C   UNL     1       7.609  -4.284  23.369  0.00  0.00    -0.028 A 
ATOM      3  C   UNL     1       6.718  -3.478  22.634  0.00  0.00    +0.005 A 
ATOM      4  C   UNL     1       6.041  -3.979  21.517  0.00  0.00    +0.000 A 
ATOM      5  C   UNL     1       6.199  -5.308  21.137  0.00  0.00    +0.000 A 
ATOM      6  C   UNL     1       7.011  -6.145  21.892  0.00  0.00    +0.000 A 
ATOM      7  C   UNL     1       7.697  -5.641  23.001  0.00  0.00    +0.005 A 
ENDBRANCH   1   2
BRANCH   1   8
ATOM      8  C   UNL     1       7.546  -2.850  25.459  0.00  0.00    -0.028 A 
ATOM      9  C   UNL     1       8.080  -1.828  26.273  0.00  0.00    +0.005 A 
ATOM     10  C   UNL     1       7.252  -1.000  27.041  0.00  0.00    +0.000 A 
ATOM     11  C   UNL     1       5.877  -1.200  27.055  0.00  0.00    +0.000 A 
ATOM     12  C   UNL     1       5.331  -2.242  26.320  0.00  0.00    +0.000 A 
ATOM     13  C   UNL     1       6.154  -3.062  25.540  0.00  0.00    +0.005 A 
ENDBRANCH   1   8
BRANCH   1  14
ATOM     14  C   UNL     1       9.157  -4.895  25.345  0.00  0.00    +0.225 C 
ATOM     15  O   UNL     1      10.344  -5.192  25.252  0.00  0.00    -0.275 OA
ATOM     16  N   UNL     1       8.425  -5.531  26.311  0.00  0.00    -0.328 N 
ATOM     17  H   UNL     1       8.873  -6.325  26.750  0.00  0.00    +0.145 HD
ATOM     18  H   UNL     1       7.412  -5.508  26.320  0.00  0.00    +0.145 HD
ENDBRANCH   1  14
BRANCH   1  19
ATOM     19  C   UNL     1       9.703  -2.878  24.037  0.00  0.00    +0.047 C 
BRANCH  19  20
ATOM     20  C   UNL     1       9.412  -1.877  22.904  0.00  0.00    +0.124 C 
BRANCH  20  23
ATOM     21  C   UNL     1       7.036   0.097  23.156  0.00  0.00    +0.086 C 
ATOM     22  C   UNL     1       8.448   0.398  23.501  0.00  0.00    +0.106 A 
ATOM     23  N   UNL     1       9.483  -0.500  23.375  0.00  0.00    -0.334 N 
ATOM     24  C   UNL     1      10.626   0.123  23.807  0.00  0.00    +0.107 A 
ATOM     25  C   UNL     1      10.229   1.386  24.175  0.00  0.00    +0.130 A 
ATOM     26  N   UNL     1       8.887   1.549  23.974  0.00  0.00    -0.241 NA
ENDBRANCH  20  23
ENDBRANCH  19  20
ENDBRANCH   1  19
TORSDOF 6
ENDMDL
MODEL 5
REMARK VINA RESULT:      -6.4      0.907      1.355
REMARK  Name = 
REMARK  7 active torsions:
REMARK  status: ('A' for Active; 'I' for Inactive)
REMARK    1  A    between atoms: C_1  and  C_2
REMARK    2  A    between atoms: N_6  and  C_7
REMARK    3  A    between atoms: C_7  and  C_8
REMARK    4  A    between atoms: C_8  and  C_9
REMARK    5  A    between atoms: C_9  and  C_10
REMARK    6  A    between atoms: C_9  and  C_13
REMARK    7  A    between atoms: C_9  and  C_19
REMARK                            x       y       z     vdW  Elec       q    Type
REMARK                         _______ _______ _______ _____ _____    ______ ____
ROOT
ATOM      1  C   UNL     1       8.165  -3.584  24.987  0.00  0.00    +0.098 C 
ENDROOT
BRANCH   1   2
ATOM      2  C   UNL     1       9.008  -2.327  24.631  0.00  0.00    -0.028 A 
ATOM      3  C   UNL     1       9.833  -2.272  23.491  0.00  0.00    +0.005 A 
ATOM      4  C   UNL     1      10.495  -1.093  23.131  0.00  0.00    +0.000 A 
ATOM      5  C   UNL     1      10.388   0.043  23.926  0.00  0.00    +0.000 A 
ATOM      6  C   UNL     1       9.644  -0.008  25.098  0.00  0.00    +0.000 A 
ATOM      7  C   UNL     1       8.974  -1.182  25.451  0.00  0.00    +0.005 A 
ENDBRANCH   1   2
BRANCH   1   8
ATOM      8  C   UNL     1       7.416  -4.065  23.696  0.00  0.00    -0.028 A 
ATOM      9  C   UNL     1       6.669  -3.166  22.904  0.00  0.00    +0.005 A 
ATOM     10  C   UNL     1       6.060  -3.577  21.712  0.00  0.00    +0.000 A 
ATOM     11  C   UNL     1       6.140  -4.903  21.304  0.00  0.00    +0.000 A 
ATOM     12  C   UNL     1       6.808  -5.824  22.099  0.00  0.00    +0.000 A 
ATOM     13  C   UNL     1       7.430  -5.413  23.284  0.00  0.00    +0.005 A 
ENDBRANCH   1   8
BRANCH   1  14
ATOM     14  C   UNL     1       9.080  -4.725  25.591  0.00  0.00    +0.225 C 
ATOM     15  O   UNL     1      10.211  -4.986  25.193  0.00  0.00    -0.275 OA
ATOM     16  N   UNL     1       8.643  -5.372  26.715  0.00  0.00    -0.328 N 
ATOM     17  H   UNL     1       9.217  -6.148  27.025  0.00  0.00    +0.145 HD
ATOM     18  H   UNL     1       7.667  -5.380  26.987  0.00  0.00    +0.145 HD
ENDBRANCH   1  14
BRANCH   1  19
ATOM     19  C   UNL     1       7.136  -3.318  26.154  0.00  0.00    +0.047 C 
BRANCH  19  20
ATOM     20  C   UNL     1       5.650  -3.480  25.783  0.00  0.00    +0.124 C 
BRANCH  20  23
ATOM     21  C   UNL     1       5.037  -6.515  25.913  0.00  0.00    +0.086 C 
ATOM     22  C   UNL     1       4.622  -5.507  26.921  0.00  0.00    +0.106 A 
ATOM     23  N   UNL     1       4.907  -4.164  26.833  0.00  0.00    -0.334 N 
ATOM     24  C   UNL     1       4.387  -3.557  27.948  0.00  0.00    +0.107 A 
ATOM     25  C   UNL     1       3.800  -4.571  28.667  0.00  0.00    +0.130 A 
ATOM     26  N   UNL     1       3.942  -5.767  28.021  0.00  0.00    -0.241 NA
ENDBRANCH  20  23
ENDBRANCH  19  20
ENDBRANCH   1  19
TORSDOF 6
ENDMDL
MODEL 6
REMARK VINA RESULT:      -6.4      1.961      2.853
REMARK  Name = 
REMARK  7 active torsions:
REMARK  status: ('A' for Active; 'I' for Inactive)
REMARK    1  A    between atoms: C_1  and  C_2
REMARK    2  A    between atoms: N_6  and  C_7
REMARK    3  A    between atoms: C_7  and  C_8
REMARK    4  A    between atoms: C_8  and  C_9
REMARK    5  A    between atoms: C_9  and  C_10
REMARK    6  A    between atoms: C_9  and  C_13
REMARK    7  A    between atoms: C_9  and  C_19
REMARK                            x       y       z     vdW  Elec       q    Type
REMARK                         _______ _______ _______ _____ _____    ______ ____
ROOT
ATOM      1  C   UNL     1       8.184  -3.778  24.852  0.00  0.00    +0.098 C 
ENDROOT
BRANCH   1   2
ATOM      2  C   UNL     1       8.984  -2.475  24.570  0.00  0.00    -0.028 A 
ATOM      3  C   UNL     1       9.660  -2.254  23.354  0.00  0.00    +0.005 A 
ATOM      4  C   UNL     1      10.278  -1.029  23.081  0.00  0.00    +0.000 A 
ATOM      5  C   UNL     1      10.280  -0.015  24.034  0.00  0.00    +0.000 A 
ATOM      6  C   UNL     1       9.689  -0.236  25.271  0.00  0.00    +0.000 A 
ATOM      7  C   UNL     1       9.060  -1.455  25.540  0.00  0.00    +0.005 A 
ENDBRANCH   1   2
BRANCH   1   8
ATOM      8  C   UNL     1       7.495  -4.238  23.520  0.00  0.00    -0.028 A 
ATOM      9  C   UNL     1       7.649  -5.552  23.031  0.00  0.00    +0.005 A 
ATOM     10  C   UNL     1       6.976  -5.988  21.883  0.00  0.00    +0.000 A 
ATOM     11  C   UNL     1       6.171  -5.110  21.167  0.00  0.00    +0.000 A 
ATOM     12  C   UNL     1       6.056  -3.792  21.585  0.00  0.00    +0.000 A 
ATOM     13  C   UNL     1       6.717  -3.358  22.740  0.00  0.00    +0.005 A 
ENDBRANCH   1   8
BRANCH   1  14
ATOM     14  C   UNL     1       9.127  -4.904  25.439  0.00  0.00    +0.225 C 
ATOM     15  O   UNL     1      10.317  -5.023  25.162  0.00  0.00    -0.275 OA
ATOM     16  N   UNL     1       8.628  -5.713  26.424  0.00  0.00    -0.328 N 
ATOM     17  H   UNL     1       9.233  -6.471  26.718  0.00  0.00    +0.145 HD
ATOM     18  H   UNL     1       7.632  -5.833  26.568  0.00  0.00    +0.145 HD
ENDBRANCH   1  14
BRANCH   1  19
ATOM     19  C   UNL     1       7.111  -3.601  25.995  0.00  0.00    +0.047 C 
BRANCH  19  20
ATOM     20  C   UNL     1       5.751  -3.030  25.551  0.00  0.00    +0.124 C 
BRANCH  20  23
ATOM     21  C   UNL     1       5.953  -0.132  24.471  0.00  0.00    +0.086 C 
ATOM     22  C   UNL     1       5.492  -0.516  25.829  0.00  0.00    +0.106 A 
ATOM     23  N   UNL     1       5.416  -1.814  26.281  0.00  0.00    -0.334 N 
ATOM     24  C   UNL     1       4.930  -1.777  27.563  0.00  0.00    +0.107 A 
ATOM     25  C   UNL     1       4.735  -0.445  27.835  0.00  0.00    +0.130 A 
ATOM     26  N   UNL     1       5.093   0.325  26.763  0.00  0.00    -0.241 NA
ENDBRANCH  20  23
ENDBRANCH  19  20
ENDBRANCH   1  19
TORSDOF 6
ENDMDL
MODEL 7
REMARK VINA RESULT:      -6.4      2.787      6.109
REMARK  Name = 
REMARK  7 active torsions:
REMARK  status: ('A' for Active; 'I' for Inactive)
REMARK    1  A    between atoms: C_1  and  C_2
REMARK    2  A    between atoms: N_6  and  C_7
REMARK    3  A    between atoms: C_7  and  C_8
REMARK    4  A    between atoms: C_8  and  C_9
REMARK    5  A    between atoms: C_9  and  C_10
REMARK    6  A    between atoms: C_9  and  C_13
REMARK    7  A    between atoms: C_9  and  C_19
REMARK                            x       y       z     vdW  Elec       q    Type
REMARK                         _______ _______ _______ _____ _____    ______ ____
ROOT
ATOM      1  C   UNL     1       5.774  -4.431  23.054  0.00  0.00    +0.098 C 
ENDROOT
BRANCH   1   2
ATOM      2  C   UNL     1       4.338  -4.397  23.648  0.00  0.00    -0.028 A 
ATOM      3  C   UNL     1       3.329  -5.287  23.231  0.00  0.00    +0.005 A 
ATOM      4  C   UNL     1       2.079  -5.312  23.859  0.00  0.00    +0.000 A 
ATOM      5  C   UNL     1       1.790  -4.417  24.884  0.00  0.00    +0.000 A 
ATOM      6  C   UNL     1       2.740  -3.477  25.262  0.00  0.00    +0.000 A 
ATOM      7  C   UNL     1       3.993  -3.460  24.643  0.00  0.00    +0.005 A 
ENDBRANCH   1   2
BRANCH   1   8
ATOM      8  C   UNL     1       6.784  -4.763  24.206  0.00  0.00    -0.028 A 
ATOM      9  C   UNL     1       8.156  -4.964  23.942  0.00  0.00    +0.005 A 
ATOM     10  C   UNL     1       9.072  -5.189  24.977  0.00  0.00    +0.000 A 
ATOM     11  C   UNL     1       8.638  -5.267  26.295  0.00  0.00    +0.000 A 
ATOM     12  C   UNL     1       7.285  -5.143  26.576  0.00  0.00    +0.000 A 
ATOM     13  C   UNL     1       6.368  -4.904  25.546  0.00  0.00    +0.005 A 
ENDBRANCH   1   8
BRANCH   1  14
ATOM     14  C   UNL     1       5.871  -5.478  21.872  0.00  0.00    +0.225 C 
ATOM     15  O   UNL     1       5.917  -5.175  20.683  0.00  0.00    -0.275 OA
ATOM     16  N   UNL     1       6.057  -6.795  22.192  0.00  0.00    -0.328 N 
ATOM     17  H   UNL     1       6.035  -7.444  21.414  0.00  0.00    +0.145 HD
ATOM     18  H   UNL     1       5.828  -7.164  23.108  0.00  0.00    +0.145 HD
ENDBRANCH   1  14
BRANCH   1  19
ATOM     19  C   UNL     1       6.173  -3.078  22.345  0.00  0.00    +0.047 C 
BRANCH  19  20
ATOM     20  C   UNL     1       6.573  -1.925  23.285  0.00  0.00    +0.124 C 
BRANCH  20  23
ATOM     21  C   UNL     1       8.440  -1.485  25.719  0.00  0.00    +0.086 C 
ATOM     22  C   UNL     1       8.861  -1.471  24.295  0.00  0.00    +0.106 A 
ATOM     23  N   UNL     1       8.006  -1.666  23.235  0.00  0.00    -0.334 N 
ATOM     24  C   UNL     1       8.752  -1.606  22.085  0.00  0.00    +0.107 A 
ATOM     25  C   UNL     1      10.039  -1.369  22.506  0.00  0.00    +0.130 A 
ATOM     26  N   UNL     1      10.094  -1.278  23.869  0.00  0.00    -0.241 NA
ENDBRANCH  20  23
ENDBRANCH  19  20
ENDBRANCH   1  19
TORSDOF 6
ENDMDL
MODEL 8
REMARK VINA RESULT:      -6.3      2.295      3.956
REMARK  Name = 
REMARK  7 active torsions:
REMARK  status: ('A' for Active; 'I' for Inactive)
REMARK    1  A    between atoms: C_1  and  C_2
REMARK    2  A    between atoms: N_6  and  C_7
REMARK    3  A    between atoms: C_7  and  C_8
REMARK    4  A    between atoms: C_8  and  C_9
REMARK    5  A    between atoms: C_9  and  C_10
REMARK    6  A    between atoms: C_9  and  C_13
REMARK    7  A    between atoms: C_9  and  C_19
REMARK                            x       y       z     vdW  Elec       q    Type
REMARK                         _______ _______ _______ _____ _____    ______ ____
ROOT
ATOM      1  C   UNL     1       8.050  -3.716  24.732  0.00  0.00    +0.098 C 
ENDROOT
BRANCH   1   2
ATOM      2  C   UNL     1       8.681  -2.683  23.758  0.00  0.00    -0.028 A 
ATOM      3  C   UNL     1      10.059  -2.391  23.757  0.00  0.00    +0.005 A 
ATOM      4  C   UNL     1      10.620  -1.542  22.798  0.00  0.00    +0.000 A 
ATOM      5  C   UNL     1       9.813  -0.925  21.848  0.00  0.00    +0.000 A 
ATOM      6  C   UNL     1       8.440  -1.134  21.875  0.00  0.00    +0.000 A 
ATOM      7  C   UNL     1       7.881  -1.992  22.826  0.00  0.00    +0.005 A 
ENDBRANCH   1   2
BRANCH   1   8
ATOM      8  C   UNL     1       6.957  -4.531  23.957  0.00  0.00    -0.028 A 
ATOM      9  C   UNL     1       5.590  -4.428  24.291  0.00  0.00    +0.005 A 
ATOM     10  C   UNL     1       4.606  -5.097  23.554  0.00  0.00    +0.000 A 
ATOM     11  C   UNL     1       4.962  -5.924  22.496  0.00  0.00    +0.000 A 
ATOM     12  C   UNL     1       6.304  -6.101  22.189  0.00  0.00    +0.000 A 
ATOM     13  C   UNL     1       7.289  -5.421  22.915  0.00  0.00    +0.005 A 
ENDBRANCH   1   8
BRANCH   1  14
ATOM     14  C   UNL     1       9.159  -4.664  25.346  0.00  0.00    +0.225 C 
ATOM     15  O   UNL     1      10.197  -4.974  24.771  0.00  0.00    -0.275 OA
ATOM     16  N   UNL     1       9.022  -5.053  26.651  0.00  0.00    -0.328 N 
ATOM     17  H   UNL     1       9.707  -5.721  26.983  0.00  0.00    +0.145 HD
ATOM     18  H   UNL     1       8.129  -5.029  27.129  0.00  0.00    +0.145 HD
ENDBRANCH   1  14
BRANCH   1  19
ATOM     19  C   UNL     1       7.426  -3.044  26.017  0.00  0.00    +0.047 C 
BRANCH  19  20
ATOM     20  C   UNL     1       8.019  -1.678  26.409  0.00  0.00    +0.124 C 
BRANCH  20  23
ATOM     21  C   UNL     1       8.871   0.963  25.028  0.00  0.00    +0.086 C 
ATOM     22  C   UNL     1       7.483   0.599  25.413  0.00  0.00    +0.106 A 
ATOM     23  N   UNL     1       7.137  -0.582  26.030  0.00  0.00    -0.334 N 
ATOM     24  C   UNL     1       5.777  -0.572  26.207  0.00  0.00    +0.107 A 
ATOM     25  C   UNL     1       5.357   0.629  25.689  0.00  0.00    +0.130 A 
ATOM     26  N   UNL     1       6.417   1.348  25.211  0.00  0.00    -0.241 NA
ENDBRANCH  20  23
ENDBRANCH  19  20
ENDBRANCH   1  19
TORSDOF 6
ENDMDL
MODEL 9
REMARK VINA RESULT:      -6.3      2.070      5.788
REMARK  Name = 
REMARK  7 active torsions:
REMARK  status: ('A' for Active; 'I' for Inactive)
REMARK    1  A    between atoms: C_1  and  C_2
REMARK    2  A    between atoms: N_6  and  C_7
REMARK    3  A    between atoms: C_7  and  C_8
REMARK    4  A    between atoms: C_8  and  C_9
REMARK    5  A    between atoms: C_9  and  C_10
REMARK    6  A    between atoms: C_9  and  C_13
REMARK    7  A    between atoms: C_9  and  C_19
REMARK                            x       y       z     vdW  Elec       q    Type
REMARK                         _______ _______ _______ _____ _____    ______ ____
ROOT
ATOM      1  C   UNL     1       7.609  -4.000  25.044  0.00  0.00    +0.098 C 
ENDROOT
BRANCH   1   2
ATOM      2  C   UNL     1       7.103  -4.370  23.622  0.00  0.00    -0.028 A 
ATOM      3  C   UNL     1       6.263  -3.521  22.876  0.00  0.00    +0.005 A 
ATOM      4  C   UNL     1       5.912  -3.825  21.556  0.00  0.00    +0.000 A 
ATOM      5  C   UNL     1       6.350  -5.007  20.967  0.00  0.00    +0.000 A 
ATOM      6  C   UNL     1       7.115  -5.900  21.707  0.00  0.00    +0.000 A 
ATOM      7  C   UNL     1       7.475  -5.590  23.022  0.00  0.00    +0.005 A 
ENDBRANCH   1   2
BRANCH   1   8
ATOM      8  C   UNL     1       6.381  -3.972  26.020  0.00  0.00    -0.028 A 
ATOM      9  C   UNL     1       5.449  -5.031  26.054  0.00  0.00    +0.005 A 
ATOM     10  C   UNL     1       4.393  -5.044  26.974  0.00  0.00    +0.000 A 
ATOM     11  C   UNL     1       4.213  -3.981  27.850  0.00  0.00    +0.000 A 
ATOM     12  C   UNL     1       5.073  -2.894  27.792  0.00  0.00    +0.000 A 
ATOM     13  C   UNL     1       6.137  -2.884  26.882  0.00  0.00    +0.005 A 
ENDBRANCH   1   8
BRANCH   1  14
ATOM     14  C   UNL     1       8.719  -5.016  25.532  0.00  0.00    +0.225 C 
ATOM     15  O   UNL     1       9.831  -5.120  25.023  0.00  0.00    -0.275 OA
ATOM     16  N   UNL     1       8.482  -5.728  26.676  0.00  0.00    -0.328 N 
ATOM     17  H   UNL     1       9.179  -6.424  26.912  0.00  0.00    +0.145 HD
ATOM     18  H   UNL     1       7.546  -5.869  27.039  0.00  0.00    +0.145 HD
ENDBRANCH   1  14
BRANCH   1  19
ATOM     19  C   UNL     1       8.371  -2.618  25.080  0.00  0.00    +0.047 C 
BRANCH  19  20
ATOM     20  C   UNL     1       9.292  -2.332  23.879  0.00  0.00    +0.124 C 
BRANCH  20  23
ATOM     21  C   UNL     1       9.422  -0.473  21.403  0.00  0.00    +0.086 C 
ATOM     22  C   UNL     1       9.807  -0.096  22.787  0.00  0.00    +0.106 A 
ATOM     23  N   UNL     1       9.741  -0.946  23.866  0.00  0.00    -0.334 N 
ATOM     24  C   UNL     1      10.152  -0.245  24.971  0.00  0.00    +0.107 A 
ATOM     25  C   UNL     1      10.456   1.012  24.505  0.00  0.00    +0.130 A 
ATOM     26  N   UNL     1      10.249   1.091  23.156  0.00  0.00    -0.241 NA
ENDBRANCH  20  23
ENDBRANCH  19  20
ENDBRANCH   1  19
TORSDOF 6
ENDMDL
