MODEL 1
REMARK VINA RESULT:      -7.7      0.000      0.000
REMARK  Name = 
REMARK  13 active torsions:
REMARK  status: ('A' for Active; 'I' for Inactive)
REMARK    1  A    between atoms: C_5  and  C_6
REMARK    2  A    between atoms: C_6  and  S_7
REMARK    3  A    between atoms: S_7  and  C_8
REMARK    4  A    between atoms: N_12  and  C_13
REMARK    5  A    between atoms: C_13  and  C_14
REMARK    6  A    between atoms: C_14  and  O_15
REMARK    7  A    between atoms: CA_17  and  C_35
REMARK    8  A    between atoms: CA_21  and  N_23
REMARK    9  A    between atoms: C_24  and  C_26
REMARK   10  A    between atoms: C_26  and  C_27
REMARK   11  A    between atoms: C_32  and  C_33
REMARK   12  A    between atoms: C_33  and  N_34
REMARK   13  A    between atoms: C_35  and  O_36
REMARK                            x       y       z     vdW  Elec       q    Type
REMARK                         _______ _______ _______ _____ _____    ______ ____
ROOT
ATOM      1  C   UNL     1       9.001  -0.941  25.387  0.00  0.00    +0.169 C 
ATOM      2  CA  UNL     1       9.711  -0.424  24.093  0.00  0.00    +0.191 C 
ATOM      3  C   UNL     1       9.927  -1.939  23.804  0.00  0.00    +0.244 C 
ATOM      4  O   UNL     1      10.424  -2.627  22.941  0.00  0.00    -0.273 OA
ATOM      5  N   UNL     1       9.193  -2.282  24.877  0.00  0.00    -0.249 N 
ATOM      6  CA  UNL     1       8.690  -3.409  25.464  0.00  0.00    +0.123 C 
ATOM      7  C   UNL     1       7.670  -3.301  26.364  0.00  0.00    -0.021 C 
ATOM      8  C   UNL     1       6.968  -1.994  26.711  0.00  0.00    +0.104 C 
ATOM      9  S   UNL     1       7.224  -0.654  25.525  0.00  0.00    -0.131 S 
ENDROOT
BRANCH   2  10
ATOM     10  N   UNL     1       8.909   0.313  23.092  0.00  0.00    -0.301 N 
ATOM     11  H   UNL     1       8.053  -0.087  22.715  0.00  0.00    +0.150 HD
ATOM     12  C   UNL     1       9.138   1.583  22.631  0.00  0.00    +0.218 C 
ATOM     13  O   UNL     1       8.339   2.083  21.838  0.00  0.00    -0.275 OA
BRANCH  12  14
ATOM     14  C   UNL     1      10.364   2.334  23.127  0.00  0.00    +0.131 C 
BRANCH  14  15
ATOM     15  C   UNL     1      10.058   3.647  23.815  0.00  0.00    -0.034 A 
ATOM     16  C   UNL     1      10.900   4.778  23.714  0.00  0.00    -0.030 A 
ATOM     17  C   UNL     1      10.523   5.958  24.388  0.00  0.00    +0.005 A 
ATOM     18  C   UNL     1       9.337   6.038  25.116  0.00  0.00    +0.000 A 
ATOM     19  C   UNL     1       8.507   4.931  25.206  0.00  0.00    +0.000 A 
ATOM     20  C   UNL     1       8.862   3.749  24.558  0.00  0.00    +0.004 A 
BRANCH  16  21
ATOM     21  C   UNL     1      12.222   4.748  22.969  0.00  0.00    +0.113 C 
BRANCH  21  22
ATOM     22  N   UNL     1      13.259   5.551  23.618  0.00  0.00    -0.326 NA
ATOM     23  H   UNL     1      14.096   4.980  23.711  0.00  0.00    +0.119 HD
ATOM     24  H   UNL     1      13.505   6.320  22.996  0.00  0.00    +0.119 HD
ENDBRANCH  21  22
ENDBRANCH  16  21
ENDBRANCH  14  15
ENDBRANCH  12  14
ENDBRANCH   2  10
BRANCH   6  25
ATOM     25  C   UNL     1       9.267  -4.767  25.125  0.00  0.00    +0.351 C 
ATOM     26  OXT UNL     1       8.892  -5.426  24.165  0.00  0.00    -0.244 OA
BRANCH  25  27
ATOM     27  O   UNL     1      10.229  -5.246  25.931  0.00  0.00    -0.476 OA
ATOM     28  H   UNL     1      10.646  -6.108  25.709  0.00  0.00    +0.295 HD
ENDBRANCH  25  27
ENDBRANCH   6  25
BRANCH   7  29
ATOM     29  C   UNL     1       6.989  -4.482  27.053  0.00  0.00    +0.111 C 
BRANCH  29  30
ATOM     30  S   UNL     1       5.179  -4.440  26.810  0.00  0.00    -0.080 S 
BRANCH  30  31
ATOM     31  C   UNL     1       5.066  -5.395  25.372  0.00  0.00    +0.210 A 
ATOM     32  N   UNL     1       5.122  -4.920  24.089  0.00  0.00    -0.209 N 
ATOM     33  N   UNL     1       4.900  -5.947  23.237  0.00  0.00    -0.043 NA
ATOM     34  N   UNL     1       4.794  -7.024  24.000  0.00  0.00    -0.022 NA
ATOM     35  N   UNL     1       4.888  -6.696  25.328  0.00  0.00    -0.101 NA
BRANCH  32  36
ATOM     36  C   UNL     1       5.225  -3.566  23.596  0.00  0.00    +0.268 C 
BRANCH  36  37
ATOM     37  C   UNL     1       6.426  -3.260  22.733  0.00  0.00    +0.327 C 
ATOM     38  O   UNL     1       6.717  -2.105  22.431  0.00  0.00    -0.249 OA
BRANCH  37  39
ATOM     39  O   UNL     1       7.120  -4.294  22.220  0.00  0.00    -0.479 OA
ATOM     40  H   UNL     1       6.654  -4.809  21.521  0.00  0.00    +0.295 HD
ENDBRANCH  37  39
ENDBRANCH  36  37
ENDBRANCH  32  36
ENDBRANCH  30  31
ENDBRANCH  29  30
ENDBRANCH   7  29
TORSDOF 13
ENDMDL
MODEL 2
REMARK VINA RESULT:      -7.5      2.758      4.286
REMARK  Name = 
REMARK  13 active torsions:
REMARK  status: ('A' for Active; 'I' for Inactive)
REMARK    1  A    between atoms: C_5  and  C_6
REMARK    2  A    between atoms: C_6  and  S_7
REMARK    3  A    between atoms: S_7  and  C_8
REMARK    4  A    between atoms: N_12  and  C_13
REMARK    5  A    between atoms: C_13  and  C_14
REMARK    6  A    between atoms: C_14  and  O_15
REMARK    7  A    between atoms: CA_17  and  C_35
REMARK    8  A    between atoms: CA_21  and  N_23
REMARK    9  A    between atoms: C_24  and  C_26
REMARK   10  A    between atoms: C_26  and  C_27
REMARK   11  A    between atoms: C_32  and  C_33
REMARK   12  A    between atoms: C_33  and  N_34
REMARK   13  A    between atoms: C_35  and  O_36
REMARK                            x       y       z     vdW  Elec       q    Type
REMARK                         _______ _______ _______ _____ _____    ______ ____
ROOT
ATOM      1  C   UNL     1       6.032  -2.590  22.444  0.00  0.00    +0.169 C 
ATOM      2  CA  UNL     1       7.078  -1.436  22.591  0.00  0.00    +0.191 C 
ATOM      3  C   UNL     1       6.488  -1.306  24.028  0.00  0.00    +0.244 C 
ATOM      4  O   UNL     1       6.669  -0.630  25.015  0.00  0.00    -0.273 OA
ATOM      5  N   UNL     1       5.714  -2.390  23.842  0.00  0.00    -0.249 N 
ATOM      6  CA  UNL     1       4.862  -3.183  24.560  0.00  0.00    +0.123 C 
ATOM      7  C   UNL     1       4.546  -4.425  24.093  0.00  0.00    -0.021 C 
ATOM      8  C   UNL     1       5.153  -5.052  22.844  0.00  0.00    +0.104 C 
ATOM      9  S   UNL     1       6.674  -4.267  22.261  0.00  0.00    -0.131 S 
ENDROOT
BRANCH   2  10
ATOM     10  N   UNL     1       8.517  -1.771  22.515  0.00  0.00    -0.301 N 
ATOM     11  H   UNL     1       8.867  -2.648  22.894  0.00  0.00    +0.150 HD
ATOM     12  C   UNL     1       9.496  -1.044  21.891  0.00  0.00    +0.218 C 
ATOM     13  O   UNL     1      10.644  -1.489  21.863  0.00  0.00    -0.275 OA
BRANCH  12  14
ATOM     14  C   UNL     1       9.126   0.281  21.242  0.00  0.00    +0.131 C 
BRANCH  14  15
ATOM     15  C   UNL     1       9.273   1.485  22.148  0.00  0.00    -0.034 A 
ATOM     16  C   UNL     1       8.185   2.318  22.495  0.00  0.00    -0.030 A 
ATOM     17  C   UNL     1       8.425   3.413  23.352  0.00  0.00    +0.005 A 
ATOM     18  C   UNL     1       9.691   3.667  23.878  0.00  0.00    +0.000 A 
ATOM     19  C   UNL     1      10.755   2.843  23.543  0.00  0.00    +0.000 A 
ATOM     20  C   UNL     1      10.547   1.761  22.690  0.00  0.00    +0.004 A 
BRANCH  16  21
ATOM     21  C   UNL     1       6.791   2.119  21.930  0.00  0.00    +0.113 C 
BRANCH  21  22
ATOM     22  N   UNL     1       5.787   1.871  22.966  0.00  0.00    -0.326 NA
ATOM     23  H   UNL     1       4.880   1.772  22.516  0.00  0.00    +0.119 HD
ATOM     24  H   UNL     1       5.991   0.972  23.399  0.00  0.00    +0.119 HD
ENDBRANCH  21  22
ENDBRANCH  16  21
ENDBRANCH  14  15
ENDBRANCH  12  14
ENDBRANCH   2  10
BRANCH   6  25
ATOM     25  C   UNL     1       4.266  -2.681  25.857  0.00  0.00    +0.351 C 
ATOM     26  OXT UNL     1       3.118  -2.265  25.943  0.00  0.00    -0.244 OA
BRANCH  25  27
ATOM     27  O   UNL     1       5.053  -2.703  26.946  0.00  0.00    -0.476 OA
ATOM     28  H   UNL     1       5.869  -2.155  26.951  0.00  0.00    +0.295 HD
ENDBRANCH  25  27
ENDBRANCH   6  25
BRANCH   7  29
ATOM     29  C   UNL     1       3.648  -5.425  24.819  0.00  0.00    +0.111 C 
BRANCH  29  30
ATOM     30  S   UNL     1       4.612  -6.829  25.478  0.00  0.00    -0.080 S 
BRANCH  30  31
ATOM     31  C   UNL     1       5.435  -6.024  26.769  0.00  0.00    +0.210 A 
ATOM     32  N   UNL     1       6.697  -5.497  26.709  0.00  0.00    -0.209 N 
ATOM     33  N   UNL     1       7.035  -5.039  27.936  0.00  0.00    -0.043 NA
ATOM     34  N   UNL     1       5.961  -5.220  28.689  0.00  0.00    -0.022 NA
ATOM     35  N   UNL     1       4.963  -5.836  27.981  0.00  0.00    -0.101 NA
BRANCH  32  36
ATOM     36  C   UNL     1       7.668  -5.512  25.638  0.00  0.00    +0.268 C 
BRANCH  36  37
ATOM     37  C   UNL     1       8.427  -4.227  25.409  0.00  0.00    +0.327 C 
ATOM     38  O   UNL     1       9.369  -4.175  24.622  0.00  0.00    -0.249 OA
BRANCH  37  39
ATOM     39  O   UNL     1       8.109  -3.157  26.163  0.00  0.00    -0.479 OA
ATOM     40  H   UNL     1       8.783  -2.439  26.181  0.00  0.00    +0.295 HD
ENDBRANCH  37  39
ENDBRANCH  36  37
ENDBRANCH  32  36
ENDBRANCH  30  31
ENDBRANCH  29  30
ENDBRANCH   7  29
TORSDOF 13
ENDMDL
MODEL 3
REMARK VINA RESULT:      -7.5      2.390      3.496
REMARK  Name = 
REMARK  13 active torsions:
REMARK  status: ('A' for Active; 'I' for Inactive)
REMARK    1  A    between atoms: C_5  and  C_6
REMARK    2  A    between atoms: C_6  and  S_7
REMARK    3  A    between atoms: S_7  and  C_8
REMARK    4  A    between atoms: N_12  and  C_13
REMARK    5  A    between atoms: C_13  and  C_14
REMARK    6  A    between atoms: C_14  and  O_15
REMARK    7  A    between atoms: CA_17  and  C_35
REMARK    8  A    between atoms: CA_21  and  N_23
REMARK    9  A    between atoms: C_24  and  C_26
REMARK   10  A    between atoms: C_26  and  C_27
REMARK   11  A    between atoms: C_32  and  C_33
REMARK   12  A    between atoms: C_33  and  N_34
REMARK   13  A    between atoms: C_35  and  O_36
REMARK                            x       y       z     vdW  Elec       q    Type
REMARK                         _______ _______ _______ _____ _____    ______ ____
ROOT
ATOM      1  C   UNL     1       7.222  -0.014  23.866  0.00  0.00    +0.169 C 
ATOM      2  CA  UNL     1       8.007   1.016  24.744  0.00  0.00    +0.191 C 
ATOM      3  C   UNL     1       7.143   0.437  25.904  0.00  0.00    +0.244 C 
ATOM      4  O   UNL     1       7.015   0.601  27.097  0.00  0.00    -0.273 OA
ATOM      5  N   UNL     1       6.616  -0.495  25.091  0.00  0.00    -0.249 N 
ATOM      6  CA  UNL     1       5.793  -1.584  25.167  0.00  0.00    +0.123 C 
ATOM      7  C   UNL     1       5.790  -2.497  24.153  0.00  0.00    -0.021 C 
ATOM      8  C   UNL     1       6.721  -2.443  22.948  0.00  0.00    +0.104 C 
ATOM      9  S   UNL     1       8.166  -1.375  23.149  0.00  0.00    -0.131 S 
ENDROOT
BRANCH   2  10
ATOM     10  N   UNL     1       9.470   0.853  24.889  0.00  0.00    -0.301 N 
ATOM     11  H   UNL     1       9.855   0.121  25.480  0.00  0.00    +0.150 HD
ATOM     12  C   UNL     1      10.442   1.555  24.227  0.00  0.00    +0.218 C 
ATOM     13  O   UNL     1      11.623   1.258  24.412  0.00  0.00    -0.275 OA
BRANCH  12  14
ATOM     14  C   UNL     1      10.027   2.666  23.275  0.00  0.00    +0.131 C 
BRANCH  14  15
ATOM     15  C   UNL     1      10.073   4.055  23.874  0.00  0.00    -0.034 A 
ATOM     16  C   UNL     1      11.170   4.929  23.697  0.00  0.00    -0.030 A 
ATOM     17  C   UNL     1      11.112   6.206  24.293  0.00  0.00    +0.005 A 
ATOM     18  C   UNL     1       9.998   6.628  25.016  0.00  0.00    +0.000 A 
ATOM     19  C   UNL     1       8.919   5.773  25.180  0.00  0.00    +0.000 A 
ATOM     20  C   UNL     1       8.955   4.501  24.611  0.00  0.00    +0.004 A 
BRANCH  16  21
ATOM     21  C   UNL     1      12.428   4.521  22.954  0.00  0.00    +0.113 C 
BRANCH  21  22
ATOM     22  N   UNL     1      13.620   5.227  23.423  0.00  0.00    -0.326 NA
ATOM     23  H   UNL     1      14.442   4.710  23.116  0.00  0.00    +0.119 HD
ATOM     24  H   UNL     1      13.661   6.131  22.955  0.00  0.00    +0.119 HD
ENDBRANCH  21  22
ENDBRANCH  16  21
ENDBRANCH  14  15
ENDBRANCH  12  14
ENDBRANCH   2  10
BRANCH   6  25
ATOM     25  C   UNL     1       4.886  -1.770  26.364  0.00  0.00    +0.351 C 
ATOM     26  OXT UNL     1       5.234  -2.368  27.374  0.00  0.00    -0.244 OA
BRANCH  25  27
ATOM     27  O   UNL     1       3.650  -1.249  26.288  0.00  0.00    -0.476 OA
ATOM     28  H   UNL     1       2.878  -1.856  26.322  0.00  0.00    +0.295 HD
ENDBRANCH  25  27
ENDBRANCH   6  25
BRANCH   7  29
ATOM     29  C   UNL     1       4.957  -3.777  24.138  0.00  0.00    +0.111 C 
BRANCH  29  30
ATOM     30  S   UNL     1       6.015  -5.257  23.977  0.00  0.00    -0.080 S 
BRANCH  30  31
ATOM     31  C   UNL     1       6.292  -5.590  25.652  0.00  0.00    +0.210 A 
ATOM     32  N   UNL     1       7.294  -5.059  26.418  0.00  0.00    -0.209 N 
ATOM     33  N   UNL     1       7.249  -5.626  27.645  0.00  0.00    -0.043 NA
ATOM     34  N   UNL     1       6.188  -6.420  27.629  0.00  0.00    -0.022 NA
ATOM     35  N   UNL     1       5.588  -6.413  26.397  0.00  0.00    -0.101 NA
BRANCH  32  36
ATOM     36  C   UNL     1       8.377  -4.172  26.059  0.00  0.00    +0.268 C 
BRANCH  36  37
ATOM     37  C   UNL     1       9.554  -4.805  25.356  0.00  0.00    +0.327 C 
ATOM     38  O   UNL     1      10.183  -4.198  24.493  0.00  0.00    -0.249 OA
BRANCH  37  39
ATOM     39  O   UNL     1       9.839  -6.094  25.629  0.00  0.00    -0.479 OA
ATOM     40  H   UNL     1      10.729  -6.399  25.335  0.00  0.00    +0.295 HD
ENDBRANCH  37  39
ENDBRANCH  36  37
ENDBRANCH  32  36
ENDBRANCH  30  31
ENDBRANCH  29  30
ENDBRANCH   7  29
TORSDOF 13
ENDMDL
MODEL 4
REMARK VINA RESULT:      -7.4      1.887      2.425
REMARK  Name = 
REMARK  13 active torsions:
REMARK  status: ('A' for Active; 'I' for Inactive)
REMARK    1  A    between atoms: C_5  and  C_6
REMARK    2  A    between atoms: C_6  and  S_7
REMARK    3  A    between atoms: S_7  and  C_8
REMARK    4  A    between atoms: N_12  and  C_13
REMARK    5  A    between atoms: C_13  and  C_14
REMARK    6  A    between atoms: C_14  and  O_15
REMARK    7  A    between atoms: CA_17  and  C_35
REMARK    8  A    between atoms: CA_21  and  N_23
REMARK    9  A    between atoms: C_24  and  C_26
REMARK   10  A    between atoms: C_26  and  C_27
REMARK   11  A    between atoms: C_32  and  C_33
REMARK   12  A    between atoms: C_33  and  N_34
REMARK   13  A    between atoms: C_35  and  O_36
REMARK                            x       y       z     vdW  Elec       q    Type
REMARK                         _______ _______ _______ _____ _____    ______ ____
ROOT
ATOM      1  C   UNL     1       8.672  -0.748  25.050  0.00  0.00    +0.169 C 
ATOM      2  CA  UNL     1       9.890  -0.586  24.081  0.00  0.00    +0.191 C 
ATOM      3  C   UNL     1       9.799  -2.138  23.973  0.00  0.00    +0.244 C 
ATOM      4  O   UNL     1      10.370  -3.032  23.390  0.00  0.00    -0.273 OA
ATOM      5  N   UNL     1       8.680  -2.157  24.718  0.00  0.00    -0.249 N 
ATOM      6  CA  UNL     1       7.738  -3.054  25.139  0.00  0.00    +0.123 C 
ATOM      7  C   UNL     1       6.535  -2.600  25.594  0.00  0.00    -0.021 C 
ATOM      8  C   UNL     1       6.112  -1.136  25.590  0.00  0.00    +0.104 C 
ATOM      9  S   UNL     1       7.091  -0.065  24.510  0.00  0.00    -0.131 S 
ENDROOT
BRANCH   2  10
ATOM     10  N   UNL     1       9.694   0.159  22.817  0.00  0.00    -0.301 N 
ATOM     11  H   UNL     1       9.246  -0.283  22.018  0.00  0.00    +0.150 HD
ATOM     12  C   UNL     1       9.985   1.478  22.590  0.00  0.00    +0.218 C 
ATOM     13  O   UNL     1       9.706   1.970  21.496  0.00  0.00    -0.275 OA
BRANCH  12  14
ATOM     14  C   UNL     1      10.629   2.291  23.703  0.00  0.00    +0.131 C 
BRANCH  14  15
ATOM     15  C   UNL     1      10.071   3.689  23.860  0.00  0.00    -0.034 A 
ATOM     16  C   UNL     1      10.828   4.850  23.581  0.00  0.00    -0.030 A 
ATOM     17  C   UNL     1      10.215   6.108  23.754  0.00  0.00    +0.005 A 
ATOM     18  C   UNL     1       8.886   6.226  24.159  0.00  0.00    +0.000 A 
ATOM     19  C   UNL     1       8.143   5.086  24.423  0.00  0.00    +0.000 A 
ATOM     20  C   UNL     1       8.728   3.830  24.271  0.00  0.00    +0.004 A 
BRANCH  16  21
ATOM     21  C   UNL     1      12.288   4.794  23.172  0.00  0.00    +0.113 C 
BRANCH  21  22
ATOM     22  N   UNL     1      13.104   5.811  23.837  0.00  0.00    -0.326 NA
ATOM     23  H   UNL     1      12.511   6.324  24.487  0.00  0.00    +0.119 HD
ATOM     24  H   UNL     1      13.806   5.337  24.405  0.00  0.00    +0.119 HD
ENDBRANCH  21  22
ENDBRANCH  16  21
ENDBRANCH  14  15
ENDBRANCH  12  14
ENDBRANCH   2  10
BRANCH   6  25
ATOM     25  C   UNL     1       8.031  -4.538  25.108  0.00  0.00    +0.351 C 
ATOM     26  OXT UNL     1       8.237  -5.195  26.120  0.00  0.00    -0.244 OA
BRANCH  25  27
ATOM     27  O   UNL     1       8.064  -5.135  23.905  0.00  0.00    -0.476 OA
ATOM     28  H   UNL     1       8.492  -6.017  23.826  0.00  0.00    +0.295 HD
ENDBRANCH  25  27
ENDBRANCH   6  25
BRANCH   7  29
ATOM     29  C   UNL     1       5.382  -3.495  26.046  0.00  0.00    +0.111 C 
BRANCH  29  30
ATOM     30  S   UNL     1       3.968  -3.391  24.896  0.00  0.00    -0.080 S 
BRANCH  30  31
ATOM     31  C   UNL     1       4.644  -4.230  23.542  0.00  0.00    +0.210 A 
ATOM     32  N   UNL     1       4.814  -5.584  23.444  0.00  0.00    -0.209 N 
ATOM     33  N   UNL     1       5.459  -5.857  22.287  0.00  0.00    -0.043 NA
ATOM     34  N   UNL     1       5.597  -4.691  21.674  0.00  0.00    -0.022 NA
ATOM     35  N   UNL     1       5.101  -3.671  22.444  0.00  0.00    -0.101 NA
BRANCH  32  36
ATOM     36  C   UNL     1       4.552  -6.633  24.403  0.00  0.00    +0.268 C 
BRANCH  36  37
ATOM     37  C   UNL     1       3.317  -7.467  24.159  0.00  0.00    +0.327 C 
ATOM     38  O   UNL     1       2.994  -8.369  24.927  0.00  0.00    -0.249 OA
BRANCH  37  39
ATOM     39  O   UNL     1       2.626  -7.262  23.020  0.00  0.00    -0.479 OA
ATOM     40  H   UNL     1       3.032  -6.621  22.391  0.00  0.00    +0.295 HD
ENDBRANCH  37  39
ENDBRANCH  36  37
ENDBRANCH  32  36
ENDBRANCH  30  31
ENDBRANCH  29  30
ENDBRANCH   7  29
TORSDOF 13
ENDMDL
MODEL 5
REMARK VINA RESULT:      -7.4      1.362      1.852
REMARK  Name = 
REMARK  13 active torsions:
REMARK  status: ('A' for Active; 'I' for Inactive)
REMARK    1  A    between atoms: C_5  and  C_6
REMARK    2  A    between atoms: C_6  and  S_7
REMARK    3  A    between atoms: S_7  and  C_8
REMARK    4  A    between atoms: N_12  and  C_13
REMARK    5  A    between atoms: C_13  and  C_14
REMARK    6  A    between atoms: C_14  and  O_15
REMARK    7  A    between atoms: CA_17  and  C_35
REMARK    8  A    between atoms: CA_21  and  N_23
REMARK    9  A    between atoms: C_24  and  C_26
REMARK   10  A    between atoms: C_26  and  C_27
REMARK   11  A    between atoms: C_32  and  C_33
REMARK   12  A    between atoms: C_33  and  N_34
REMARK   13  A    between atoms: C_35  and  O_36
REMARK                            x       y       z     vdW  Elec       q    Type
REMARK                         _______ _______ _______ _____ _____    ______ ____
ROOT
ATOM      1  C   UNL     1       8.817  -1.074  25.488  0.00  0.00    +0.169 C 
ATOM      2  CA  UNL     1       9.557  -0.472  24.248  0.00  0.00    +0.191 C 
ATOM      3  C   UNL     1       9.867  -1.962  23.916  0.00  0.00    +0.244 C 
ATOM      4  O   UNL     1      10.440  -2.590  23.054  0.00  0.00    -0.273 OA
ATOM      5  N   UNL     1       9.104  -2.383  24.940  0.00  0.00    -0.249 N 
ATOM      6  CA  UNL     1       8.635  -3.556  25.462  0.00  0.00    +0.123 C 
ATOM      7  C   UNL     1       7.571  -3.535  26.315  0.00  0.00    -0.021 C 
ATOM      8  C   UNL     1       6.785  -2.281  26.675  0.00  0.00    +0.104 C 
ATOM      9  S   UNL     1       7.023  -0.885  25.550  0.00  0.00    -0.131 S 
ENDROOT
BRANCH   2  10
ATOM     10  N   UNL     1       8.764   0.260  23.237  0.00  0.00    -0.301 N 
ATOM     11  H   UNL     1       8.403  -0.217  22.414  0.00  0.00    +0.150 HD
ATOM     12  C   UNL     1       8.355   1.566  23.303  0.00  0.00    +0.218 C 
ATOM     13  O   UNL     1       7.644   2.015  22.403  0.00  0.00    -0.275 OA
BRANCH  12  14
ATOM     14  C   UNL     1       8.784   2.410  24.493  0.00  0.00    +0.131 C 
BRANCH  14  15
ATOM     15  C   UNL     1       9.709   3.557  24.148  0.00  0.00    -0.034 A 
ATOM     16  C   UNL     1       9.417   4.901  24.475  0.00  0.00    -0.030 A 
ATOM     17  C   UNL     1      10.349   5.897  24.114  0.00  0.00    +0.005 A 
ATOM     18  C   UNL     1      11.548   5.582  23.478  0.00  0.00    +0.000 A 
ATOM     19  C   UNL     1      11.837   4.262  23.166  0.00  0.00    +0.000 A 
ATOM     20  C   UNL     1      10.928   3.259  23.502  0.00  0.00    +0.004 A 
BRANCH  16  21
ATOM     21  C   UNL     1       8.115   5.316  25.134  0.00  0.00    +0.113 C 
BRANCH  21  22
ATOM     22  N   UNL     1       8.245   5.506  26.580  0.00  0.00    -0.326 NA
ATOM     23  H   UNL     1       7.839   4.697  27.047  0.00  0.00    +0.119 HD
ATOM     24  H   UNL     1       9.236   5.504  26.815  0.00  0.00    +0.119 HD
ENDBRANCH  21  22
ENDBRANCH  16  21
ENDBRANCH  14  15
ENDBRANCH  12  14
ENDBRANCH   2  10
BRANCH   6  25
ATOM     25  C   UNL     1       9.299  -4.868  25.103  0.00  0.00    +0.351 C 
ATOM     26  OXT UNL     1       8.987  -5.521  24.116  0.00  0.00    -0.244 OA
BRANCH  25  27
ATOM     27  O   UNL     1      10.267  -5.314  25.922  0.00  0.00    -0.476 OA
ATOM     28  H   UNL     1      10.053  -5.464  26.869  0.00  0.00    +0.295 HD
ENDBRANCH  25  27
ENDBRANCH   6  25
BRANCH   7  29
ATOM     29  C   UNL     1       6.922  -4.775  26.928  0.00  0.00    +0.111 C 
BRANCH  29  30
ATOM     30  S   UNL     1       5.100  -4.656  26.900  0.00  0.00    -0.080 S 
BRANCH  30  31
ATOM     31  C   UNL     1       4.752  -5.919  25.771  0.00  0.00    +0.210 A 
ATOM     32  N   UNL     1       4.988  -5.875  24.423  0.00  0.00    -0.209 N 
ATOM     33  N   UNL     1       4.497  -7.003  23.860  0.00  0.00    -0.043 NA
ATOM     34  N   UNL     1       4.048  -7.736  24.868  0.00  0.00    -0.022 NA
ATOM     35  N   UNL     1       4.194  -7.073  26.059  0.00  0.00    -0.101 NA
BRANCH  32  36
ATOM     36  C   UNL     1       5.508  -4.809  23.598  0.00  0.00    +0.268 C 
BRANCH  36  37
ATOM     37  C   UNL     1       6.046  -5.214  22.246  0.00  0.00    +0.327 C 
ATOM     38  O   UNL     1       5.665  -4.663  21.217  0.00  0.00    -0.249 OA
BRANCH  37  39
ATOM     39  O   UNL     1       6.888  -6.265  22.186  0.00  0.00    -0.479 OA
ATOM     40  H   UNL     1       7.626  -6.176  21.539  0.00  0.00    +0.295 HD
ENDBRANCH  37  39
ENDBRANCH  36  37
ENDBRANCH  32  36
ENDBRANCH  30  31
ENDBRANCH  29  30
ENDBRANCH   7  29
TORSDOF 13
ENDMDL
MODEL 6
REMARK VINA RESULT:      -7.0      2.382      3.510
REMARK  Name = 
REMARK  13 active torsions:
REMARK  status: ('A' for Active; 'I' for Inactive)
REMARK    1  A    between atoms: C_5  and  C_6
REMARK    2  A    between atoms: C_6  and  S_7
REMARK    3  A    between atoms: S_7  and  C_8
REMARK    4  A    between atoms: N_12  and  C_13
REMARK    5  A    between atoms: C_13  and  C_14
REMARK    6  A    between atoms: C_14  and  O_15
REMARK    7  A    between atoms: CA_17  and  C_35
REMARK    8  A    between atoms: CA_21  and  N_23
REMARK    9  A    between atoms: C_24  and  C_26
REMARK   10  A    between atoms: C_26  and  C_27
REMARK   11  A    between atoms: C_32  and  C_33
REMARK   12  A    between atoms: C_33  and  N_34
REMARK   13  A    between atoms: C_35  and  O_36
REMARK                            x       y       z     vdW  Elec       q    Type
REMARK                         _______ _______ _______ _____ _____    ______ ____
ROOT
ATOM      1  C   UNL     1       7.379   0.057  25.072  0.00  0.00    +0.169 C 
ATOM      2  CA  UNL     1       6.710   1.469  25.007  0.00  0.00    +0.191 C 
ATOM      3  C   UNL     1       5.402   0.682  25.323  0.00  0.00    +0.244 C 
ATOM      4  O   UNL     1       4.229   0.924  25.499  0.00  0.00    -0.273 OA
ATOM      5  N   UNL     1       6.090  -0.462  25.478  0.00  0.00    -0.249 N 
ATOM      6  CA  UNL     1       5.867  -1.754  25.865  0.00  0.00    +0.123 C 
ATOM      7  C   UNL     1       6.921  -2.535  26.241  0.00  0.00    -0.021 C 
ATOM      8  C   UNL     1       8.358  -2.042  26.350  0.00  0.00    +0.104 C 
ATOM      9  S   UNL     1       8.543  -0.244  26.419  0.00  0.00    -0.131 S 
ENDROOT
BRANCH   2  10
ATOM     10  N   UNL     1       7.105   2.486  26.007  0.00  0.00    -0.301 N 
ATOM     11  H   UNL     1       6.974   2.316  27.001  0.00  0.00    +0.150 HD
ATOM     12  C   UNL     1       7.738   3.675  25.760  0.00  0.00    +0.218 C 
ATOM     13  O   UNL     1       8.057   4.390  26.711  0.00  0.00    -0.275 OA
BRANCH  12  14
ATOM     14  C   UNL     1       8.039   4.062  24.320  0.00  0.00    +0.131 C 
BRANCH  14  15
ATOM     15  C   UNL     1       9.476   4.465  24.067  0.00  0.00    -0.034 A 
ATOM     16  C   UNL     1      10.420   3.599  23.469  0.00  0.00    -0.030 A 
ATOM     17  C   UNL     1      11.734   4.072  23.270  0.00  0.00    +0.005 A 
ATOM     18  C   UNL     1      12.106   5.369  23.620  0.00  0.00    +0.000 A 
ATOM     19  C   UNL     1      11.176   6.221  24.198  0.00  0.00    +0.000 A 
ATOM     20  C   UNL     1       9.874   5.774  24.415  0.00  0.00    +0.004 A 
BRANCH  16  21
ATOM     21  C   UNL     1      10.091   2.164  23.098  0.00  0.00    +0.113 C 
BRANCH  21  22
ATOM     22  N   UNL     1       9.857   1.987  21.665  0.00  0.00    -0.326 NA
ATOM     23  H   UNL     1      10.749   1.783  21.217  0.00  0.00    +0.119 HD
ATOM     24  H   UNL     1       9.277   1.159  21.535  0.00  0.00    +0.119 HD
ENDBRANCH  21  22
ENDBRANCH  16  21
ENDBRANCH  14  15
ENDBRANCH  12  14
ENDBRANCH   2  10
BRANCH   6  25
ATOM     25  C   UNL     1       4.462  -2.317  25.868  0.00  0.00    +0.351 C 
ATOM     26  OXT UNL     1       3.755  -2.331  26.867  0.00  0.00    -0.244 OA
BRANCH  25  27
ATOM     27  O   UNL     1       3.996  -2.817  24.711  0.00  0.00    -0.476 OA
ATOM     28  H   UNL     1       3.150  -2.469  24.352  0.00  0.00    +0.295 HD
ENDBRANCH  25  27
ENDBRANCH   6  25
BRANCH   7  29
ATOM     29  C   UNL     1       6.803  -3.975  26.739  0.00  0.00    +0.111 C 
BRANCH  29  30
ATOM     30  S   UNL     1       7.526  -5.153  25.545  0.00  0.00    -0.080 S 
BRANCH  30  31
ATOM     31  C   UNL     1       6.205  -5.276  24.436  0.00  0.00    +0.210 A 
ATOM     32  N   UNL     1       6.207  -4.840  23.138  0.00  0.00    -0.209 N 
ATOM     33  N   UNL     1       4.970  -5.019  22.619  0.00  0.00    -0.043 NA
ATOM     34  N   UNL     1       4.272  -5.624  23.568  0.00  0.00    -0.022 NA
ATOM     35  N   UNL     1       5.023  -5.784  24.704  0.00  0.00    -0.101 NA
BRANCH  32  36
ATOM     36  C   UNL     1       7.224  -4.142  22.386  0.00  0.00    +0.268 C 
BRANCH  36  37
ATOM     37  C   UNL     1       7.104  -2.637  22.338  0.00  0.00    +0.327 C 
ATOM     38  O   UNL     1       8.098  -1.919  22.275  0.00  0.00    -0.249 OA
BRANCH  37  39
ATOM     39  O   UNL     1       5.877  -2.093  22.463  0.00  0.00    -0.479 OA
ATOM     40  H   UNL     1       5.791  -1.406  23.164  0.00  0.00    +0.295 HD
ENDBRANCH  37  39
ENDBRANCH  36  37
ENDBRANCH  32  36
ENDBRANCH  30  31
ENDBRANCH  29  30
ENDBRANCH   7  29
TORSDOF 13
ENDMDL
MODEL 7
REMARK VINA RESULT:      -6.9      2.080      2.980
REMARK  Name = 
REMARK  13 active torsions:
REMARK  status: ('A' for Active; 'I' for Inactive)
REMARK    1  A    between atoms: C_5  and  C_6
REMARK    2  A    between atoms: C_6  and  S_7
REMARK    3  A    between atoms: S_7  and  C_8
REMARK    4  A    between atoms: N_12  and  C_13
REMARK    5  A    between atoms: C_13  and  C_14
REMARK    6  A    between atoms: C_14  and  O_15
REMARK    7  A    between atoms: CA_17  and  C_35
REMARK    8  A    between atoms: CA_21  and  N_23
REMARK    9  A    between atoms: C_24  and  C_26
REMARK   10  A    between atoms: C_26  and  C_27
REMARK   11  A    between atoms: C_32  and  C_33
REMARK   12  A    between atoms: C_33  and  N_34
REMARK   13  A    between atoms: C_35  and  O_36
REMARK                            x       y       z     vdW  Elec       q    Type
REMARK                         _______ _______ _______ _____ _____    ______ ____
ROOT
ATOM      1  C   UNL     1       7.078  -2.040  26.596  0.00  0.00    +0.169 C 
ATOM      2  CA  UNL     1       8.496  -2.223  25.961  0.00  0.00    +0.191 C 
ATOM      3  C   UNL     1       8.321  -3.708  26.400  0.00  0.00    +0.244 C 
ATOM      4  O   UNL     1       8.945  -4.743  26.337  0.00  0.00    -0.273 OA
ATOM      5  N   UNL     1       7.061  -3.473  26.806  0.00  0.00    -0.249 N 
ATOM      6  CA  UNL     1       5.983  -4.169  27.279  0.00  0.00    +0.123 C 
ATOM      7  C   UNL     1       4.743  -3.601  27.233  0.00  0.00    -0.021 C 
ATOM      8  C   UNL     1       4.442  -2.249  26.598  0.00  0.00    +0.104 C 
ATOM      9  S   UNL     1       5.720  -1.632  25.479  0.00  0.00    -0.131 S 
ENDROOT
BRANCH   2  10
ATOM     10  N   UNL     1       8.656  -1.998  24.507  0.00  0.00    -0.301 N 
ATOM     11  H   UNL     1       8.249  -2.643  23.834  0.00  0.00    +0.150 HD
ATOM     12  C   UNL     1       9.250  -0.921  23.905  0.00  0.00    +0.218 C 
ATOM     13  O   UNL     1       9.249  -0.850  22.675  0.00  0.00    -0.275 OA
BRANCH  12  14
ATOM     14  C   UNL     1       9.877   0.155  24.777  0.00  0.00    +0.131 C 
BRANCH  14  15
ATOM     15  C   UNL     1       9.079   1.439  24.859  0.00  0.00    -0.034 A 
ATOM     16  C   UNL     1       9.333   2.552  24.025  0.00  0.00    -0.030 A 
ATOM     17  C   UNL     1       8.529   3.700  24.175  0.00  0.00    +0.005 A 
ATOM     18  C   UNL     1       7.482   3.747  25.095  0.00  0.00    +0.000 A 
ATOM     19  C   UNL     1       7.228   2.650  25.905  0.00  0.00    +0.000 A 
ATOM     20  C   UNL     1       8.016   1.506  25.784  0.00  0.00    +0.004 A 
BRANCH  16  21
ATOM     21  C   UNL     1      10.478   2.582  23.029  0.00  0.00    +0.113 C 
BRANCH  21  22
ATOM     22  N   UNL     1      10.093   2.089  21.706  0.00  0.00    -0.326 NA
ATOM     23  H   UNL     1       9.356   2.689  21.341  0.00  0.00    +0.119 HD
ATOM     24  H   UNL     1      10.889   2.201  21.079  0.00  0.00    +0.119 HD
ENDBRANCH  21  22
ENDBRANCH  16  21
ENDBRANCH  14  15
ENDBRANCH  12  14
ENDBRANCH   2  10
BRANCH   6  25
ATOM     25  C   UNL     1       6.167  -5.555  27.857  0.00  0.00    +0.351 C 
ATOM     26  OXT UNL     1       6.101  -6.572  27.178  0.00  0.00    -0.244 OA
BRANCH  25  27
ATOM     27  O   UNL     1       6.408  -5.646  29.176  0.00  0.00    -0.476 OA
ATOM     28  H   UNL     1       6.333  -6.524  29.611  0.00  0.00    +0.295 HD
ENDBRANCH  25  27
ENDBRANCH   6  25
BRANCH   7  29
ATOM     29  C   UNL     1       3.455  -4.289  27.682  0.00  0.00    +0.111 C 
BRANCH  29  30
ATOM     30  S   UNL     1       2.312  -4.540  26.280  0.00  0.00    -0.080 S 
BRANCH  30  31
ATOM     31  C   UNL     1       3.104  -5.868  25.505  0.00  0.00    +0.210 A 
ATOM     32  N   UNL     1       3.946  -5.780  24.430  0.00  0.00    -0.209 N 
ATOM     33  N   UNL     1       4.291  -7.031  24.046  0.00  0.00    -0.043 NA
ATOM     34  N   UNL     1       3.725  -7.841  24.928  0.00  0.00    -0.022 NA
ATOM     35  N   UNL     1       2.980  -7.134  25.836  0.00  0.00    -0.101 NA
BRANCH  32  36
ATOM     36  C   UNL     1       4.345  -4.635  23.644  0.00  0.00    +0.268 C 
BRANCH  36  37
ATOM     37  C   UNL     1       5.631  -4.776  22.865  0.00  0.00    +0.327 C 
ATOM     38  O   UNL     1       6.694  -4.345  23.305  0.00  0.00    -0.249 OA
BRANCH  37  39
ATOM     39  O   UNL     1       5.570  -5.301  21.626  0.00  0.00    -0.479 OA
ATOM     40  H   UNL     1       4.941  -4.857  21.011  0.00  0.00    +0.295 HD
ENDBRANCH  37  39
ENDBRANCH  36  37
ENDBRANCH  32  36
ENDBRANCH  30  31
ENDBRANCH  29  30
ENDBRANCH   7  29
TORSDOF 13
ENDMDL
MODEL 8
REMARK VINA RESULT:      -6.9      3.090      9.239
REMARK  Name = 
REMARK  13 active torsions:
REMARK  status: ('A' for Active; 'I' for Inactive)
REMARK    1  A    between atoms: C_5  and  C_6
REMARK    2  A    between atoms: C_6  and  S_7
REMARK    3  A    between atoms: S_7  and  C_8
REMARK    4  A    between atoms: N_12  and  C_13
REMARK    5  A    between atoms: C_13  and  C_14
REMARK    6  A    between atoms: C_14  and  O_15
REMARK    7  A    between atoms: CA_17  and  C_35
REMARK    8  A    between atoms: CA_21  and  N_23
REMARK    9  A    between atoms: C_24  and  C_26
REMARK   10  A    between atoms: C_26  and  C_27
REMARK   11  A    between atoms: C_32  and  C_33
REMARK   12  A    between atoms: C_33  and  N_34
REMARK   13  A    between atoms: C_35  and  O_36
REMARK                            x       y       z     vdW  Elec       q    Type
REMARK                         _______ _______ _______ _____ _____    ______ ____
ROOT
ATOM      1  C   UNL     1       9.224  -2.113  23.369  0.00  0.00    +0.169 C 
ATOM      2  CA  UNL     1       8.110  -3.204  23.494  0.00  0.00    +0.191 C 
ATOM      3  C   UNL     1       7.557  -2.277  24.617  0.00  0.00    +0.244 C 
ATOM      4  O   UNL     1       6.621  -2.255  25.384  0.00  0.00    -0.273 OA
ATOM      5  N   UNL     1       8.485  -1.342  24.347  0.00  0.00    -0.249 N 
ATOM      6  CA  UNL     1       8.807  -0.069  24.728  0.00  0.00    +0.123 C 
ATOM      7  C   UNL     1       9.628   0.682  23.938  0.00  0.00    -0.021 C 
ATOM      8  C   UNL     1      10.161   0.232  22.584  0.00  0.00    +0.104 C 
ATOM      9  S   UNL     1       9.274  -1.156  21.839  0.00  0.00    -0.131 S 
ENDROOT
BRANCH   2  10
ATOM     10  N   UNL     1       7.207  -3.429  22.344  0.00  0.00    -0.301 N 
ATOM     11  H   UNL     1       7.111  -2.728  21.614  0.00  0.00    +0.150 HD
ATOM     12  C   UNL     1       6.495  -4.567  22.071  0.00  0.00    +0.218 C 
ATOM     13  O   UNL     1       5.832  -4.622  21.035  0.00  0.00    -0.275 OA
BRANCH  12  14
ATOM     14  C   UNL     1       6.562  -5.728  23.051  0.00  0.00    +0.131 C 
BRANCH  14  15
ATOM     15  C   UNL     1       5.563  -5.647  24.186  0.00  0.00    -0.034 A 
ATOM     16  C   UNL     1       5.953  -5.557  25.542  0.00  0.00    -0.030 A 
ATOM     17  C   UNL     1       4.945  -5.481  26.526  0.00  0.00    +0.005 A 
ATOM     18  C   UNL     1       3.592  -5.461  26.189  0.00  0.00    +0.000 A 
ATOM     19  C   UNL     1       3.213  -5.540  24.857  0.00  0.00    +0.000 A 
ATOM     20  C   UNL     1       4.189  -5.628  23.866  0.00  0.00    +0.004 A 
BRANCH  16  21
ATOM     21  C   UNL     1       7.404  -5.610  25.981  0.00  0.00    +0.113 C 
BRANCH  21  22
ATOM     22  N   UNL     1       7.558  -5.899  27.407  0.00  0.00    -0.326 NA
ATOM     23  H   UNL     1       8.478  -6.307  27.555  0.00  0.00    +0.119 HD
ATOM     24  H   UNL     1       7.553  -5.015  27.915  0.00  0.00    +0.119 HD
ENDBRANCH  21  22
ENDBRANCH  16  21
ENDBRANCH  14  15
ENDBRANCH  12  14
ENDBRANCH   2  10
BRANCH   6  25
ATOM     25  C   UNL     1       8.263   0.500  26.021  0.00  0.00    +0.351 C 
ATOM     26  OXT UNL     1       7.395   1.363  26.053  0.00  0.00    -0.244 OA
BRANCH  25  27
ATOM     27  O   UNL     1       8.773   0.021  27.168  0.00  0.00    -0.476 OA
ATOM     28  H   UNL     1       8.179  -0.461  27.785  0.00  0.00    +0.295 HD
ENDBRANCH  25  27
ENDBRANCH   6  25
BRANCH   7  29
ATOM     29  C   UNL     1      10.025   2.129  24.224  0.00  0.00    +0.111 C 
BRANCH  29  30
ATOM     30  S   UNL     1       8.828   3.303  23.500  0.00  0.00    -0.080 S 
BRANCH  30  31
ATOM     31  C   UNL     1       9.040   4.629  24.589  0.00  0.00    +0.210 A 
ATOM     32  N   UNL     1       9.954   5.639  24.452  0.00  0.00    -0.209 N 
ATOM     33  N   UNL     1       9.888   6.435  25.544  0.00  0.00    -0.043 NA
ATOM     34  N   UNL     1       8.897   5.949  26.277  0.00  0.00    -0.022 NA
ATOM     35  N   UNL     1       8.366   4.825  25.700  0.00  0.00    -0.101 NA
BRANCH  32  36
ATOM     36  C   UNL     1      10.979   5.845  23.454  0.00  0.00    +0.268 C 
BRANCH  36  37
ATOM     37  C   UNL     1      12.406   5.812  23.948  0.00  0.00    +0.327 C 
ATOM     38  O   UNL     1      13.242   5.076  23.430  0.00  0.00    -0.249 OA
BRANCH  37  39
ATOM     39  O   UNL     1      12.719   6.540  25.037  0.00  0.00    -0.479 OA
ATOM     40  H   UNL     1      11.951   6.901  25.538  0.00  0.00    +0.295 HD
ENDBRANCH  37  39
ENDBRANCH  36  37
ENDBRANCH  32  36
ENDBRANCH  30  31
ENDBRANCH  29  30
ENDBRANCH   7  29
TORSDOF 13
ENDMDL
MODEL 9
REMARK VINA RESULT:      -6.6      2.665      8.047
REMARK  Name = 
REMARK  13 active torsions:
REMARK  status: ('A' for Active; 'I' for Inactive)
REMARK    1  A    between atoms: C_5  and  C_6
REMARK    2  A    between atoms: C_6  and  S_7
REMARK    3  A    between atoms: S_7  and  C_8
REMARK    4  A    between atoms: N_12  and  C_13
REMARK    5  A    between atoms: C_13  and  C_14
REMARK    6  A    between atoms: C_14  and  O_15
REMARK    7  A    between atoms: CA_17  and  C_35
REMARK    8  A    between atoms: CA_21  and  N_23
REMARK    9  A    between atoms: C_24  and  C_26
REMARK   10  A    between atoms: C_26  and  C_27
REMARK   11  A    between atoms: C_32  and  C_33
REMARK   12  A    between atoms: C_33  and  N_34
REMARK   13  A    between atoms: C_35  and  O_36
REMARK                            x       y       z     vdW  Elec       q    Type
REMARK                         _______ _______ _______ _____ _____    ______ ____
ROOT
ATOM      1  C   UNL     1       7.548  -1.781  25.414  0.00  0.00    +0.169 C 
ATOM      2  CA  UNL     1       7.106  -3.282  25.385  0.00  0.00    +0.191 C 
ATOM      3  C   UNL     1       8.106  -3.383  24.193  0.00  0.00    +0.244 C 
ATOM      4  O   UNL     1       8.514  -4.231  23.433  0.00  0.00    -0.273 OA
ATOM      5  N   UNL     1       8.508  -2.113  24.381  0.00  0.00    -0.249 N 
ATOM      6  CA  UNL     1       9.448  -1.248  23.896  0.00  0.00    +0.123 C 
ATOM      7  C   UNL     1       9.774  -0.136  24.617  0.00  0.00    -0.021 C 
ATOM      8  C   UNL     1       9.221   0.182  26.000  0.00  0.00    +0.104 C 
ATOM      9  S   UNL     1       8.470  -1.220  26.860  0.00  0.00    -0.131 S 
ENDROOT
BRANCH   2  10
ATOM     10  N   UNL     1       7.413  -4.133  26.555  0.00  0.00    -0.301 N 
ATOM     11  H   UNL     1       8.026  -3.797  27.295  0.00  0.00    +0.150 HD
ATOM     12  C   UNL     1       6.885  -5.366  26.833  0.00  0.00    +0.218 C 
ATOM     13  O   UNL     1       7.197  -5.925  27.886  0.00  0.00    -0.275 OA
BRANCH  12  14
ATOM     14  C   UNL     1       5.921  -5.993  25.839  0.00  0.00    +0.131 C 
BRANCH  14  15
ATOM     15  C   UNL     1       4.557  -5.339  25.791  0.00  0.00    -0.034 A 
ATOM     16  C   UNL     1       3.890  -5.048  24.579  0.00  0.00    -0.030 A 
ATOM     17  C   UNL     1       2.618  -4.442  24.641  0.00  0.00    +0.005 A 
ATOM     18  C   UNL     1       2.002  -4.156  25.859  0.00  0.00    +0.000 A 
ATOM     19  C   UNL     1       2.654  -4.451  27.047  0.00  0.00    +0.000 A 
ATOM     20  C   UNL     1       3.916  -5.040  27.013  0.00  0.00    +0.004 A 
BRANCH  16  21
ATOM     21  C   UNL     1       4.518  -5.299  23.221  0.00  0.00    +0.113 C 
BRANCH  21  22
ATOM     22  N   UNL     1       4.807  -4.064  22.490  0.00  0.00    -0.326 NA
ATOM     23  H   UNL     1       3.941  -3.538  22.395  0.00  0.00    +0.119 HD
ATOM     24  H   UNL     1       5.427  -3.492  23.062  0.00  0.00    +0.119 HD
ENDBRANCH  21  22
ENDBRANCH  16  21
ENDBRANCH  14  15
ENDBRANCH  12  14
ENDBRANCH   2  10
BRANCH   6  25
ATOM     25  C   UNL     1      10.116  -1.517  22.565  0.00  0.00    +0.351 C 
ATOM     26  OXT UNL     1      11.164  -2.142  22.462  0.00  0.00    -0.244 OA
BRANCH  25  27
ATOM     27  O   UNL     1       9.514  -1.036  21.464  0.00  0.00    -0.476 OA
ATOM     28  H   UNL     1       8.534  -0.952  21.460  0.00  0.00    +0.295 HD
ENDBRANCH  25  27
ENDBRANCH   6  25
BRANCH   7  29
ATOM     29  C   UNL     1      10.839   0.881  24.212  0.00  0.00    +0.111 C 
BRANCH  29  30
ATOM     30  S   UNL     1      10.123   2.549  24.009  0.00  0.00    -0.080 S 
BRANCH  30  31
ATOM     31  C   UNL     1       8.882   2.185  22.860  0.00  0.00    +0.210 A 
ATOM     32  N   UNL     1       7.537   2.172  23.112  0.00  0.00    -0.209 N 
ATOM     33  N   UNL     1       6.892   1.749  22.001  0.00  0.00    -0.043 NA
ATOM     34  N   UNL     1       7.834   1.591  21.083  0.00  0.00    -0.022 NA
ATOM     35  N   UNL     1       9.074   1.851  21.603  0.00  0.00    -0.101 NA
BRANCH  32  36
ATOM     36  C   UNL     1       6.813   2.386  24.345  0.00  0.00    +0.268 C 
BRANCH  36  37
ATOM     37  C   UNL     1       5.433   1.778  24.422  0.00  0.00    +0.327 C 
ATOM     38  O   UNL     1       5.217   0.766  25.083  0.00  0.00    -0.249 OA
BRANCH  37  39
ATOM     39  O   UNL     1       4.457   2.320  23.666  0.00  0.00    -0.479 OA
ATOM     40  H   UNL     1       4.646   2.361  22.700  0.00  0.00    +0.295 HD
ENDBRANCH  37  39
ENDBRANCH  36  37
ENDBRANCH  32  36
ENDBRANCH  30  31
ENDBRANCH  29  30
ENDBRANCH   7  29
TORSDOF 13
ENDMDL
