MODEL 1
REMARK VINA RESULT:      -4.7      0.000      0.000
REMARK  Name = 
REMARK  5 active torsions:
REMARK  status: ('A' for Active; 'I' for Inactive)
REMARK    1  A    between atoms: C_1  and  C_2
REMARK    2  A    between atoms: C_2  and  N_4
REMARK    3  A    between atoms: C_2  and  C_5
REMARK    4  A    between atoms: C_5  and  O_7
REMARK    5  A    between atoms: C_5  and  C_8
REMARK                            x       y       z     vdW  Elec       q    Type
REMARK                         _______ _______ _______ _____ _____    ______ ____
ROOT
ATOM      1  C   UNL     1       9.089  -4.627  25.549  0.00  0.00    +0.161 C 
ENDROOT
BRANCH   1   2
ATOM      2  C   UNL     1       8.944  -3.731  24.339  0.00  0.00    -0.018 A 
ATOM      3  C   UNL     1       7.880  -3.881  23.437  0.00  0.00    +0.006 A 
ATOM      4  C   UNL     1       7.746  -3.017  22.346  0.00  0.00    +0.000 A 
ATOM      5  C   UNL     1       8.680  -2.006  22.136  0.00  0.00    +0.000 A 
ATOM      6  C   UNL     1       9.756  -1.859  23.011  0.00  0.00    +0.000 A 
ATOM      7  C   UNL     1       9.886  -2.717  24.104  0.00  0.00    +0.006 A 
ENDBRANCH   1   2
BRANCH   1   9
ATOM      8  C   UNL     1       7.046  -3.753  26.839  0.00  0.00    +0.026 C 
ATOM      9  C   UNL     1       7.756  -4.983  26.273  0.00  0.00    +0.081 C 
BRANCH   9  10
ATOM     10  N   UNL     1       8.011  -5.941  27.376  0.00  0.00    -0.325 NA
ATOM     11  H   UNL     1       8.841  -5.642  27.888  0.00  0.00    +0.119 HD
ATOM     12  H   UNL     1       7.247  -5.875  28.047  0.00  0.00    +0.119 HD
ENDBRANCH   9  10
ENDBRANCH   1   9
BRANCH   1  13
ATOM     13  O   UNL     1       9.724  -5.839  25.122  0.00  0.00    -0.386 OA
ATOM     14  H   UNL     1       8.997  -6.473  25.001  0.00  0.00    +0.210 HD
ENDBRANCH   1  13
TORSDOF 4
ENDMDL
MODEL 2
REMARK VINA RESULT:      -4.7      1.915      2.817
REMARK  Name = 
REMARK  5 active torsions:
REMARK  status: ('A' for Active; 'I' for Inactive)
REMARK    1  A    between atoms: C_1  and  C_2
REMARK    2  A    between atoms: C_2  and  N_4
REMARK    3  A    between atoms: C_2  and  C_5
REMARK    4  A    between atoms: C_5  and  O_7
REMARK    5  A    between atoms: C_5  and  C_8
REMARK                            x       y       z     vdW  Elec       q    Type
REMARK                         _______ _______ _______ _____ _____    ______ ____
ROOT
ATOM      1  C   UNL     1       8.508  -4.090  24.578  0.00  0.00    +0.161 C 
ENDROOT
BRANCH   1   2
ATOM      2  C   UNL     1       7.645  -4.384  23.371  0.00  0.00    -0.018 A 
ATOM      3  C   UNL     1       6.855  -3.391  22.774  0.00  0.00    +0.006 A 
ATOM      4  C   UNL     1       6.095  -3.677  21.636  0.00  0.00    +0.000 A 
ATOM      5  C   UNL     1       6.103  -4.959  21.093  0.00  0.00    +0.000 A 
ATOM      6  C   UNL     1       6.866  -5.962  21.690  0.00  0.00    +0.000 A 
ATOM      7  C   UNL     1       7.631  -5.676  22.822  0.00  0.00    +0.006 A 
ENDBRANCH   1   2
BRANCH   1   9
ATOM      8  C   UNL     1       8.030  -5.178  26.856  0.00  0.00    +0.026 C 
ATOM      9  C   UNL     1       8.764  -5.303  25.520  0.00  0.00    +0.081 C 
BRANCH   9  10
ATOM     10  N   UNL     1      10.216  -5.452  25.782  0.00  0.00    -0.325 NA
ATOM     11  H   UNL     1      10.365  -5.518  26.789  0.00  0.00    +0.119 HD
ATOM     12  H   UNL     1      10.524  -6.350  25.410  0.00  0.00    +0.119 HD
ENDBRANCH   9  10
ENDBRANCH   1   9
BRANCH   1  13
ATOM     13  O   UNL     1       9.768  -3.595  24.104  0.00  0.00    -0.386 OA
ATOM     14  H   UNL     1       9.925  -4.070  23.271  0.00  0.00    +0.210 HD
ENDBRANCH   1  13
TORSDOF 4
ENDMDL
MODEL 3
REMARK VINA RESULT:      -4.7      3.498      4.712
REMARK  Name = 
REMARK  5 active torsions:
REMARK  status: ('A' for Active; 'I' for Inactive)
REMARK    1  A    between atoms: C_1  and  C_2
REMARK    2  A    between atoms: C_2  and  N_4
REMARK    3  A    between atoms: C_2  and  C_5
REMARK    4  A    between atoms: C_5  and  O_7
REMARK    5  A    between atoms: C_5  and  C_8
REMARK                            x       y       z     vdW  Elec       q    Type
REMARK                         _______ _______ _______ _____ _____    ______ ____
ROOT
ATOM      1  C   UNL     1      10.129  -1.658  22.772  0.00  0.00    +0.161 C 
ENDROOT
BRANCH   1   2
ATOM      2  C   UNL     1      10.211  -0.158  22.955  0.00  0.00    -0.018 A 
ATOM      3  C   UNL     1      10.660   0.412  24.154  0.00  0.00    +0.006 A 
ATOM      4  C   UNL     1      10.763   1.800  24.286  0.00  0.00    +0.000 A 
ATOM      5  C   UNL     1      10.404   2.632  23.229  0.00  0.00    +0.000 A 
ATOM      6  C   UNL     1       9.934   2.080  22.038  0.00  0.00    +0.000 A 
ATOM      7  C   UNL     1       9.838   0.694  21.903  0.00  0.00    +0.006 A 
ENDBRANCH   1   2
BRANCH   1   9
ATOM      8  C   UNL     1       9.459  -3.465  24.470  0.00  0.00    +0.026 C 
ATOM      9  C   UNL     1       8.968  -2.356  23.539  0.00  0.00    +0.081 C 
BRANCH   9  10
ATOM     10  N   UNL     1       7.992  -2.930  22.581  0.00  0.00    -0.325 NA
ATOM     11  H   UNL     1       7.597  -2.176  22.019  0.00  0.00    +0.119 HD
ATOM     12  H   UNL     1       8.495  -3.519  21.917  0.00  0.00    +0.119 HD
ENDBRANCH   9  10
ENDBRANCH   1   9
BRANCH   1  13
ATOM     13  O   UNL     1       9.983  -1.919  21.369  0.00  0.00    -0.386 OA
ATOM     14  H   UNL     1      10.052  -1.048  20.945  0.00  0.00    +0.210 HD
ENDBRANCH   1  13
TORSDOF 4
ENDMDL
MODEL 4
REMARK VINA RESULT:      -4.7      3.512      4.629
REMARK  Name = 
REMARK  5 active torsions:
REMARK  status: ('A' for Active; 'I' for Inactive)
REMARK    1  A    between atoms: C_1  and  C_2
REMARK    2  A    between atoms: C_2  and  N_4
REMARK    3  A    between atoms: C_2  and  C_5
REMARK    4  A    between atoms: C_5  and  O_7
REMARK    5  A    between atoms: C_5  and  C_8
REMARK                            x       y       z     vdW  Elec       q    Type
REMARK                         _______ _______ _______ _____ _____    ______ ____
ROOT
ATOM      1  C   UNL     1      10.066  -1.644  22.676  0.00  0.00    +0.161 C 
ENDROOT
BRANCH   1   2
ATOM      2  C   UNL     1      10.174  -0.150  22.890  0.00  0.00    -0.018 A 
ATOM      3  C   UNL     1       9.858   0.763  21.873  0.00  0.00    +0.006 A 
ATOM      4  C   UNL     1       9.929   2.139  22.107  0.00  0.00    +0.000 A 
ATOM      5  C   UNL     1      10.331   2.618  23.351  0.00  0.00    +0.000 A 
ATOM      6  C   UNL     1      10.671   1.723  24.364  0.00  0.00    +0.000 A 
ATOM      7  C   UNL     1      10.594   0.348  24.134  0.00  0.00    +0.006 A 
ENDBRANCH   1   2
BRANCH   1   9
ATOM      8  C   UNL     1       9.434  -3.413  24.428  0.00  0.00    +0.026 C 
ATOM      9  C   UNL     1       8.919  -2.344  23.463  0.00  0.00    +0.081 C 
BRANCH   9  10
ATOM     10  N   UNL     1       7.958  -2.968  22.522  0.00  0.00    -0.325 NA
ATOM     11  H   UNL     1       7.062  -3.087  22.996  0.00  0.00    +0.119 HD
ATOM     12  H   UNL     1       7.772  -2.313  21.764  0.00  0.00    +0.119 HD
ENDBRANCH   9  10
ENDBRANCH   1   9
BRANCH   1  13
ATOM     13  O   UNL     1       9.874  -1.871  21.274  0.00  0.00    -0.386 OA
ATOM     14  H   UNL     1       9.080  -2.429  21.218  0.00  0.00    +0.210 HD
ENDBRANCH   1  13
TORSDOF 4
ENDMDL
MODEL 5
REMARK VINA RESULT:      -4.6      5.265      6.599
REMARK  Name = 
REMARK  5 active torsions:
REMARK  status: ('A' for Active; 'I' for Inactive)
REMARK    1  A    between atoms: C_1  and  C_2
REMARK    2  A    between atoms: C_2  and  N_4
REMARK    3  A    between atoms: C_2  and  C_5
REMARK    4  A    between atoms: C_5  and  O_7
REMARK    5  A    between atoms: C_5  and  C_8
REMARK                            x       y       z     vdW  Elec       q    Type
REMARK                         _______ _______ _______ _____ _____    ______ ____
ROOT
ATOM      1  C   UNL     1       9.518   2.128  22.690  0.00  0.00    +0.161 C 
ENDROOT
BRANCH   1   2
ATOM      2  C   UNL     1       9.654   0.663  23.044  0.00  0.00    -0.018 A 
ATOM      3  C   UNL     1       9.541   0.214  24.367  0.00  0.00    +0.006 A 
ATOM      4  C   UNL     1       9.633  -1.149  24.665  0.00  0.00    +0.000 A 
ATOM      5  C   UNL     1       9.853  -2.074  23.648  0.00  0.00    +0.000 A 
ATOM      6  C   UNL     1       9.990  -1.640  22.330  0.00  0.00    +0.000 A 
ATOM      7  C   UNL     1       9.892  -0.280  22.031  0.00  0.00    +0.006 A 
ENDBRANCH   1   2
BRANCH   1   9
ATOM      8  C   UNL     1       9.111   4.097  24.290  0.00  0.00    +0.026 C 
ATOM      9  C   UNL     1      10.139   3.118  23.719  0.00  0.00    +0.081 C 
BRANCH   9  10
ATOM     10  N   UNL     1      11.238   3.890  23.090  0.00  0.00    -0.325 NA
ATOM     11  H   UNL     1      11.105   3.890  22.079  0.00  0.00    +0.119 HD
ATOM     12  H   UNL     1      11.151   4.867  23.369  0.00  0.00    +0.119 HD
ENDBRANCH   9  10
ENDBRANCH   1   9
BRANCH   1  13
ATOM     13  O   UNL     1      10.144   2.329  21.416  0.00  0.00    -0.386 OA
ATOM     14  H   UNL     1       9.688   3.096  21.032  0.00  0.00    +0.210 HD
ENDBRANCH   1  13
TORSDOF 4
ENDMDL
MODEL 6
REMARK VINA RESULT:      -4.5      6.513      7.817
REMARK  Name = 
REMARK  5 active torsions:
REMARK  status: ('A' for Active; 'I' for Inactive)
REMARK    1  A    between atoms: C_1  and  C_2
REMARK    2  A    between atoms: C_2  and  N_4
REMARK    3  A    between atoms: C_2  and  C_5
REMARK    4  A    between atoms: C_5  and  O_7
REMARK    5  A    between atoms: C_5  and  C_8
REMARK                            x       y       z     vdW  Elec       q    Type
REMARK                         _______ _______ _______ _____ _____    ______ ____
ROOT
ATOM      1  C   UNL     1      10.527   2.159  22.861  0.00  0.00    +0.161 C 
ENDROOT
BRANCH   1   2
ATOM      2  C   UNL     1      10.635   3.586  23.351  0.00  0.00    -0.018 A 
ATOM      3  C   UNL     1       9.535   4.258  23.903  0.00  0.00    +0.006 A 
ATOM      4  C   UNL     1       9.669   5.564  24.384  0.00  0.00    +0.000 A 
ATOM      5  C   UNL     1      10.897   6.216  24.305  0.00  0.00    +0.000 A 
ATOM      6  C   UNL     1      11.993   5.569  23.738  0.00  0.00    +0.000 A 
ATOM      7  C   UNL     1      11.863   4.262  23.264  0.00  0.00    +0.006 A 
ENDBRANCH   1   2
BRANCH   1   9
ATOM      8  C   UNL     1      10.745   0.487  24.799  0.00  0.00    +0.026 C 
ATOM      9  C   UNL     1       9.792   1.181  23.825  0.00  0.00    +0.081 C 
BRANCH   9  10
ATOM     10  N   UNL     1       9.061   0.149  23.050  0.00  0.00    -0.325 NA
ATOM     11  H   UNL     1       8.670   0.580  22.212  0.00  0.00    +0.119 HD
ATOM     12  H   UNL     1       9.733  -0.536  22.706  0.00  0.00    +0.119 HD
ENDBRANCH   9  10
ENDBRANCH   1   9
BRANCH   1  13
ATOM     13  O   UNL     1       9.836   2.180  21.605  0.00  0.00    -0.386 OA
ATOM     14  H   UNL     1       8.933   1.888  21.812  0.00  0.00    +0.210 HD
ENDBRANCH   1  13
TORSDOF 4
ENDMDL
MODEL 7
REMARK VINA RESULT:      -4.4      3.510      4.735
REMARK  Name = 
REMARK  5 active torsions:
REMARK  status: ('A' for Active; 'I' for Inactive)
REMARK    1  A    between atoms: C_1  and  C_2
REMARK    2  A    between atoms: C_2  and  N_4
REMARK    3  A    between atoms: C_2  and  C_5
REMARK    4  A    between atoms: C_5  and  O_7
REMARK    5  A    between atoms: C_5  and  C_8
REMARK                            x       y       z     vdW  Elec       q    Type
REMARK                         _______ _______ _______ _____ _____    ______ ____
ROOT
ATOM      1  C   UNL     1       9.028  -1.366  21.825  0.00  0.00    +0.161 C 
ENDROOT
BRANCH   1   2
ATOM      2  C   UNL     1       8.699  -2.488  22.785  0.00  0.00    -0.018 A 
ATOM      3  C   UNL     1       7.620  -3.355  22.560  0.00  0.00    +0.006 A 
ATOM      4  C   UNL     1       7.359  -4.408  23.442  0.00  0.00    +0.000 A 
ATOM      5  C   UNL     1       8.161  -4.596  24.564  0.00  0.00    +0.000 A 
ATOM      6  C   UNL     1       9.223  -3.728  24.814  0.00  0.00    +0.000 A 
ATOM      7  C   UNL     1       9.489  -2.680  23.930  0.00  0.00    +0.006 A 
ENDBRANCH   1   2
BRANCH   1   9
ATOM      8  C   UNL     1       7.333   0.263  22.861  0.00  0.00    +0.026 C 
ATOM      9  C   UNL     1       8.769   0.069  22.370  0.00  0.00    +0.081 C 
BRANCH   9  10
ATOM     10  N   UNL     1       9.057   1.077  21.321  0.00  0.00    -0.325 NA
ATOM     11  H   UNL     1       8.985   0.632  20.406  0.00  0.00    +0.119 HD
ATOM     12  H   UNL     1       8.318   1.779  21.332  0.00  0.00    +0.119 HD
ENDBRANCH   9  10
ENDBRANCH   1   9
BRANCH   1  13
ATOM     13  O   UNL     1      10.413  -1.486  21.472  0.00  0.00    -0.386 OA
ATOM     14  H   UNL     1      10.414  -1.636  20.512  0.00  0.00    +0.210 HD
ENDBRANCH   1  13
TORSDOF 4
ENDMDL
MODEL 8
REMARK VINA RESULT:      -4.4      5.170      6.524
REMARK  Name = 
REMARK  5 active torsions:
REMARK  status: ('A' for Active; 'I' for Inactive)
REMARK    1  A    between atoms: C_1  and  C_2
REMARK    2  A    between atoms: C_2  and  N_4
REMARK    3  A    between atoms: C_2  and  C_5
REMARK    4  A    between atoms: C_5  and  O_7
REMARK    5  A    between atoms: C_5  and  C_8
REMARK                            x       y       z     vdW  Elec       q    Type
REMARK                         _______ _______ _______ _____ _____    ______ ____
ROOT
ATOM      1  C   UNL     1       8.941   1.835  21.894  0.00  0.00    +0.161 C 
ENDROOT
BRANCH   1   2
ATOM      2  C   UNL     1       9.228   0.519  22.584  0.00  0.00    -0.018 A 
ATOM      3  C   UNL     1       9.922  -0.513  21.937  0.00  0.00    +0.006 A 
ATOM      4  C   UNL     1      10.208  -1.706  22.608  0.00  0.00    +0.000 A 
ATOM      5  C   UNL     1       9.792  -1.885  23.924  0.00  0.00    +0.000 A 
ATOM      6  C   UNL     1       9.081  -0.877  24.573  0.00  0.00    +0.000 A 
ATOM      7  C   UNL     1       8.800   0.317  23.906  0.00  0.00    +0.006 A 
ENDBRANCH   1   2
BRANCH   1   9
ATOM      8  C   UNL     1       6.703   3.075  22.131  0.00  0.00    +0.026 C 
ATOM      9  C   UNL     1       8.095   2.846  22.723  0.00  0.00    +0.081 C 
BRANCH   9  10
ATOM     10  N   UNL     1       8.797   4.149  22.816  0.00  0.00    -0.325 NA
ATOM     11  H   UNL     1       9.539   4.075  23.512  0.00  0.00    +0.119 HD
ATOM     12  H   UNL     1       9.279   4.322  21.934  0.00  0.00    +0.119 HD
ENDBRANCH   9  10
ENDBRANCH   1   9
BRANCH   1  13
ATOM     13  O   UNL     1      10.199   2.440  21.568  0.00  0.00    -0.386 OA
ATOM     14  H   UNL     1      10.226   2.452  20.596  0.00  0.00    +0.210 HD
ENDBRANCH   1  13
TORSDOF 4
ENDMDL
MODEL 9
REMARK VINA RESULT:      -4.4      5.190      6.657
REMARK  Name = 
REMARK  5 active torsions:
REMARK  status: ('A' for Active; 'I' for Inactive)
REMARK    1  A    between atoms: C_1  and  C_2
REMARK    2  A    between atoms: C_2  and  N_4
REMARK    3  A    between atoms: C_2  and  C_5
REMARK    4  A    between atoms: C_5  and  O_7
REMARK    5  A    between atoms: C_5  and  C_8
REMARK                            x       y       z     vdW  Elec       q    Type
REMARK                         _______ _______ _______ _____ _____    ______ ____
ROOT
ATOM      1  C   UNL     1      10.380   2.084  24.040  0.00  0.00    +0.161 C 
ENDROOT
BRANCH   1   2
ATOM      2  C   UNL     1      10.088   0.780  23.331  0.00  0.00    -0.018 A 
ATOM      3  C   UNL     1       9.722   0.745  21.978  0.00  0.00    +0.006 A 
ATOM      4  C   UNL     1       9.495  -0.476  21.334  0.00  0.00    +0.000 A 
ATOM      5  C   UNL     1       9.615  -1.671  22.039  0.00  0.00    +0.000 A 
ATOM      6  C   UNL     1       9.956  -1.651  23.391  0.00  0.00    +0.000 A 
ATOM      7  C   UNL     1      10.190  -0.433  24.032  0.00  0.00    +0.006 A 
ENDBRANCH   1   2
BRANCH   1   9
ATOM      8  C   UNL     1      11.800   4.114  23.361  0.00  0.00    +0.026 C 
ATOM      9  C   UNL     1      10.513   3.327  23.111  0.00  0.00    +0.081 C 
BRANCH   9  10
ATOM     10  N   UNL     1       9.353   4.232  23.296  0.00  0.00    -0.325 NA
ATOM     11  H   UNL     1       8.550   3.846  22.799  0.00  0.00    +0.119 HD
ATOM     12  H   UNL     1       9.085   4.222  24.280  0.00  0.00    +0.119 HD
ENDBRANCH   9  10
ENDBRANCH   1   9
BRANCH   1  13
ATOM     13  O   UNL     1       9.321   2.317  24.979  0.00  0.00    -0.386 OA
ATOM     14  H   UNL     1       9.212   3.282  24.998  0.00  0.00    +0.210 HD
ENDBRANCH   1  13
TORSDOF 4
ENDMDL
