MODEL 1
REMARK VINA RESULT:      -8.3      0.000      0.000
REMARK  Name = 
REMARK  5 active torsions:
REMARK  status: ('A' for Active; 'I' for Inactive)
REMARK    1  A    between atoms: C_2  and  C_5
REMARK    2  A    between atoms: C_7  and  N_11
REMARK    3  A    between atoms: N_14  and  C_15
REMARK    4  A    between atoms: C_15  and  C_16
REMARK    5  A    between atoms: C_16  and  N_17
REMARK                            x       y       z     vdW  Elec       q    Type
REMARK                         _______ _______ _______ _____ _____    ______ ____
ROOT
ATOM      1  N   UNL     1       9.969   1.452  23.729  0.00  0.00    -0.327 N 
ATOM      2  C   UNL     1       8.990   0.898  22.772  0.00  0.00    +0.120 C 
ATOM      3  C   UNL     1       7.967  -0.014  23.487  0.00  0.00    +0.103 C 
ATOM      4  N   UNL     1       8.560  -1.071  24.343  0.00  0.00    -0.298 NA
ATOM      5  C   UNL     1       9.445  -0.386  25.324  0.00  0.00    +0.103 C 
ATOM      6  C   UNL     1      10.538   0.514  24.706  0.00  0.00    +0.120 C 
ENDROOT
BRANCH   1  11
ATOM      7  C   UNL     1      11.435   4.841  23.451  0.00  0.00    +0.057 A 
ATOM      8  C   UNL     1      10.352   5.635  23.839  0.00  0.00    +0.012 A 
ATOM      9  C   UNL     1       9.158   5.039  24.240  0.00  0.00    +0.002 A 
ATOM     10  C   UNL     1       9.029   3.647  24.235  0.00  0.00    +0.023 A 
ATOM     11  C   UNL     1      10.083   2.822  23.831  0.00  0.00    +0.030 A 
ATOM     12  C   UNL     1      11.289   3.447  23.480  0.00  0.00    +0.035 A 
BRANCH   7  14
ATOM     13  F   UNL     1      12.755   5.676  21.626  0.00  0.00    -0.166 F 
ATOM     14  C   UNL     1      12.720   5.459  22.973  0.00  0.00    +0.417 C 
ATOM     15  F   UNL     1      12.953   6.675  23.543  0.00  0.00    -0.166 F 
ATOM     16  F   UNL     1      13.813   4.699  23.254  0.00  0.00    -0.166 F 
ENDBRANCH   7  14
ENDBRANCH   1  11
BRANCH   4  17
ATOM     17  C   UNL     1       9.283  -2.054  23.508  0.00  0.00    +0.106 C 
BRANCH  17  18
ATOM     18  C   UNL     1       9.576  -3.382  24.223  0.00  0.00    +0.142 C 
BRANCH  18  19
ATOM     19  N   UNL     1       8.368  -4.063  24.612  0.00  0.00    -0.291 N 
ATOM     20  C   UNL     1       7.435  -4.645  23.750  0.00  0.00    +0.070 A 
ATOM     21  C   UNL     1       6.417  -5.186  24.540  0.00  0.00    +0.067 A 
ATOM     22  C   UNL     1       5.323  -5.817  23.998  0.00  0.00    +0.028 A 
ATOM     23  C   UNL     1       5.270  -5.901  22.603  0.00  0.00    +0.002 A 
ATOM     24  C   UNL     1       6.302  -5.366  21.802  0.00  0.00    +0.002 A 
ATOM     25  N   UNL     1       6.734  -4.961  25.875  0.00  0.00    -0.306 N 
ATOM     26  H   UNL     1       6.201  -5.236  26.683  0.00  0.00    +0.170 HD
ATOM     27  C   UNL     1       7.406  -4.729  22.377  0.00  0.00    +0.028 A 
ATOM     28  C   UNL     1       7.954  -4.270  25.943  0.00  0.00    +0.328 A 
ATOM     29  O   UNL     1       8.529  -3.924  26.962  0.00  0.00    -0.247 OA
ENDBRANCH  18  19
ENDBRANCH  17  18
ENDBRANCH   4  17
TORSDOF 5
ENDMDL
MODEL 2
REMARK VINA RESULT:      -8.3      1.721      2.544
REMARK  Name = 
REMARK  5 active torsions:
REMARK  status: ('A' for Active; 'I' for Inactive)
REMARK    1  A    between atoms: C_2  and  C_5
REMARK    2  A    between atoms: C_7  and  N_11
REMARK    3  A    between atoms: N_14  and  C_15
REMARK    4  A    between atoms: C_15  and  C_16
REMARK    5  A    between atoms: C_16  and  N_17
REMARK                            x       y       z     vdW  Elec       q    Type
REMARK                         _______ _______ _______ _____ _____    ______ ____
ROOT
ATOM      1  N   UNL     1       9.217   2.155  23.454  0.00  0.00    -0.327 N 
ATOM      2  C   UNL     1       9.522   1.047  24.382  0.00  0.00    +0.120 C 
ATOM      3  C   UNL     1      10.228  -0.117  23.648  0.00  0.00    +0.103 C 
ATOM      4  N   UNL     1       9.540  -0.595  22.424  0.00  0.00    -0.298 NA
ATOM      5  C   UNL     1       9.378   0.583  21.530  0.00  0.00    +0.103 C 
ATOM      6  C   UNL     1       8.636   1.786  22.156  0.00  0.00    +0.120 C 
ENDROOT
BRANCH   1  11
ATOM      7  C   UNL     1      11.540   5.038  23.410  0.00  0.00    +0.057 A 
ATOM      8  C   UNL     1      10.793   5.996  24.102  0.00  0.00    +0.012 A 
ATOM      9  C   UNL     1       9.545   5.663  24.625  0.00  0.00    +0.002 A 
ATOM     10  C   UNL     1       9.023   4.379  24.440  0.00  0.00    +0.023 A 
ATOM     11  C   UNL     1       9.731   3.403  23.732  0.00  0.00    +0.030 A 
ATOM     12  C   UNL     1      11.006   3.750  23.261  0.00  0.00    +0.035 A 
BRANCH   7  14
ATOM     13  F   UNL     1      12.901   5.248  21.441  0.00  0.00    -0.166 F 
ATOM     14  C   UNL     1      12.870   5.383  22.799  0.00  0.00    +0.417 C 
ATOM     15  F   UNL     1      13.233   6.674  23.044  0.00  0.00    -0.166 F 
ATOM     16  F   UNL     1      13.888   4.612  23.271  0.00  0.00    -0.166 F 
ENDBRANCH   7  14
ENDBRANCH   1  11
BRANCH   4  17
ATOM     17  C   UNL     1       8.250  -1.225  22.781  0.00  0.00    +0.106 C 
BRANCH  17  18
ATOM     18  C   UNL     1       8.117  -2.681  22.308  0.00  0.00    +0.142 C 
BRANCH  18  19
ATOM     19  N   UNL     1       7.300  -3.465  23.198  0.00  0.00    -0.291 N 
ATOM     20  C   UNL     1       7.695  -3.997  24.428  0.00  0.00    +0.070 A 
ATOM     21  C   UNL     1       6.602  -4.692  24.953  0.00  0.00    +0.067 A 
ATOM     22  C   UNL     1       6.663  -5.359  26.153  0.00  0.00    +0.028 A 
ATOM     23  C   UNL     1       7.880  -5.309  26.841  0.00  0.00    +0.002 A 
ATOM     24  C   UNL     1       8.983  -4.599  26.319  0.00  0.00    +0.002 A 
ATOM     25  N   UNL     1       5.538  -4.567  24.066  0.00  0.00    -0.306 N 
ATOM     26  H   UNL     1       4.613  -4.951  24.166  0.00  0.00    +0.170 HD
ATOM     27  C   UNL     1       8.896  -3.928  25.096  0.00  0.00    +0.028 A 
ATOM     28  C   UNL     1       5.949  -3.795  22.968  0.00  0.00    +0.328 A 
ATOM     29  O   UNL     1       5.260  -3.482  22.011  0.00  0.00    -0.247 OA
ENDBRANCH  18  19
ENDBRANCH  17  18
ENDBRANCH   4  17
TORSDOF 5
ENDMDL
MODEL 3
REMARK VINA RESULT:      -8.1      1.426      2.136
REMARK  Name = 
REMARK  5 active torsions:
REMARK  status: ('A' for Active; 'I' for Inactive)
REMARK    1  A    between atoms: C_2  and  C_5
REMARK    2  A    between atoms: C_7  and  N_11
REMARK    3  A    between atoms: N_14  and  C_15
REMARK    4  A    between atoms: C_15  and  C_16
REMARK    5  A    between atoms: C_16  and  N_17
REMARK                            x       y       z     vdW  Elec       q    Type
REMARK                         _______ _______ _______ _____ _____    ______ ____
ROOT
ATOM      1  N   UNL     1       9.682   1.312  23.822  0.00  0.00    -0.327 N 
ATOM      2  C   UNL     1       8.569   0.671  23.093  0.00  0.00    +0.120 C 
ATOM      3  C   UNL     1       7.728  -0.224  24.033  0.00  0.00    +0.103 C 
ATOM      4  N   UNL     1       8.508  -1.207  24.825  0.00  0.00    -0.298 NA
ATOM      5  C   UNL     1       9.527  -0.437  25.587  0.00  0.00    +0.103 C 
ATOM      6  C   UNL     1      10.455   0.454  24.730  0.00  0.00    +0.120 C 
ENDROOT
BRANCH   1  11
ATOM      7  C   UNL     1      11.125   4.707  23.502  0.00  0.00    +0.057 A 
ATOM      8  C   UNL     1       9.981   5.499  23.637  0.00  0.00    +0.012 A 
ATOM      9  C   UNL     1       8.745   4.905  23.884  0.00  0.00    +0.002 A 
ATOM     10  C   UNL     1       8.639   3.513  23.977  0.00  0.00    +0.023 A 
ATOM     11  C   UNL     1       9.757   2.688  23.824  0.00  0.00    +0.030 A 
ATOM     12  C   UNL     1      10.995   3.316  23.625  0.00  0.00    +0.035 A 
BRANCH   7  14
ATOM     13  F   UNL     1      12.734   6.440  23.923  0.00  0.00    -0.166 F 
ATOM     14  C   UNL     1      12.462   5.320  23.192  0.00  0.00    +0.417 C 
ATOM     15  F   UNL     1      13.494   4.465  23.441  0.00  0.00    -0.166 F 
ATOM     16  F   UNL     1      12.588   5.689  21.888  0.00  0.00    -0.166 F 
ENDBRANCH   7  14
ENDBRANCH   1  11
BRANCH   4  17
ATOM     17  C   UNL     1       9.107  -2.219  23.928  0.00  0.00    +0.106 C 
BRANCH  17  18
ATOM     18  C   UNL     1       8.229  -3.463  23.720  0.00  0.00    +0.142 C 
BRANCH  18  19
ATOM     19  N   UNL     1       8.128  -4.258  24.917  0.00  0.00    -0.291 N 
ATOM     20  C   UNL     1       6.990  -4.411  25.713  0.00  0.00    +0.070 A 
ATOM     21  C   UNL     1       7.332  -5.255  26.773  0.00  0.00    +0.067 A 
ATOM     22  C   UNL     1       6.438  -5.594  27.760  0.00  0.00    +0.028 A 
ATOM     23  C   UNL     1       5.151  -5.056  27.657  0.00  0.00    +0.002 A 
ATOM     24  C   UNL     1       4.798  -4.212  26.581  0.00  0.00    +0.002 A 
ATOM     25  N   UNL     1       8.660  -5.637  26.616  0.00  0.00    -0.306 N 
ATOM     26  H   UNL     1       9.194  -6.246  27.214  0.00  0.00    +0.170 HD
ATOM     27  C   UNL     1       5.726  -3.882  25.589  0.00  0.00    +0.028 A 
ATOM     28  C   UNL     1       9.173  -5.034  25.457  0.00  0.00    +0.328 A 
ATOM     29  O   UNL     1      10.304  -5.166  25.019  0.00  0.00    -0.247 OA
ENDBRANCH  18  19
ENDBRANCH  17  18
ENDBRANCH   4  17
TORSDOF 5
ENDMDL
MODEL 4
REMARK VINA RESULT:      -7.8      1.569      2.000
REMARK  Name = 
REMARK  5 active torsions:
REMARK  status: ('A' for Active; 'I' for Inactive)
REMARK    1  A    between atoms: C_2  and  C_5
REMARK    2  A    between atoms: C_7  and  N_11
REMARK    3  A    between atoms: N_14  and  C_15
REMARK    4  A    between atoms: C_15  and  C_16
REMARK    5  A    between atoms: C_16  and  N_17
REMARK                            x       y       z     vdW  Elec       q    Type
REMARK                         _______ _______ _______ _____ _____    ______ ____
ROOT
ATOM      1  N   UNL     1       8.714   0.702  23.541  0.00  0.00    -0.327 N 
ATOM      2  C   UNL     1       7.924  -0.406  22.965  0.00  0.00    +0.120 C 
ATOM      3  C   UNL     1       7.397  -1.349  24.071  0.00  0.00    +0.103 C 
ATOM      4  N   UNL     1       8.427  -1.840  25.018  0.00  0.00    -0.298 NA
ATOM      5  C   UNL     1       9.084  -0.641  25.604  0.00  0.00    +0.103 C 
ATOM      6  C   UNL     1       9.690   0.344  24.579  0.00  0.00    +0.120 C 
ENDROOT
BRANCH   1  11
ATOM      7  C   UNL     1       8.807   4.401  23.414  0.00  0.00    +0.057 A 
ATOM      8  C   UNL     1       7.666   4.673  22.654  0.00  0.00    +0.012 A 
ATOM      9  C   UNL     1       6.844   3.630  22.231  0.00  0.00    +0.002 A 
ATOM     10  C   UNL     1       7.168   2.306  22.546  0.00  0.00    +0.023 A 
ATOM     11  C   UNL     1       8.314   1.995  23.284  0.00  0.00    +0.030 A 
ATOM     12  C   UNL     1       9.096   3.068  23.738  0.00  0.00    +0.035 A 
BRANCH   7  14
ATOM     13  F   UNL     1      11.033   5.303  23.476  0.00  0.00    -0.166 F 
ATOM     14  C   UNL     1       9.735   5.504  23.845  0.00  0.00    +0.417 C 
ATOM     15  F   UNL     1       9.388   6.710  23.313  0.00  0.00    -0.166 F 
ATOM     16  F   UNL     1       9.757   5.683  25.194  0.00  0.00    -0.166 F 
ENDBRANCH   7  14
ENDBRANCH   1  11
BRANCH   4  17
ATOM     17  C   UNL     1       9.379  -2.729  24.316  0.00  0.00    +0.106 C 
BRANCH  17  18
ATOM     18  C   UNL     1       9.409  -4.164  24.863  0.00  0.00    +0.142 C 
BRANCH  18  19
ATOM     19  N   UNL     1       8.089  -4.733  24.957  0.00  0.00    -0.291 N 
ATOM     20  C   UNL     1       7.266  -5.093  23.887  0.00  0.00    +0.070 A 
ATOM     21  C   UNL     1       6.077  -5.592  24.423  0.00  0.00    +0.067 A 
ATOM     22  C   UNL     1       5.035  -6.017  23.634  0.00  0.00    +0.028 A 
ATOM     23  C   UNL     1       5.218  -5.932  22.249  0.00  0.00    +0.002 A 
ATOM     24  C   UNL     1       6.423  -5.438  21.703  0.00  0.00    +0.002 A 
ATOM     25  N   UNL     1       6.177  -5.563  25.810  0.00  0.00    -0.306 N 
ATOM     26  H   UNL     1       5.486  -5.863  26.478  0.00  0.00    +0.170 HD
ATOM     27  C   UNL     1       7.468  -5.012  22.528  0.00  0.00    +0.028 A 
ATOM     28  C   UNL     1       7.430  -5.040  26.165  0.00  0.00    +0.328 A 
ATOM     29  O   UNL     1       7.850  -4.887  27.300  0.00  0.00    -0.247 OA
ENDBRANCH  18  19
ENDBRANCH  17  18
ENDBRANCH   4  17
TORSDOF 5
ENDMDL
MODEL 5
REMARK VINA RESULT:      -7.6      2.341      3.258
REMARK  Name = 
REMARK  5 active torsions:
REMARK  status: ('A' for Active; 'I' for Inactive)
REMARK    1  A    between atoms: C_2  and  C_5
REMARK    2  A    between atoms: C_7  and  N_11
REMARK    3  A    between atoms: N_14  and  C_15
REMARK    4  A    between atoms: C_15  and  C_16
REMARK    5  A    between atoms: C_16  and  N_17
REMARK                            x       y       z     vdW  Elec       q    Type
REMARK                         _______ _______ _______ _____ _____    ______ ____
ROOT
ATOM      1  N   UNL     1       8.994   0.924  23.233  0.00  0.00    -0.327 N 
ATOM      2  C   UNL     1       8.894   0.135  24.478  0.00  0.00    +0.120 C 
ATOM      3  C   UNL     1       9.699  -1.180  24.371  0.00  0.00    +0.103 C 
ATOM      4  N   UNL     1       9.401  -2.002  23.172  0.00  0.00    -0.298 NA
ATOM      5  C   UNL     1       9.630  -1.134  21.985  0.00  0.00    +0.103 C 
ATOM      6  C   UNL     1       8.830   0.188  21.973  0.00  0.00    +0.120 C 
ENDROOT
BRANCH   1  11
ATOM      7  C   UNL     1       9.045   4.614  23.538  0.00  0.00    +0.057 A 
ATOM      8  C   UNL     1      10.418   4.856  23.639  0.00  0.00    +0.012 A 
ATOM      9  C   UNL     1      11.322   3.799  23.553  0.00  0.00    +0.002 A 
ATOM     10  C   UNL     1      10.860   2.489  23.389  0.00  0.00    +0.023 A 
ATOM     11  C   UNL     1       9.493   2.206  23.308  0.00  0.00    +0.030 A 
ATOM     12  C   UNL     1       8.609   3.295  23.348  0.00  0.00    +0.035 A 
BRANCH   7  14
ATOM     13  F   UNL     1       8.162   6.433  24.836  0.00  0.00    -0.166 F 
ATOM     14  C   UNL     1       8.047   5.731  23.670  0.00  0.00    +0.417 C 
ATOM     15  F   UNL     1       8.169   6.655  22.676  0.00  0.00    -0.166 F 
ATOM     16  F   UNL     1       6.757   5.300  23.624  0.00  0.00    -0.166 F 
ENDBRANCH   7  14
ENDBRANCH   1  11
BRANCH   4  17
ATOM     17  C   UNL     1       8.018  -2.519  23.244  0.00  0.00    +0.106 C 
BRANCH  17  18
ATOM     18  C   UNL     1       7.929  -4.053  23.290  0.00  0.00    +0.142 C 
BRANCH  18  19
ATOM     19  N   UNL     1       7.989  -4.557  24.637  0.00  0.00    -0.291 N 
ATOM     20  C   UNL     1       6.899  -4.792  25.480  0.00  0.00    +0.070 A 
ATOM     21  C   UNL     1       7.403  -5.266  26.693  0.00  0.00    +0.067 A 
ATOM     22  C   UNL     1       6.590  -5.576  27.757  0.00  0.00    +0.028 A 
ATOM     23  C   UNL     1       5.215  -5.398  27.572  0.00  0.00    +0.002 A 
ATOM     24  C   UNL     1       4.700  -4.929  26.343  0.00  0.00    +0.002 A 
ATOM     25  N   UNL     1       8.788  -5.346  26.590  0.00  0.00    -0.306 N 
ATOM     26  H   UNL     1       9.436  -5.658  27.294  0.00  0.00    +0.170 HD
ATOM     27  C   UNL     1       5.548  -4.621  25.276  0.00  0.00    +0.028 A 
ATOM     28  C   UNL     1       9.174  -4.918  25.310  0.00  0.00    +0.328 A 
ATOM     29  O   UNL     1      10.315  -4.872  24.880  0.00  0.00    -0.247 OA
ENDBRANCH  18  19
ENDBRANCH  17  18
ENDBRANCH   4  17
TORSDOF 5
ENDMDL
MODEL 6
REMARK VINA RESULT:      -7.5      2.445      3.092
REMARK  Name = 
REMARK  5 active torsions:
REMARK  status: ('A' for Active; 'I' for Inactive)
REMARK    1  A    between atoms: C_2  and  C_5
REMARK    2  A    between atoms: C_7  and  N_11
REMARK    3  A    between atoms: N_14  and  C_15
REMARK    4  A    between atoms: C_15  and  C_16
REMARK    5  A    between atoms: C_16  and  N_17
REMARK                            x       y       z     vdW  Elec       q    Type
REMARK                         _______ _______ _______ _____ _____    ______ ____
ROOT
ATOM      1  N   UNL     1       8.942   1.930  23.466  0.00  0.00    -0.327 N 
ATOM      2  C   UNL     1       9.344   1.270  24.725  0.00  0.00    +0.120 C 
ATOM      3  C   UNL     1      10.484   0.254  24.483  0.00  0.00    +0.103 C 
ATOM      4  N   UNL     1      10.228  -0.730  23.403  0.00  0.00    -0.298 NA
ATOM      5  C   UNL     1       9.933   0.049  22.170  0.00  0.00    +0.103 C 
ATOM      6  C   UNL     1       8.772   1.061  22.293  0.00  0.00    +0.120 C 
ENDROOT
BRANCH   1  11
ATOM      7  C   UNL     1       7.877   5.439  22.956  0.00  0.00    +0.057 A 
ATOM      8  C   UNL     1       9.017   6.130  23.377  0.00  0.00    +0.012 A 
ATOM      9  C   UNL     1      10.151   5.426  23.779  0.00  0.00    +0.002 A 
ATOM     10  C   UNL     1      10.147   4.028  23.785  0.00  0.00    +0.023 A 
ATOM     11  C   UNL     1       9.017   3.304  23.393  0.00  0.00    +0.030 A 
ATOM     12  C   UNL     1       7.908   4.037  22.946  0.00  0.00    +0.035 A 
BRANCH   7  14
ATOM     13  F   UNL     1       6.227   7.108  23.469  0.00  0.00    -0.166 F 
ATOM     14  C   UNL     1       6.626   6.173  22.558  0.00  0.00    +0.417 C 
ATOM     15  F   UNL     1       6.774   6.850  21.384  0.00  0.00    -0.166 F 
ATOM     16  F   UNL     1       5.559   5.348  22.382  0.00  0.00    -0.166 F 
ENDBRANCH   7  14
ENDBRANCH   1  11
BRANCH   4  17
ATOM     17  C   UNL     1       9.121  -1.631  23.789  0.00  0.00    +0.106 C 
BRANCH  17  18
ATOM     18  C   UNL     1       9.574  -3.055  24.145  0.00  0.00    +0.142 C 
BRANCH  18  19
ATOM     19  N   UNL     1       8.466  -3.895  24.522  0.00  0.00    -0.291 N 
ATOM     20  C   UNL     1       7.506  -4.432  23.659  0.00  0.00    +0.070 A 
ATOM     21  C   UNL     1       6.614  -5.173  24.438  0.00  0.00    +0.067 A 
ATOM     22  C   UNL     1       5.528  -5.819  23.897  0.00  0.00    +0.028 A 
ATOM     23  C   UNL     1       5.353  -5.707  22.513  0.00  0.00    +0.002 A 
ATOM     24  C   UNL     1       6.259  -4.968  21.722  0.00  0.00    +0.002 A 
ATOM     25  N   UNL     1       7.034  -5.113  25.762  0.00  0.00    -0.306 N 
ATOM     26  H   UNL     1       6.603  -5.550  26.559  0.00  0.00    +0.170 HD
ATOM     27  C   UNL     1       7.356  -4.320  22.296  0.00  0.00    +0.028 A 
ATOM     28  C   UNL     1       8.196  -4.329  25.835  0.00  0.00    +0.328 A 
ATOM     29  O   UNL     1       8.833  -4.080  26.845  0.00  0.00    -0.247 OA
ENDBRANCH  18  19
ENDBRANCH  17  18
ENDBRANCH   4  17
TORSDOF 5
ENDMDL
MODEL 7
REMARK VINA RESULT:      -7.4      2.075      2.996
REMARK  Name = 
REMARK  5 active torsions:
REMARK  status: ('A' for Active; 'I' for Inactive)
REMARK    1  A    between atoms: C_2  and  C_5
REMARK    2  A    between atoms: C_7  and  N_11
REMARK    3  A    between atoms: N_14  and  C_15
REMARK    4  A    between atoms: C_15  and  C_16
REMARK    5  A    between atoms: C_16  and  N_17
REMARK                            x       y       z     vdW  Elec       q    Type
REMARK                         _______ _______ _______ _____ _____    ______ ____
ROOT
ATOM      1  N   UNL     1       8.331   0.772  24.070  0.00  0.00    -0.327 N 
ATOM      2  C   UNL     1       9.723   0.287  24.180  0.00  0.00    +0.120 C 
ATOM      3  C   UNL     1       9.977  -0.898  23.221  0.00  0.00    +0.103 C 
ATOM      4  N   UNL     1       8.997  -2.008  23.321  0.00  0.00    -0.298 NA
ATOM      5  C   UNL     1       7.651  -1.416  23.097  0.00  0.00    +0.103 C 
ATOM      6  C   UNL     1       7.278  -0.252  24.043  0.00  0.00    +0.120 C 
ENDROOT
BRANCH   1  11
ATOM      7  C   UNL     1       8.987   4.392  23.654  0.00  0.00    +0.057 A 
ATOM      8  C   UNL     1       7.862   4.787  22.924  0.00  0.00    +0.012 A 
ATOM      9  C   UNL     1       6.867   3.860  22.619  0.00  0.00    +0.002 A 
ATOM     10  C   UNL     1       7.000   2.527  23.021  0.00  0.00    +0.023 A 
ATOM     11  C   UNL     1       8.122   2.091  23.731  0.00  0.00    +0.030 A 
ATOM     12  C   UNL     1       9.083   3.056  24.067  0.00  0.00    +0.035 A 
BRANCH   7  14
ATOM     13  F   UNL     1      11.342   4.812  23.882  0.00  0.00    -0.166 F 
ATOM     14  C   UNL     1      10.095   5.362  23.960  0.00  0.00    +0.417 C 
ATOM     15  F   UNL     1      10.110   6.418  23.098  0.00  0.00    -0.166 F 
ATOM     16  F   UNL     1      10.004   5.898  25.207  0.00  0.00    -0.166 F 
ENDBRANCH   7  14
ENDBRANCH   1  11
BRANCH   4  17
ATOM     17  C   UNL     1       9.119  -2.673  24.636  0.00  0.00    +0.106 C 
BRANCH  17  18
ATOM     18  C   UNL     1       9.194  -4.206  24.553  0.00  0.00    +0.142 C 
BRANCH  18  19
ATOM     19  N   UNL     1       7.887  -4.811  24.555  0.00  0.00    -0.291 N 
ATOM     20  C   UNL     1       7.161  -5.204  25.683  0.00  0.00    +0.070 A 
ATOM     21  C   UNL     1       5.956  -5.750  25.235  0.00  0.00    +0.067 A 
ATOM     22  C   UNL     1       5.013  -6.257  26.097  0.00  0.00    +0.028 A 
ATOM     23  C   UNL     1       5.311  -6.199  27.462  0.00  0.00    +0.002 A 
ATOM     24  C   UNL     1       6.523  -5.638  27.920  0.00  0.00    +0.002 A 
ATOM     25  N   UNL     1       5.930  -5.671  23.847  0.00  0.00    -0.306 N 
ATOM     26  H   UNL     1       5.193  -5.977  23.232  0.00  0.00    +0.170 HD
ATOM     27  C   UNL     1       7.466  -5.128  27.023  0.00  0.00    +0.028 A 
ATOM     28  C   UNL     1       7.122  -5.079  23.402  0.00  0.00    +0.328 A 
ATOM     29  O   UNL     1       7.421  -4.848  22.242  0.00  0.00    -0.247 OA
ENDBRANCH  18  19
ENDBRANCH  17  18
ENDBRANCH   4  17
TORSDOF 5
ENDMDL
MODEL 8
REMARK VINA RESULT:      -7.4      5.432      9.460
REMARK  Name = 
REMARK  5 active torsions:
REMARK  status: ('A' for Active; 'I' for Inactive)
REMARK    1  A    between atoms: C_2  and  C_5
REMARK    2  A    between atoms: C_7  and  N_11
REMARK    3  A    between atoms: N_14  and  C_15
REMARK    4  A    between atoms: C_15  and  C_16
REMARK    5  A    between atoms: C_16  and  N_17
REMARK                            x       y       z     vdW  Elec       q    Type
REMARK                         _______ _______ _______ _____ _____    ______ ____
ROOT
ATOM      1  N   UNL     1       7.303  -2.752  23.878  0.00  0.00    -0.327 N 
ATOM      2  C   UNL     1       8.386  -2.016  23.196  0.00  0.00    +0.120 C 
ATOM      3  C   UNL     1       9.629  -1.881  24.106  0.00  0.00    +0.103 C 
ATOM      4  N   UNL     1       9.358  -1.337  25.459  0.00  0.00    -0.298 NA
ATOM      5  C   UNL     1       8.330  -2.214  26.081  0.00  0.00    +0.103 C 
ATOM      6  C   UNL     1       7.024  -2.373  25.269  0.00  0.00    +0.120 C 
ENDROOT
BRANCH   1  11
ATOM      7  C   UNL     1       5.032  -5.585  23.150  0.00  0.00    +0.057 A 
ATOM      8  C   UNL     1       5.655  -6.149  22.033  0.00  0.00    +0.012 A 
ATOM      9  C   UNL     1       6.853  -5.617  21.559  0.00  0.00    +0.002 A 
ATOM     10  C   UNL     1       7.425  -4.504  22.184  0.00  0.00    +0.023 A 
ATOM     11  C   UNL     1       6.818  -3.900  23.288  0.00  0.00    +0.030 A 
ATOM     12  C   UNL     1       5.640  -4.486  23.773  0.00  0.00    +0.035 A 
BRANCH   7  14
ATOM     13  F   UNL     1       3.186  -5.373  24.673  0.00  0.00    -0.166 F 
ATOM     14  C   UNL     1       3.717  -6.112  23.655  0.00  0.00    +0.417 C 
ATOM     15  F   UNL     1       2.760  -6.132  22.684  0.00  0.00    -0.166 F 
ATOM     16  F   UNL     1       3.800  -7.386  24.126  0.00  0.00    -0.166 F 
ENDBRANCH   7  14
ENDBRANCH   1  11
BRANCH   4  17
ATOM     17  C   UNL     1       8.924   0.074  25.360  0.00  0.00    +0.106 C 
BRANCH  17  18
ATOM     18  C   UNL     1       9.942   0.990  24.664  0.00  0.00    +0.142 C 
BRANCH  18  19
ATOM     19  N   UNL     1       9.324   1.819  23.661  0.00  0.00    -0.291 N 
ATOM     20  C   UNL     1       8.575   2.976  23.893  0.00  0.00    +0.070 A 
ATOM     21  C   UNL     1       8.157   3.459  22.650  0.00  0.00    +0.067 A 
ATOM     22  C   UNL     1       7.375   4.582  22.523  0.00  0.00    +0.028 A 
ATOM     23  C   UNL     1       7.012   5.235  23.706  0.00  0.00    +0.002 A 
ATOM     24  C   UNL     1       7.442   4.756  24.963  0.00  0.00    +0.002 A 
ATOM     25  N   UNL     1       8.665   2.622  21.662  0.00  0.00    -0.306 N 
ATOM     26  H   UNL     1       8.544   2.710  20.667  0.00  0.00    +0.170 HD
ATOM     27  C   UNL     1       8.237   3.611  25.066  0.00  0.00    +0.028 A 
ATOM     28  C   UNL     1       9.406   1.597  22.271  0.00  0.00    +0.328 A 
ATOM     29  O   UNL     1       9.998   0.699  21.697  0.00  0.00    -0.247 OA
ENDBRANCH  18  19
ENDBRANCH  17  18
ENDBRANCH   4  17
TORSDOF 5
ENDMDL
MODEL 9
REMARK VINA RESULT:      -7.3      1.666      2.145
REMARK  Name = 
REMARK  5 active torsions:
REMARK  status: ('A' for Active; 'I' for Inactive)
REMARK    1  A    between atoms: C_2  and  C_5
REMARK    2  A    between atoms: C_7  and  N_11
REMARK    3  A    between atoms: N_14  and  C_15
REMARK    4  A    between atoms: C_15  and  C_16
REMARK    5  A    between atoms: C_16  and  N_17
REMARK                            x       y       z     vdW  Elec       q    Type
REMARK                         _______ _______ _______ _____ _____    ______ ____
ROOT
ATOM      1  N   UNL     1       8.701   2.165  24.162  0.00  0.00    -0.327 N 
ATOM      2  C   UNL     1       7.438   1.865  24.867  0.00  0.00    +0.120 C 
ATOM      3  C   UNL     1       7.687   0.961  26.096  0.00  0.00    +0.103 C 
ATOM      4  N   UNL     1       8.471  -0.269  25.822  0.00  0.00    -0.298 NA
ATOM      5  C   UNL     1       9.754   0.166  25.207  0.00  0.00    +0.103 C 
ATOM      6  C   UNL     1       9.614   1.036  23.937  0.00  0.00    +0.120 C 
ENDROOT
BRANCH   1  11
ATOM      7  C   UNL     1      10.849   5.121  23.566  0.00  0.00    +0.057 A 
ATOM      8  C   UNL     1       9.894   6.140  23.505  0.00  0.00    +0.012 A 
ATOM      9  C   UNL     1       8.547   5.848  23.714  0.00  0.00    +0.002 A 
ATOM     10  C   UNL     1       8.142   4.532  23.962  0.00  0.00    +0.023 A 
ATOM     11  C   UNL     1       9.067   3.484  24.006  0.00  0.00    +0.030 A 
ATOM     12  C   UNL     1      10.420   3.815  23.841  0.00  0.00    +0.035 A 
BRANCH   7  14
ATOM     13  F   UNL     1      12.554   5.834  22.031  0.00  0.00    -0.166 F 
ATOM     14  C   UNL     1      12.303   5.402  23.301  0.00  0.00    +0.417 C 
ATOM     15  F   UNL     1      12.800   6.372  24.119  0.00  0.00    -0.166 F 
ATOM     16  F   UNL     1      13.097   4.313  23.486  0.00  0.00    -0.166 F 
ENDBRANCH   7  14
ENDBRANCH   1  11
BRANCH   4  17
ATOM     17  C   UNL     1       7.698  -1.179  24.950  0.00  0.00    +0.106 C 
BRANCH  17  18
ATOM     18  C   UNL     1       8.220  -2.624  24.942  0.00  0.00    +0.142 C 
BRANCH  18  19
ATOM     19  N   UNL     1       7.525  -3.443  23.982  0.00  0.00    -0.291 N 
ATOM     20  C   UNL     1       6.626  -4.474  24.272  0.00  0.00    +0.070 A 
ATOM     21  C   UNL     1       6.196  -5.008  23.055  0.00  0.00    +0.067 A 
ATOM     22  C   UNL     1       5.316  -6.062  22.985  0.00  0.00    +0.028 A 
ATOM     23  C   UNL     1       4.859  -6.583  24.200  0.00  0.00    +0.002 A 
ATOM     24  C   UNL     1       5.284  -6.039  25.432  0.00  0.00    +0.002 A 
ATOM     25  N   UNL     1       6.804  -4.297  22.026  0.00  0.00    -0.306 N 
ATOM     26  H   UNL     1       6.690  -4.439  21.036  0.00  0.00    +0.170 HD
ATOM     27  C   UNL     1       6.179  -4.967  25.477  0.00  0.00    +0.028 A 
ATOM     28  C   UNL     1       7.630  -3.308  22.583  0.00  0.00    +0.328 A 
ATOM     29  O   UNL     1       8.301  -2.499  21.964  0.00  0.00    -0.247 OA
ENDBRANCH  18  19
ENDBRANCH  17  18
ENDBRANCH   4  17
TORSDOF 5
ENDMDL
