MODEL 1
REMARK VINA RESULT:      -4.8      0.000      0.000
REMARK  Name = 
REMARK  20 active torsions:
REMARK  status: ('A' for Active; 'I' for Inactive)
REMARK    1  A    between atoms: C_1  and  C_2
REMARK    2  A    between atoms: C_2  and  C_3
REMARK    3  A    between atoms: C_3  and  C_4
REMARK    4  A    between atoms: C_4  and  C_5
REMARK    5  A    between atoms: C_5  and  C_6
REMARK    6  A    between atoms: C_6  and  C_7
REMARK    7  A    between atoms: C_7  and  C_8
REMARK    8  A    between atoms: C_8  and  C_9
REMARK    9  A    between atoms: C_9  and  C_10
REMARK   10  A    between atoms: C_10  and  C_11
REMARK   11  A    between atoms: C_11  and  C_12
REMARK   12  A    between atoms: C_12  and  C_13
REMARK   13  A    between atoms: C_13  and  C_14
REMARK   14  A    between atoms: C_14  and  C_15
REMARK   15  A    between atoms: C_15  and  C_16
REMARK   16  A    between atoms: C_16  and  S_18
REMARK   17  A    between atoms: S_18  and  C_19
REMARK   18  A    between atoms: C_19  and  C_20
REMARK   19  A    between atoms: C_20  and  N_21
REMARK   20  A    between atoms: C_22  and  C_23
REMARK                            x       y       z     vdW  Elec       q    Type
REMARK                         _______ _______ _______ _____ _____    ______ ____
ROOT
ATOM      1  C   UNL     1       9.076  -3.449  24.189  0.00  0.00    +0.000 C 
ENDROOT
BRANCH   1   2
ATOM      2  C   UNL     1       8.511  -4.773  24.703  0.00  0.00    +0.008 C 
BRANCH   2   3
ATOM      3  C   UNL     1       8.678  -4.895  26.216  0.00  0.00    +0.086 C 
BRANCH   3   4
ATOM      4  C   UNL     1       7.381  -5.314  26.873  0.00  0.00    +0.189 C 
ATOM      5  O   UNL     1       7.311  -5.963  27.909  0.00  0.00    -0.285 OA
BRANCH   4   6
ATOM      6  S   UNL     1       5.932  -4.799  26.014  0.00  0.00    -0.087 S 
BRANCH   6   7
ATOM      7  C   UNL     1       5.167  -6.429  25.722  0.00  0.00    +0.096 C 
BRANCH   7   8
ATOM      8  C   UNL     1       4.469  -6.497  24.362  0.00  0.00    +0.115 C 
BRANCH   8   9
ATOM      9  N   UNL     1       5.407  -6.496  23.255  0.00  0.00    -0.315 N 
ATOM     10  H   UNL     1       6.064  -7.262  23.184  0.00  0.00    +0.149 HD
ATOM     11  C   UNL     1       5.445  -5.475  22.335  0.00  0.00    +0.210 C 
ATOM     12  O   UNL     1       4.728  -4.482  22.396  0.00  0.00    -0.276 OA
ATOM     13  C   UNL     1       6.432  -5.683  21.219  0.00  0.00    +0.109 C 
ENDBRANCH   8   9
ENDBRANCH   7   8
ENDBRANCH   6   7
ENDBRANCH   4   6
ENDBRANCH   3   4
ENDBRANCH   2   3
ENDBRANCH   1   2
BRANCH   1  14
ATOM     14  C   UNL     1       8.041  -2.698  23.353  0.00  0.00    +0.000 C 
BRANCH  14  15
ATOM     15  C   UNL     1       7.712  -1.341  23.973  0.00  0.00    +0.000 C 
BRANCH  15  16
ATOM     16  C   UNL     1       8.425  -1.168  25.312  0.00  0.00    +0.000 C 
BRANCH  16  17
ATOM     17  C   UNL     1       9.171   0.163  25.369  0.00  0.00    -0.000 C 
BRANCH  17  18
ATOM     18  C   UNL     1      10.310   0.192  24.353  0.00  0.00    -0.000 C 
BRANCH  18  19
ATOM     19  C   UNL     1      10.169   1.382  23.408  0.00  0.00    -0.000 C 
BRANCH  19  20
ATOM     20  C   UNL     1      10.039   0.918  21.960  0.00  0.00    -0.000 C 
BRANCH  20  21
ATOM     21  C   UNL     1       8.653   1.236  21.408  0.00  0.00    -0.000 C 
BRANCH  21  22
ATOM     22  C   UNL     1       7.998   2.370  22.192  0.00  0.00    -0.000 C 
BRANCH  22  23
ATOM     23  C   UNL     1       6.542   2.039  22.518  0.00  0.00    -0.000 C 
BRANCH  23  25
ATOM     24  C   UNL     1       7.149   3.190  24.668  0.00  0.00    +0.004 C 
ATOM     25  C   UNL     1       6.276   2.129  24.017  0.00  0.00    -0.003 C 
ENDBRANCH  23  25
ENDBRANCH  22  23
ENDBRANCH  21  22
ENDBRANCH  20  21
ENDBRANCH  19  20
ENDBRANCH  18  19
ENDBRANCH  17  18
ENDBRANCH  16  17
ENDBRANCH  15  16
ENDBRANCH  14  15
ENDBRANCH   1  14
TORSDOF 18
ENDMDL
MODEL 2
REMARK VINA RESULT:      -4.7      1.531      3.420
REMARK  Name = 
REMARK  20 active torsions:
REMARK  status: ('A' for Active; 'I' for Inactive)
REMARK    1  A    between atoms: C_1  and  C_2
REMARK    2  A    between atoms: C_2  and  C_3
REMARK    3  A    between atoms: C_3  and  C_4
REMARK    4  A    between atoms: C_4  and  C_5
REMARK    5  A    between atoms: C_5  and  C_6
REMARK    6  A    between atoms: C_6  and  C_7
REMARK    7  A    between atoms: C_7  and  C_8
REMARK    8  A    between atoms: C_8  and  C_9
REMARK    9  A    between atoms: C_9  and  C_10
REMARK   10  A    between atoms: C_10  and  C_11
REMARK   11  A    between atoms: C_11  and  C_12
REMARK   12  A    between atoms: C_12  and  C_13
REMARK   13  A    between atoms: C_13  and  C_14
REMARK   14  A    between atoms: C_14  and  C_15
REMARK   15  A    between atoms: C_15  and  C_16
REMARK   16  A    between atoms: C_16  and  S_18
REMARK   17  A    between atoms: S_18  and  C_19
REMARK   18  A    between atoms: C_19  and  C_20
REMARK   19  A    between atoms: C_20  and  N_21
REMARK   20  A    between atoms: C_22  and  C_23
REMARK                            x       y       z     vdW  Elec       q    Type
REMARK                         _______ _______ _______ _____ _____    ______ ____
ROOT
ATOM      1  C   UNL     1       6.687  -1.654  23.280  0.00  0.00    +0.000 C 
ENDROOT
BRANCH   1   2
ATOM      2  C   UNL     1       6.991  -3.020  22.666  0.00  0.00    +0.008 C 
BRANCH   2   3
ATOM      3  C   UNL     1       5.819  -3.523  21.826  0.00  0.00    +0.086 C 
BRANCH   3   4
ATOM      4  C   UNL     1       6.098  -4.905  21.277  0.00  0.00    +0.189 C 
ATOM      5  O   UNL     1       5.956  -5.222  20.103  0.00  0.00    -0.285 OA
BRANCH   4   6
ATOM      6  S   UNL     1       6.647  -6.067  22.482  0.00  0.00    -0.087 S 
BRANCH   6   7
ATOM      7  C   UNL     1       5.121  -6.211  23.470  0.00  0.00    +0.096 C 
BRANCH   7   8
ATOM      8  C   UNL     1       5.344  -5.805  24.928  0.00  0.00    +0.115 C 
BRANCH   8   9
ATOM      9  N   UNL     1       6.676  -5.276  25.161  0.00  0.00    -0.315 N 
ATOM     10  H   UNL     1       7.174  -4.875  24.377  0.00  0.00    +0.149 HD
ATOM     11  C   UNL     1       7.278  -5.339  26.394  0.00  0.00    +0.210 C 
ATOM     12  O   UNL     1       6.765  -5.872  27.372  0.00  0.00    -0.276 OA
ATOM     13  C   UNL     1       8.627  -4.675  26.460  0.00  0.00    +0.109 C 
ENDBRANCH   8   9
ENDBRANCH   7   8
ENDBRANCH   6   7
ENDBRANCH   4   6
ENDBRANCH   3   4
ENDBRANCH   2   3
ENDBRANCH   1   2
BRANCH   1  14
ATOM     14  C   UNL     1       6.533  -1.757  24.797  0.00  0.00    +0.000 C 
BRANCH  14  15
ATOM     15  C   UNL     1       7.576  -0.901  25.515  0.00  0.00    +0.000 C 
BRANCH  15  16
ATOM     16  C   UNL     1       8.987  -1.276  25.071  0.00  0.00    +0.000 C 
BRANCH  16  17
ATOM     17  C   UNL     1       9.943  -0.097  25.224  0.00  0.00    -0.000 C 
BRANCH  17  18
ATOM     18  C   UNL     1      10.589   0.257  23.887  0.00  0.00    -0.000 C 
BRANCH  18  19
ATOM     19  C   UNL     1      10.299  -0.814  22.840  0.00  0.00    -0.000 C 
BRANCH  19  20
ATOM     20  C   UNL     1       9.667  -0.202  21.593  0.00  0.00    -0.000 C 
BRANCH  20  21
ATOM     21  C   UNL     1       9.534   1.311  21.737  0.00  0.00    -0.000 C 
BRANCH  21  22
ATOM     22  C   UNL     1       8.083   1.753  21.569  0.00  0.00    -0.000 C 
BRANCH  22  23
ATOM     23  C   UNL     1       7.391   1.881  22.926  0.00  0.00    -0.000 C 
BRANCH  23  25
ATOM     24  C   UNL     1       8.535   3.280  24.672  0.00  0.00    +0.004 C 
ATOM     25  C   UNL     1       7.563   3.283  23.503  0.00  0.00    -0.003 C 
ENDBRANCH  23  25
ENDBRANCH  22  23
ENDBRANCH  21  22
ENDBRANCH  20  21
ENDBRANCH  19  20
ENDBRANCH  18  19
ENDBRANCH  17  18
ENDBRANCH  16  17
ENDBRANCH  15  16
ENDBRANCH  14  15
ENDBRANCH   1  14
TORSDOF 18
ENDMDL
MODEL 3
REMARK VINA RESULT:      -4.7      1.867      3.726
REMARK  Name = 
REMARK  20 active torsions:
REMARK  status: ('A' for Active; 'I' for Inactive)
REMARK    1  A    between atoms: C_1  and  C_2
REMARK    2  A    between atoms: C_2  and  C_3
REMARK    3  A    between atoms: C_3  and  C_4
REMARK    4  A    between atoms: C_4  and  C_5
REMARK    5  A    between atoms: C_5  and  C_6
REMARK    6  A    between atoms: C_6  and  C_7
REMARK    7  A    between atoms: C_7  and  C_8
REMARK    8  A    between atoms: C_8  and  C_9
REMARK    9  A    between atoms: C_9  and  C_10
REMARK   10  A    between atoms: C_10  and  C_11
REMARK   11  A    between atoms: C_11  and  C_12
REMARK   12  A    between atoms: C_12  and  C_13
REMARK   13  A    between atoms: C_13  and  C_14
REMARK   14  A    between atoms: C_14  and  C_15
REMARK   15  A    between atoms: C_15  and  C_16
REMARK   16  A    between atoms: C_16  and  S_18
REMARK   17  A    between atoms: S_18  and  C_19
REMARK   18  A    between atoms: C_19  and  C_20
REMARK   19  A    between atoms: C_20  and  N_21
REMARK   20  A    between atoms: C_22  and  C_23
REMARK                            x       y       z     vdW  Elec       q    Type
REMARK                         _______ _______ _______ _____ _____    ______ ____
ROOT
ATOM      1  C   UNL     1       6.735  -1.325  24.459  0.00  0.00    +0.000 C 
ENDROOT
BRANCH   1   2
ATOM      2  C   UNL     1       6.486  -1.635  22.984  0.00  0.00    +0.008 C 
BRANCH   2   3
ATOM      3  C   UNL     1       7.287  -2.854  22.531  0.00  0.00    +0.086 C 
BRANCH   3   4
ATOM      4  C   UNL     1       6.387  -3.886  21.888  0.00  0.00    +0.189 C 
ATOM      5  O   UNL     1       5.447  -3.617  21.150  0.00  0.00    -0.285 OA
BRANCH   4   6
ATOM      6  S   UNL     1       6.786  -5.553  22.294  0.00  0.00    -0.087 S 
BRANCH   6   7
ATOM      7  C   UNL     1       5.571  -5.831  23.626  0.00  0.00    +0.096 C 
BRANCH   7   8
ATOM      8  C   UNL     1       6.086  -5.339  24.981  0.00  0.00    +0.115 C 
BRANCH   8   9
ATOM      9  N   UNL     1       7.535  -5.269  25.033  0.00  0.00    -0.315 N 
ATOM     10  H   UNL     1       8.053  -5.465  24.186  0.00  0.00    +0.149 HD
ATOM     11  C   UNL     1       8.207  -4.982  26.196  0.00  0.00    +0.210 C 
ATOM     12  O   UNL     1       7.650  -4.802  27.274  0.00  0.00    -0.276 OA
ATOM     13  C   UNL     1       9.700  -4.881  26.040  0.00  0.00    +0.109 C 
ENDBRANCH   8   9
ENDBRANCH   7   8
ENDBRANCH   6   7
ENDBRANCH   4   6
ENDBRANCH   3   4
ENDBRANCH   2   3
ENDBRANCH   1   2
BRANCH   1  14
ATOM     14  C   UNL     1       7.203   0.117  24.647  0.00  0.00    +0.000 C 
BRANCH  14  15
ATOM     15  C   UNL     1       8.453   0.181  25.524  0.00  0.00    +0.000 C 
BRANCH  15  16
ATOM     16  C   UNL     1       9.497  -0.830  25.058  0.00  0.00    +0.000 C 
BRANCH  16  17
ATOM     17  C   UNL     1      10.423  -0.220  24.010  0.00  0.00    -0.000 C 
BRANCH  17  18
ATOM     18  C   UNL     1      10.253  -0.918  22.662  0.00  0.00    -0.000 C 
BRANCH  18  19
ATOM     19  C   UNL     1       9.595   0.011  21.646  0.00  0.00    -0.000 C 
BRANCH  19  20
ATOM     20  C   UNL     1       9.784   1.474  22.039  0.00  0.00    -0.000 C 
BRANCH  20  21
ATOM     21  C   UNL     1       8.470   2.241  21.928  0.00  0.00    -0.000 C 
BRANCH  21  22
ATOM     22  C   UNL     1       8.346   3.279  23.041  0.00  0.00    -0.000 C 
BRANCH  22  23
ATOM     23  C   UNL     1       9.657   3.410  23.814  0.00  0.00    -0.000 C 
BRANCH  23  25
ATOM     24  C   UNL     1       9.347   5.755  24.663  0.00  0.00    +0.004 C 
ATOM     25  C   UNL     1      10.179   4.844  23.777  0.00  0.00    -0.003 C 
ENDBRANCH  23  25
ENDBRANCH  22  23
ENDBRANCH  21  22
ENDBRANCH  20  21
ENDBRANCH  19  20
ENDBRANCH  18  19
ENDBRANCH  17  18
ENDBRANCH  16  17
ENDBRANCH  15  16
ENDBRANCH  14  15
ENDBRANCH   1  14
TORSDOF 18
ENDMDL
MODEL 4
REMARK VINA RESULT:      -4.7      1.943      3.364
REMARK  Name = 
REMARK  20 active torsions:
REMARK  status: ('A' for Active; 'I' for Inactive)
REMARK    1  A    between atoms: C_1  and  C_2
REMARK    2  A    between atoms: C_2  and  C_3
REMARK    3  A    between atoms: C_3  and  C_4
REMARK    4  A    between atoms: C_4  and  C_5
REMARK    5  A    between atoms: C_5  and  C_6
REMARK    6  A    between atoms: C_6  and  C_7
REMARK    7  A    between atoms: C_7  and  C_8
REMARK    8  A    between atoms: C_8  and  C_9
REMARK    9  A    between atoms: C_9  and  C_10
REMARK   10  A    between atoms: C_10  and  C_11
REMARK   11  A    between atoms: C_11  and  C_12
REMARK   12  A    between atoms: C_12  and  C_13
REMARK   13  A    between atoms: C_13  and  C_14
REMARK   14  A    between atoms: C_14  and  C_15
REMARK   15  A    between atoms: C_15  and  C_16
REMARK   16  A    between atoms: C_16  and  S_18
REMARK   17  A    between atoms: S_18  and  C_19
REMARK   18  A    between atoms: C_19  and  C_20
REMARK   19  A    between atoms: C_20  and  N_21
REMARK   20  A    between atoms: C_22  and  C_23
REMARK                            x       y       z     vdW  Elec       q    Type
REMARK                         _______ _______ _______ _____ _____    ______ ____
ROOT
ATOM      1  C   UNL     1       6.155  -3.122  22.158  0.00  0.00    +0.000 C 
ENDROOT
BRANCH   1   2
ATOM      2  C   UNL     1       5.010  -3.573  23.064  0.00  0.00    +0.008 C 
BRANCH   2   3
ATOM      3  C   UNL     1       5.327  -3.304  24.533  0.00  0.00    +0.086 C 
BRANCH   3   4
ATOM      4  C   UNL     1       4.094  -3.470  25.394  0.00  0.00    +0.189 C 
ATOM      5  O   UNL     1       3.134  -2.710  25.377  0.00  0.00    -0.285 OA
BRANCH   4   6
ATOM      6  S   UNL     1       4.139  -4.868  26.465  0.00  0.00    -0.087 S 
BRANCH   6   7
ATOM      7  C   UNL     1       5.502  -4.354  27.562  0.00  0.00    +0.096 C 
BRANCH   7   8
ATOM      8  C   UNL     1       6.544  -5.462  27.737  0.00  0.00    +0.115 C 
BRANCH   8   9
ATOM      9  N   UNL     1       7.301  -5.709  26.523  0.00  0.00    -0.315 N 
ATOM     10  H   UNL     1       6.995  -6.456  25.913  0.00  0.00    +0.149 HD
ATOM     11  C   UNL     1       8.425  -4.985  26.208  0.00  0.00    +0.210 C 
ATOM     12  O   UNL     1       8.894  -4.112  26.931  0.00  0.00    -0.276 OA
ATOM     13  C   UNL     1       9.034  -5.334  24.877  0.00  0.00    +0.109 C 
ENDBRANCH   8   9
ENDBRANCH   7   8
ENDBRANCH   6   7
ENDBRANCH   4   6
ENDBRANCH   3   4
ENDBRANCH   2   3
ENDBRANCH   1   2
BRANCH   1  14
ATOM     14  C   UNL     1       7.148  -2.247  22.922  0.00  0.00    +0.000 C 
BRANCH  14  15
ATOM     15  C   UNL     1       8.570  -2.443  22.399  0.00  0.00    +0.000 C 
BRANCH  15  16
ATOM     16  C   UNL     1       9.596  -1.985  23.433  0.00  0.00    +0.000 C 
BRANCH  16  17
ATOM     17  C   UNL     1       8.913  -1.351  24.641  0.00  0.00    -0.000 C 
BRANCH  17  18
ATOM     18  C   UNL     1       9.750  -0.204  25.200  0.00  0.00    -0.000 C 
BRANCH  18  19
ATOM     19  C   UNL     1      10.723   0.325  24.149  0.00  0.00    -0.000 C 
BRANCH  19  20
ATOM     20  C   UNL     1      10.757   1.851  24.155  0.00  0.00    -0.000 C 
BRANCH  20  21
ATOM     21  C   UNL     1      10.120   2.414  22.887  0.00  0.00    -0.000 C 
BRANCH  21  22
ATOM     22  C   UNL     1       9.879   1.312  21.859  0.00  0.00    -0.000 C 
BRANCH  22  23
ATOM     23  C   UNL     1       8.442   1.353  21.341  0.00  0.00    -0.000 C 
BRANCH  23  25
ATOM     24  C   UNL     1       6.498   2.565  22.375  0.00  0.00    +0.004 C 
ATOM     25  C   UNL     1       7.440   1.377  22.492  0.00  0.00    -0.003 C 
ENDBRANCH  23  25
ENDBRANCH  22  23
ENDBRANCH  21  22
ENDBRANCH  20  21
ENDBRANCH  19  20
ENDBRANCH  18  19
ENDBRANCH  17  18
ENDBRANCH  16  17
ENDBRANCH  15  16
ENDBRANCH  14  15
ENDBRANCH   1  14
TORSDOF 18
ENDMDL
MODEL 5
REMARK VINA RESULT:      -4.6      5.239      8.992
REMARK  Name = 
REMARK  20 active torsions:
REMARK  status: ('A' for Active; 'I' for Inactive)
REMARK    1  A    between atoms: C_1  and  C_2
REMARK    2  A    between atoms: C_2  and  C_3
REMARK    3  A    between atoms: C_3  and  C_4
REMARK    4  A    between atoms: C_4  and  C_5
REMARK    5  A    between atoms: C_5  and  C_6
REMARK    6  A    between atoms: C_6  and  C_7
REMARK    7  A    between atoms: C_7  and  C_8
REMARK    8  A    between atoms: C_8  and  C_9
REMARK    9  A    between atoms: C_9  and  C_10
REMARK   10  A    between atoms: C_10  and  C_11
REMARK   11  A    between atoms: C_11  and  C_12
REMARK   12  A    between atoms: C_12  and  C_13
REMARK   13  A    between atoms: C_13  and  C_14
REMARK   14  A    between atoms: C_14  and  C_15
REMARK   15  A    between atoms: C_15  and  C_16
REMARK   16  A    between atoms: C_16  and  S_18
REMARK   17  A    between atoms: S_18  and  C_19
REMARK   18  A    between atoms: C_19  and  C_20
REMARK   19  A    between atoms: C_20  and  N_21
REMARK   20  A    between atoms: C_22  and  C_23
REMARK                            x       y       z     vdW  Elec       q    Type
REMARK                         _______ _______ _______ _____ _____    ______ ____
ROOT
ATOM      1  C   UNL     1       8.367   1.284  21.912  0.00  0.00    +0.000 C 
ENDROOT
BRANCH   1   2
ATOM      2  C   UNL     1       7.565   2.556  21.635  0.00  0.00    +0.008 C 
BRANCH   2   3
ATOM      3  C   UNL     1       6.562   2.832  22.753  0.00  0.00    +0.086 C 
BRANCH   3   4
ATOM      4  C   UNL     1       6.528   4.304  23.099  0.00  0.00    +0.189 C 
ATOM      5  O   UNL     1       5.782   5.119  22.570  0.00  0.00    -0.285 OA
BRANCH   4   6
ATOM      6  S   UNL     1       7.676   4.785  24.345  0.00  0.00    -0.087 S 
BRANCH   6   7
ATOM      7  C   UNL     1       8.489   6.169  23.477  0.00  0.00    +0.096 C 
BRANCH   7   8
ATOM      8  C   UNL     1       9.867   6.481  24.066  0.00  0.00    +0.115 C 
BRANCH   8   9
ATOM      9  N   UNL     1      10.938   5.794  23.368  0.00  0.00    -0.315 N 
ATOM     10  H   UNL     1      10.706   5.271  22.533  0.00  0.00    +0.149 HD
ATOM     11  C   UNL     1      12.233   5.810  23.828  0.00  0.00    +0.210 C 
ATOM     12  O   UNL     1      12.576   6.363  24.867  0.00  0.00    -0.276 OA
ATOM     13  C   UNL     1      13.216   5.104  22.935  0.00  0.00    +0.109 C 
ENDBRANCH   8   9
ENDBRANCH   7   8
ENDBRANCH   6   7
ENDBRANCH   4   6
ENDBRANCH   3   4
ENDBRANCH   2   3
ENDBRANCH   1   2
BRANCH   1  14
ATOM     14  C   UNL     1       9.867   1.573  21.929  0.00  0.00    +0.000 C 
BRANCH  14  15
ATOM     15  C   UNL     1      10.299   2.164  23.271  0.00  0.00    +0.000 C 
BRANCH  15  16
ATOM     16  C   UNL     1       9.656   1.408  24.430  0.00  0.00    +0.000 C 
BRANCH  16  17
ATOM     17  C   UNL     1      10.434   0.136  24.755  0.00  0.00    -0.000 C 
BRANCH  17  18
ATOM     18  C   UNL     1       9.525  -1.089  24.698  0.00  0.00    -0.000 C 
BRANCH  18  19
ATOM     19  C   UNL     1       9.973  -2.051  23.601  0.00  0.00    -0.000 C 
BRANCH  19  20
ATOM     20  C   UNL     1       8.886  -2.216  22.542  0.00  0.00    -0.000 C 
BRANCH  20  21
ATOM     21  C   UNL     1       7.497  -2.161  23.174  0.00  0.00    -0.000 C 
BRANCH  21  22
ATOM     22  C   UNL     1       6.735  -3.462  22.938  0.00  0.00    -0.000 C 
BRANCH  22  23
ATOM     23  C   UNL     1       7.649  -4.673  23.126  0.00  0.00    -0.000 C 
BRANCH  23  25
ATOM     24  C   UNL     1       6.276  -5.402  21.152  0.00  0.00    +0.004 C 
ATOM     25  C   UNL     1       7.177  -5.857  22.288  0.00  0.00    -0.003 C 
ENDBRANCH  23  25
ENDBRANCH  22  23
ENDBRANCH  21  22
ENDBRANCH  20  21
ENDBRANCH  19  20
ENDBRANCH  18  19
ENDBRANCH  17  18
ENDBRANCH  16  17
ENDBRANCH  15  16
ENDBRANCH  14  15
ENDBRANCH   1  14
TORSDOF 18
ENDMDL
MODEL 6
REMARK VINA RESULT:      -4.6      5.064      8.479
REMARK  Name = 
REMARK  20 active torsions:
REMARK  status: ('A' for Active; 'I' for Inactive)
REMARK    1  A    between atoms: C_1  and  C_2
REMARK    2  A    between atoms: C_2  and  C_3
REMARK    3  A    between atoms: C_3  and  C_4
REMARK    4  A    between atoms: C_4  and  C_5
REMARK    5  A    between atoms: C_5  and  C_6
REMARK    6  A    between atoms: C_6  and  C_7
REMARK    7  A    between atoms: C_7  and  C_8
REMARK    8  A    between atoms: C_8  and  C_9
REMARK    9  A    between atoms: C_9  and  C_10
REMARK   10  A    between atoms: C_10  and  C_11
REMARK   11  A    between atoms: C_11  and  C_12
REMARK   12  A    between atoms: C_12  and  C_13
REMARK   13  A    between atoms: C_13  and  C_14
REMARK   14  A    between atoms: C_14  and  C_15
REMARK   15  A    between atoms: C_15  and  C_16
REMARK   16  A    between atoms: C_16  and  S_18
REMARK   17  A    between atoms: S_18  and  C_19
REMARK   18  A    between atoms: C_19  and  C_20
REMARK   19  A    between atoms: C_20  and  N_21
REMARK   20  A    between atoms: C_22  and  C_23
REMARK                            x       y       z     vdW  Elec       q    Type
REMARK                         _______ _______ _______ _____ _____    ______ ____
ROOT
ATOM      1  C   UNL     1      10.042  -0.858  21.741  0.00  0.00    +0.000 C 
ENDROOT
BRANCH   1   2
ATOM      2  C   UNL     1       9.196   0.383  21.456  0.00  0.00    +0.008 C 
BRANCH   2   3
ATOM      3  C   UNL     1       9.855   1.642  22.015  0.00  0.00    +0.086 C 
BRANCH   3   4
ATOM      4  C   UNL     1       8.817   2.609  22.540  0.00  0.00    +0.189 C 
ATOM      5  O   UNL     1       7.767   2.872  21.967  0.00  0.00    -0.285 OA
BRANCH   4   6
ATOM      6  S   UNL     1       9.239   3.366  24.074  0.00  0.00    -0.087 S 
BRANCH   6   7
ATOM      7  C   UNL     1       8.708   5.074  23.715  0.00  0.00    +0.096 C 
BRANCH   7   8
ATOM      8  C   UNL     1       9.869   6.066  23.816  0.00  0.00    +0.115 C 
BRANCH   8   9
ATOM      9  N   UNL     1      11.035   5.637  23.065  0.00  0.00    -0.315 N 
ATOM     10  H   UNL     1      10.890   5.234  22.148  0.00  0.00    +0.149 HD
ATOM     11  C   UNL     1      12.305   5.734  23.578  0.00  0.00    +0.210 C 
ATOM     12  O   UNL     1      12.552   6.147  24.706  0.00  0.00    -0.276 OA
ATOM     13  C   UNL     1      13.391   5.308  22.627  0.00  0.00    +0.109 C 
ENDBRANCH   8   9
ENDBRANCH   7   8
ENDBRANCH   6   7
ENDBRANCH   4   6
ENDBRANCH   3   4
ENDBRANCH   2   3
ENDBRANCH   1   2
BRANCH   1  14
ATOM     14  C   UNL     1       9.224  -1.924  22.469  0.00  0.00    +0.000 C 
BRANCH  14  15
ATOM     15  C   UNL     1       9.800  -2.210  23.855  0.00  0.00    +0.000 C 
BRANCH  15  16
ATOM     16  C   UNL     1       9.598  -1.016  24.784  0.00  0.00    +0.000 C 
BRANCH  16  17
ATOM     17  C   UNL     1       8.861  -1.428  26.055  0.00  0.00    -0.000 C 
BRANCH  17  18
ATOM     18  C   UNL     1       7.508  -0.728  26.151  0.00  0.00    -0.000 C 
BRANCH  18  19
ATOM     19  C   UNL     1       7.291   0.206  24.963  0.00  0.00    -0.000 C 
BRANCH  19  20
ATOM     20  C   UNL     1       6.286  -0.387  23.979  0.00  0.00    -0.000 C 
BRANCH  20  21
ATOM     21  C   UNL     1       5.664  -1.664  24.538  0.00  0.00    -0.000 C 
BRANCH  21  22
ATOM     22  C   UNL     1       5.682  -2.782  23.499  0.00  0.00    -0.000 C 
BRANCH  22  23
ATOM     23  C   UNL     1       6.466  -3.990  24.010  0.00  0.00    -0.000 C 
BRANCH  23  25
ATOM     24  C   UNL     1       7.296  -5.580  22.250  0.00  0.00    +0.004 C 
ATOM     25  C   UNL     1       6.153  -5.239  23.191  0.00  0.00    -0.003 C 
ENDBRANCH  23  25
ENDBRANCH  22  23
ENDBRANCH  21  22
ENDBRANCH  20  21
ENDBRANCH  19  20
ENDBRANCH  18  19
ENDBRANCH  17  18
ENDBRANCH  16  17
ENDBRANCH  15  16
ENDBRANCH  14  15
ENDBRANCH   1  14
TORSDOF 18
ENDMDL
MODEL 7
REMARK VINA RESULT:      -4.5      2.014      3.295
REMARK  Name = 
REMARK  20 active torsions:
REMARK  status: ('A' for Active; 'I' for Inactive)
REMARK    1  A    between atoms: C_1  and  C_2
REMARK    2  A    between atoms: C_2  and  C_3
REMARK    3  A    between atoms: C_3  and  C_4
REMARK    4  A    between atoms: C_4  and  C_5
REMARK    5  A    between atoms: C_5  and  C_6
REMARK    6  A    between atoms: C_6  and  C_7
REMARK    7  A    between atoms: C_7  and  C_8
REMARK    8  A    between atoms: C_8  and  C_9
REMARK    9  A    between atoms: C_9  and  C_10
REMARK   10  A    between atoms: C_10  and  C_11
REMARK   11  A    between atoms: C_11  and  C_12
REMARK   12  A    between atoms: C_12  and  C_13
REMARK   13  A    between atoms: C_13  and  C_14
REMARK   14  A    between atoms: C_14  and  C_15
REMARK   15  A    between atoms: C_15  and  C_16
REMARK   16  A    between atoms: C_16  and  S_18
REMARK   17  A    between atoms: S_18  and  C_19
REMARK   18  A    between atoms: C_19  and  C_20
REMARK   19  A    between atoms: C_20  and  N_21
REMARK   20  A    between atoms: C_22  and  C_23
REMARK                            x       y       z     vdW  Elec       q    Type
REMARK                         _______ _______ _______ _____ _____    ______ ____
ROOT
ATOM      1  C   UNL     1       6.122  -1.490  24.263  0.00  0.00    +0.000 C 
ENDROOT
BRANCH   1   2
ATOM      2  C   UNL     1       6.098  -2.354  23.003  0.00  0.00    +0.008 C 
BRANCH   2   3
ATOM      3  C   UNL     1       7.508  -2.780  22.598  0.00  0.00    +0.086 C 
BRANCH   3   4
ATOM      4  C   UNL     1       7.949  -4.002  23.373  0.00  0.00    +0.189 C 
ATOM      5  O   UNL     1       7.456  -5.115  23.244  0.00  0.00    -0.285 OA
BRANCH   4   6
ATOM      6  S   UNL     1       9.252  -3.703  24.520  0.00  0.00    -0.087 S 
BRANCH   6   7
ATOM      7  C   UNL     1       9.116  -5.220  25.523  0.00  0.00    +0.096 C 
BRANCH   7   8
ATOM      8  C   UNL     1       8.239  -5.011  26.760  0.00  0.00    +0.115 C 
BRANCH   8   9
ATOM      9  N   UNL     1       7.142  -5.958  26.831  0.00  0.00    -0.315 N 
ATOM     10  H   UNL     1       7.342  -6.897  27.151  0.00  0.00    +0.149 HD
ATOM     11  C   UNL     1       5.866  -5.623  26.448  0.00  0.00    +0.210 C 
ATOM     12  O   UNL     1       5.563  -4.528  25.986  0.00  0.00    -0.276 OA
ATOM     13  C   UNL     1       4.849  -6.711  26.661  0.00  0.00    +0.109 C 
ENDBRANCH   8   9
ENDBRANCH   7   8
ENDBRANCH   6   7
ENDBRANCH   4   6
ENDBRANCH   3   4
ENDBRANCH   2   3
ENDBRANCH   1   2
BRANCH   1  14
ATOM     14  C   UNL     1       6.752  -0.127  23.983  0.00  0.00    +0.000 C 
BRANCH  14  15
ATOM     15  C   UNL     1       7.452   0.422  25.226  0.00  0.00    +0.000 C 
BRANCH  15  16
ATOM     16  C   UNL     1       8.834  -0.205  25.392  0.00  0.00    +0.000 C 
BRANCH  16  17
ATOM     17  C   UNL     1       9.892   0.587  24.629  0.00  0.00    -0.000 C 
BRANCH  17  18
ATOM     18  C   UNL     1      10.452  -0.230  23.468  0.00  0.00    -0.000 C 
BRANCH  18  19
ATOM     19  C   UNL     1       9.875   0.246  22.137  0.00  0.00    -0.000 C 
BRANCH  19  20
ATOM     20  C   UNL     1       9.743   1.766  22.112  0.00  0.00    -0.000 C 
BRANCH  20  21
ATOM     21  C   UNL     1       8.317   2.183  21.761  0.00  0.00    -0.000 C 
BRANCH  21  22
ATOM     22  C   UNL     1       7.860   3.354  22.627  0.00  0.00    -0.000 C 
BRANCH  22  23
ATOM     23  C   UNL     1       9.006   3.872  23.496  0.00  0.00    -0.000 C 
BRANCH  23  25
ATOM     24  C   UNL     1       7.065   4.119  25.073  0.00  0.00    +0.004 C 
ATOM     25  C   UNL     1       8.577   4.009  24.953  0.00  0.00    -0.003 C 
ENDBRANCH  23  25
ENDBRANCH  22  23
ENDBRANCH  21  22
ENDBRANCH  20  21
ENDBRANCH  19  20
ENDBRANCH  18  19
ENDBRANCH  17  18
ENDBRANCH  16  17
ENDBRANCH  15  16
ENDBRANCH  14  15
ENDBRANCH   1  14
TORSDOF 18
ENDMDL
MODEL 8
REMARK VINA RESULT:      -4.5      1.419      3.254
REMARK  Name = 
REMARK  20 active torsions:
REMARK  status: ('A' for Active; 'I' for Inactive)
REMARK    1  A    between atoms: C_1  and  C_2
REMARK    2  A    between atoms: C_2  and  C_3
REMARK    3  A    between atoms: C_3  and  C_4
REMARK    4  A    between atoms: C_4  and  C_5
REMARK    5  A    between atoms: C_5  and  C_6
REMARK    6  A    between atoms: C_6  and  C_7
REMARK    7  A    between atoms: C_7  and  C_8
REMARK    8  A    between atoms: C_8  and  C_9
REMARK    9  A    between atoms: C_9  and  C_10
REMARK   10  A    between atoms: C_10  and  C_11
REMARK   11  A    between atoms: C_11  and  C_12
REMARK   12  A    between atoms: C_12  and  C_13
REMARK   13  A    between atoms: C_13  and  C_14
REMARK   14  A    between atoms: C_14  and  C_15
REMARK   15  A    between atoms: C_15  and  C_16
REMARK   16  A    between atoms: C_16  and  S_18
REMARK   17  A    between atoms: S_18  and  C_19
REMARK   18  A    between atoms: C_19  and  C_20
REMARK   19  A    between atoms: C_20  and  N_21
REMARK   20  A    between atoms: C_22  and  C_23
REMARK                            x       y       z     vdW  Elec       q    Type
REMARK                         _______ _______ _______ _____ _____    ______ ____
ROOT
ATOM      1  C   UNL     1       8.309  -2.640  22.299  0.00  0.00    +0.000 C 
ENDROOT
BRANCH   1   2
ATOM      2  C   UNL     1       7.212  -3.580  22.797  0.00  0.00    +0.008 C 
BRANCH   2   3
ATOM      3  C   UNL     1       5.857  -2.876  22.838  0.00  0.00    +0.086 C 
BRANCH   3   4
ATOM      4  C   UNL     1       4.775  -3.812  23.332  0.00  0.00    +0.189 C 
ATOM      5  O   UNL     1       4.134  -4.566  22.611  0.00  0.00    -0.285 OA
BRANCH   4   6
ATOM      6  S   UNL     1       4.481  -3.731  25.067  0.00  0.00    -0.087 S 
BRANCH   6   7
ATOM      7  C   UNL     1       4.167  -5.498  25.395  0.00  0.00    +0.096 C 
BRANCH   7   8
ATOM      8  C   UNL     1       5.389  -6.193  25.999  0.00  0.00    +0.115 C 
BRANCH   8   9
ATOM      9  N   UNL     1       6.607  -5.420  25.836  0.00  0.00    -0.315 N 
ATOM     10  H   UNL     1       6.773  -4.975  24.942  0.00  0.00    +0.149 HD
ATOM     11  C   UNL     1       7.537  -5.309  26.840  0.00  0.00    +0.210 C 
ATOM     12  O   UNL     1       7.437  -5.875  27.923  0.00  0.00    -0.276 OA
ATOM     13  C   UNL     1       8.698  -4.408  26.513  0.00  0.00    +0.109 C 
ENDBRANCH   8   9
ENDBRANCH   7   8
ENDBRANCH   6   7
ENDBRANCH   4   6
ENDBRANCH   3   4
ENDBRANCH   2   3
ENDBRANCH   1   2
BRANCH   1  14
ATOM     14  C   UNL     1       8.410  -1.397  23.182  0.00  0.00    +0.000 C 
BRANCH  14  15
ATOM     15  C   UNL     1       9.638  -1.464  24.089  0.00  0.00    +0.000 C 
BRANCH  15  16
ATOM     16  C   UNL     1       9.672  -0.276  25.046  0.00  0.00    +0.000 C 
BRANCH  16  17
ATOM     17  C   UNL     1      10.731   0.739  24.624  0.00  0.00    -0.000 C 
BRANCH  17  18
ATOM     18  C   UNL     1      10.086   1.958  23.968  0.00  0.00    -0.000 C 
BRANCH  18  19
ATOM     19  C   UNL     1      10.292   1.938  22.456  0.00  0.00    -0.000 C 
BRANCH  19  20
ATOM     20  C   UNL     1       8.966   1.742  21.726  0.00  0.00    -0.000 C 
BRANCH  20  21
ATOM     21  C   UNL     1       7.866   2.589  22.360  0.00  0.00    -0.000 C 
BRANCH  21  22
ATOM     22  C   UNL     1       6.563   1.801  22.471  0.00  0.00    -0.000 C 
BRANCH  22  23
ATOM     23  C   UNL     1       5.825   2.146  23.764  0.00  0.00    -0.000 C 
BRANCH  23  25
ATOM     24  C   UNL     1       5.737   0.067  25.174  0.00  0.00    +0.004 C 
ATOM     25  C   UNL     1       6.424   1.406  24.956  0.00  0.00    -0.003 C 
ENDBRANCH  23  25
ENDBRANCH  22  23
ENDBRANCH  21  22
ENDBRANCH  20  21
ENDBRANCH  19  20
ENDBRANCH  18  19
ENDBRANCH  17  18
ENDBRANCH  16  17
ENDBRANCH  15  16
ENDBRANCH  14  15
ENDBRANCH   1  14
TORSDOF 18
ENDMDL
MODEL 9
REMARK VINA RESULT:      -4.5      2.455      4.444
REMARK  Name = 
REMARK  20 active torsions:
REMARK  status: ('A' for Active; 'I' for Inactive)
REMARK    1  A    between atoms: C_1  and  C_2
REMARK    2  A    between atoms: C_2  and  C_3
REMARK    3  A    between atoms: C_3  and  C_4
REMARK    4  A    between atoms: C_4  and  C_5
REMARK    5  A    between atoms: C_5  and  C_6
REMARK    6  A    between atoms: C_6  and  C_7
REMARK    7  A    between atoms: C_7  and  C_8
REMARK    8  A    between atoms: C_8  and  C_9
REMARK    9  A    between atoms: C_9  and  C_10
REMARK   10  A    between atoms: C_10  and  C_11
REMARK   11  A    between atoms: C_11  and  C_12
REMARK   12  A    between atoms: C_12  and  C_13
REMARK   13  A    between atoms: C_13  and  C_14
REMARK   14  A    between atoms: C_14  and  C_15
REMARK   15  A    between atoms: C_15  and  C_16
REMARK   16  A    between atoms: C_16  and  S_18
REMARK   17  A    between atoms: S_18  and  C_19
REMARK   18  A    between atoms: C_19  and  C_20
REMARK   19  A    between atoms: C_20  and  N_21
REMARK   20  A    between atoms: C_22  and  C_23
REMARK                            x       y       z     vdW  Elec       q    Type
REMARK                         _______ _______ _______ _____ _____    ______ ____
ROOT
ATOM      1  C   UNL     1       9.917   0.321  25.216  0.00  0.00    +0.000 C 
ENDROOT
BRANCH   1   2
ATOM      2  C   UNL     1       8.552  -0.359  25.110  0.00  0.00    +0.008 C 
BRANCH   2   3
ATOM      3  C   UNL     1       8.142  -0.987  26.440  0.00  0.00    +0.086 C 
BRANCH   3   4
ATOM      4  C   UNL     1       7.198  -2.149  26.222  0.00  0.00    +0.189 C 
ATOM      5  O   UNL     1       6.286  -2.449  26.983  0.00  0.00    -0.285 OA
BRANCH   4   6
ATOM      6  S   UNL     1       7.517  -3.081  24.761  0.00  0.00    -0.087 S 
BRANCH   6   7
ATOM      7  C   UNL     1       9.008  -3.979  25.304  0.00  0.00    +0.096 C 
BRANCH   7   8
ATOM      8  C   UNL     1       8.697  -5.431  25.676  0.00  0.00    +0.115 C 
BRANCH   8   9
ATOM      9  N   UNL     1       8.107  -5.552  26.997  0.00  0.00    -0.315 N 
ATOM     10  H   UNL     1       8.695  -5.377  27.801  0.00  0.00    +0.149 HD
ATOM     11  C   UNL     1       6.797  -5.927  27.176  0.00  0.00    +0.210 C 
ATOM     12  O   UNL     1       6.044  -6.221  26.254  0.00  0.00    -0.276 OA
ATOM     13  C   UNL     1       6.343  -5.927  28.611  0.00  0.00    +0.109 C 
ENDBRANCH   8   9
ENDBRANCH   7   8
ENDBRANCH   6   7
ENDBRANCH   4   6
ENDBRANCH   3   4
ENDBRANCH   2   3
ENDBRANCH   1   2
BRANCH   1  14
ATOM     14  C   UNL     1      10.642   0.311  23.871  0.00  0.00    +0.000 C 
BRANCH  14  15
ATOM     15  C   UNL     1      10.034  -0.724  22.925  0.00  0.00    +0.000 C 
BRANCH  15  16
ATOM     16  C   UNL     1       9.675  -0.089  21.584  0.00  0.00    +0.000 C 
BRANCH  16  17
ATOM     17  C   UNL     1       9.574   1.429  21.705  0.00  0.00    -0.000 C 
BRANCH  17  18
ATOM     18  C   UNL     1       8.120   1.886  21.631  0.00  0.00    -0.000 C 
BRANCH  18  19
ATOM     19  C   UNL     1       7.928   3.218  22.350  0.00  0.00    -0.000 C 
BRANCH  19  20
ATOM     20  C   UNL     1       7.736   3.006  23.850  0.00  0.00    -0.000 C 
BRANCH  20  21
ATOM     21  C   UNL     1       8.730   3.843  24.650  0.00  0.00    -0.000 C 
BRANCH  21  22
ATOM     22  C   UNL     1       9.932   4.233  23.793  0.00  0.00    -0.000 C 
BRANCH  22  23
ATOM     23  C   UNL     1      10.252   5.719  23.945  0.00  0.00    -0.000 C 
BRANCH  23  25
ATOM     24  C   UNL     1      12.505   4.884  23.208  0.00  0.00    +0.004 C 
ATOM     25  C   UNL     1      11.758   5.960  23.980  0.00  0.00    -0.003 C 
ENDBRANCH  23  25
ENDBRANCH  22  23
ENDBRANCH  21  22
ENDBRANCH  20  21
ENDBRANCH  19  20
ENDBRANCH  18  19
ENDBRANCH  17  18
ENDBRANCH  16  17
ENDBRANCH  15  16
ENDBRANCH  14  15
ENDBRANCH   1  14
TORSDOF 18
ENDMDL
