MODEL 1
REMARK VINA RESULT:      -4.0      0.000      0.000
REMARK  Name = 
REMARK  7 active torsions:
REMARK  status: ('A' for Active; 'I' for Inactive)
REMARK    1  A    between atoms: C_1  and  C_2
REMARK    2  A    between atoms: C_2  and  O_3
REMARK    3  A    between atoms: C_2  and  C_4
REMARK    4  A    between atoms: C_2  and  C_7
REMARK    5  A    between atoms: C_4  and  C_5
REMARK    6  A    between atoms: C_5  and  O_6
REMARK    7  A    between atoms: C_7  and  C_8
REMARK                            x       y       z     vdW  Elec       q    Type
REMARK                         _______ _______ _______ _____ _____    ______ ____
ROOT
ATOM      1  C   UNL     1       7.855   1.904  21.463  0.00  0.00    +0.042 C 
ATOM      2  C   UNL     1       9.106   1.205  22.016  0.00  0.00    +0.070 C 
ENDROOT
BRANCH   2   3
ATOM      3  O   UNL     1      10.182   2.138  21.743  0.00  0.00    -0.388 OA
ATOM      4  H   UNL     1      10.664   2.282  22.571  0.00  0.00    +0.210 HD
ENDBRANCH   2   3
BRANCH   2   5
ATOM      5  C   UNL     1       9.397  -0.088  21.258  0.00  0.00    +0.086 C 
BRANCH   5   6
ATOM      6  C   UNL     1       9.484  -1.408  22.033  0.00  0.00    +0.044 C 
ATOM      7  O   UNL     1       8.375  -2.001  22.167  0.00  0.00    -0.550 OA
ATOM      8  O   UNL     1      10.625  -1.755  22.433  0.00  0.00    -0.550 OA
ENDBRANCH   5   6
ENDBRANCH   2   5
BRANCH   2   9
ATOM      9  C   UNL     1       9.004   1.055  23.552  0.00  0.00    +0.062 C 
BRANCH   9  10
ATOM     10  C   UNL     1      10.215   1.577  24.334  0.00  0.00    +0.158 C 
BRANCH  10  11
ATOM     11  O   UNL     1      11.312   0.667  24.259  0.00  0.00    -0.395 OA
ATOM     12  H   UNL     1      11.788   0.842  23.431  0.00  0.00    +0.209 HD
ENDBRANCH  10  11
ENDBRANCH   9  10
ENDBRANCH   2   9
TORSDOF 6
ENDMDL
MODEL 2
REMARK VINA RESULT:      -3.9      1.761      2.608
REMARK  Name = 
REMARK  7 active torsions:
REMARK  status: ('A' for Active; 'I' for Inactive)
REMARK    1  A    between atoms: C_1  and  C_2
REMARK    2  A    between atoms: C_2  and  O_3
REMARK    3  A    between atoms: C_2  and  C_4
REMARK    4  A    between atoms: C_2  and  C_7
REMARK    5  A    between atoms: C_4  and  C_5
REMARK    6  A    between atoms: C_5  and  O_6
REMARK    7  A    between atoms: C_7  and  C_8
REMARK                            x       y       z     vdW  Elec       q    Type
REMARK                         _______ _______ _______ _____ _____    ______ ____
ROOT
ATOM      1  C   UNL     1       9.507  -0.104  25.555  0.00  0.00    +0.042 C 
ATOM      2  C   UNL     1       9.745   0.296  24.092  0.00  0.00    +0.070 C 
ENDROOT
BRANCH   2   3
ATOM      3  O   UNL     1       8.456   0.786  23.645  0.00  0.00    -0.388 OA
ATOM      4  H   UNL     1       8.394   0.626  22.691  0.00  0.00    +0.210 HD
ENDBRANCH   2   3
BRANCH   2   5
ATOM      5  C   UNL     1      10.111  -0.917  23.239  0.00  0.00    +0.086 C 
BRANCH   5   6
ATOM      6  C   UNL     1       9.273  -1.241  21.996  0.00  0.00    +0.044 C 
ATOM      7  O   UNL     1       9.369  -0.383  21.073  0.00  0.00    -0.550 OA
ATOM      8  O   UNL     1       8.605  -2.306  22.027  0.00  0.00    -0.550 OA
ENDBRANCH   5   6
ENDBRANCH   2   5
BRANCH   2   9
ATOM      9  C   UNL     1      10.740   1.477  24.012  0.00  0.00    +0.062 C 
BRANCH   9  10
ATOM     10  C   UNL     1      10.287   2.647  23.130  0.00  0.00    +0.158 C 
BRANCH  10  11
ATOM     11  O   UNL     1      10.265   2.277  21.751  0.00  0.00    -0.395 OA
ATOM     12  H   UNL     1       9.577   2.804  21.313  0.00  0.00    +0.209 HD
ENDBRANCH  10  11
ENDBRANCH   9  10
ENDBRANCH   2   9
TORSDOF 6
ENDMDL
MODEL 3
REMARK VINA RESULT:      -3.8      1.377      3.240
REMARK  Name = 
REMARK  7 active torsions:
REMARK  status: ('A' for Active; 'I' for Inactive)
REMARK    1  A    between atoms: C_1  and  C_2
REMARK    2  A    between atoms: C_2  and  O_3
REMARK    3  A    between atoms: C_2  and  C_4
REMARK    4  A    between atoms: C_2  and  C_7
REMARK    5  A    between atoms: C_4  and  C_5
REMARK    6  A    between atoms: C_5  and  O_6
REMARK    7  A    between atoms: C_7  and  C_8
REMARK                            x       y       z     vdW  Elec       q    Type
REMARK                         _______ _______ _______ _____ _____    ______ ____
ROOT
ATOM      1  C   UNL     1       8.175  -2.053  22.460  0.00  0.00    +0.042 C 
ATOM      2  C   UNL     1       9.112  -0.837  22.393  0.00  0.00    +0.070 C 
ENDROOT
BRANCH   2   3
ATOM      3  O   UNL     1       9.687  -0.907  21.064  0.00  0.00    -0.388 OA
ATOM      4  H   UNL     1       9.924  -1.831  20.893  0.00  0.00    +0.210 HD
ENDBRANCH   2   3
BRANCH   2   5
ATOM      5  C   UNL     1      10.247  -0.957  23.407  0.00  0.00    +0.086 C 
BRANCH   5   6
ATOM      6  C   UNL     1      10.345   0.063  24.547  0.00  0.00    +0.044 C 
ATOM      7  O   UNL     1      11.063   1.069  24.276  0.00  0.00    -0.550 OA
ATOM      8  O   UNL     1       9.707  -0.200  25.598  0.00  0.00    -0.550 OA
ENDBRANCH   5   6
ENDBRANCH   2   5
BRANCH   2   9
ATOM      9  C   UNL     1       8.297   0.475  22.474  0.00  0.00    +0.062 C 
BRANCH   9  10
ATOM     10  C   UNL     1       8.625   1.509  21.391  0.00  0.00    +0.158 C 
BRANCH  10  11
ATOM     11  O   UNL     1       9.940   2.038  21.562  0.00  0.00    -0.395 OA
ATOM     12  H   UNL     1      10.147   2.578  20.783  0.00  0.00    +0.209 HD
ENDBRANCH  10  11
ENDBRANCH   9  10
ENDBRANCH   2   9
TORSDOF 6
ENDMDL
MODEL 4
REMARK VINA RESULT:      -3.8      4.564      6.142
REMARK  Name = 
REMARK  7 active torsions:
REMARK  status: ('A' for Active; 'I' for Inactive)
REMARK    1  A    between atoms: C_1  and  C_2
REMARK    2  A    between atoms: C_2  and  O_3
REMARK    3  A    between atoms: C_2  and  C_4
REMARK    4  A    between atoms: C_2  and  C_7
REMARK    5  A    between atoms: C_4  and  C_5
REMARK    6  A    between atoms: C_5  and  O_6
REMARK    7  A    between atoms: C_7  and  C_8
REMARK                            x       y       z     vdW  Elec       q    Type
REMARK                         _______ _______ _______ _____ _____    ______ ____
ROOT
ATOM      1  C   UNL     1       6.544  -5.546  23.207  0.00  0.00    +0.042 C 
ATOM      2  C   UNL     1       7.601  -4.708  23.942  0.00  0.00    +0.070 C 
ENDROOT
BRANCH   2   3
ATOM      3  O   UNL     1       8.778  -5.553  23.952  0.00  0.00    -0.388 OA
ATOM      4  H   UNL     1       9.353  -5.250  24.672  0.00  0.00    +0.210 HD
ENDBRANCH   2   3
BRANCH   2   5
ATOM      5  C   UNL     1       7.192  -4.448  25.390  0.00  0.00    +0.086 C 
BRANCH   5   6
ATOM      6  C   UNL     1       8.035  -5.042  26.525  0.00  0.00    +0.044 C 
ATOM      7  O   UNL     1       9.201  -4.559  26.607  0.00  0.00    -0.550 OA
ATOM      8  O   UNL     1       7.484  -5.916  27.241  0.00  0.00    -0.550 OA
ENDBRANCH   5   6
ENDBRANCH   2   5
BRANCH   2   9
ATOM      9  C   UNL     1       7.949  -3.443  23.123  0.00  0.00    +0.062 C 
BRANCH   9  10
ATOM     10  C   UNL     1       8.982  -2.516  23.773  0.00  0.00    +0.158 C 
BRANCH  10  11
ATOM     11  O   UNL     1      10.204  -3.206  24.037  0.00  0.00    -0.395 OA
ATOM     12  H   UNL     1      10.385  -3.790  23.283  0.00  0.00    +0.209 HD
ENDBRANCH  10  11
ENDBRANCH   9  10
ENDBRANCH   2   9
TORSDOF 6
ENDMDL
MODEL 5
REMARK VINA RESULT:      -3.7      1.879      2.565
REMARK  Name = 
REMARK  7 active torsions:
REMARK  status: ('A' for Active; 'I' for Inactive)
REMARK    1  A    between atoms: C_1  and  C_2
REMARK    2  A    between atoms: C_2  and  O_3
REMARK    3  A    between atoms: C_2  and  C_4
REMARK    4  A    between atoms: C_2  and  C_7
REMARK    5  A    between atoms: C_4  and  C_5
REMARK    6  A    between atoms: C_5  and  O_6
REMARK    7  A    between atoms: C_7  and  C_8
REMARK                            x       y       z     vdW  Elec       q    Type
REMARK                         _______ _______ _______ _____ _____    ______ ____
ROOT
ATOM      1  C   UNL     1       7.502  -0.064  24.746  0.00  0.00    +0.042 C 
ATOM      2  C   UNL     1       8.714   0.156  23.828  0.00  0.00    +0.070 C 
ENDROOT
BRANCH   2   3
ATOM      3  O   UNL     1       8.245  -0.250  22.518  0.00  0.00    -0.388 OA
ATOM      4  H   UNL     1       8.943  -0.046  21.878  0.00  0.00    +0.210 HD
ENDBRANCH   2   3
BRANCH   2   5
ATOM      5  C   UNL     1       9.875  -0.757  24.218  0.00  0.00    +0.086 C 
BRANCH   5   6
ATOM      6  C   UNL     1      10.165  -2.004  23.373  0.00  0.00    +0.044 C 
ATOM      7  O   UNL     1      10.538  -1.750  22.192  0.00  0.00    -0.550 OA
ATOM      8  O   UNL     1      10.014  -3.117  23.938  0.00  0.00    -0.550 OA
ENDBRANCH   5   6
ENDBRANCH   2   5
BRANCH   2   9
ATOM      9  C   UNL     1       9.063   1.660  23.748  0.00  0.00    +0.062 C 
BRANCH   9  10
ATOM     10  C   UNL     1      10.215   2.008  22.798  0.00  0.00    +0.158 C 
BRANCH  10  11
ATOM     11  O   UNL     1       9.773   2.049  21.441  0.00  0.00    -0.395 OA
ATOM     12  H   UNL     1       9.734   1.137  21.113  0.00  0.00    +0.209 HD
ENDBRANCH  10  11
ENDBRANCH   9  10
ENDBRANCH   2   9
TORSDOF 6
ENDMDL
MODEL 6
REMARK VINA RESULT:      -3.7      3.229      4.866
REMARK  Name = 
REMARK  7 active torsions:
REMARK  status: ('A' for Active; 'I' for Inactive)
REMARK    1  A    between atoms: C_1  and  C_2
REMARK    2  A    between atoms: C_2  and  O_3
REMARK    3  A    between atoms: C_2  and  C_4
REMARK    4  A    between atoms: C_2  and  C_7
REMARK    5  A    between atoms: C_4  and  C_5
REMARK    6  A    between atoms: C_5  and  O_6
REMARK    7  A    between atoms: C_7  and  C_8
REMARK                            x       y       z     vdW  Elec       q    Type
REMARK                         _______ _______ _______ _____ _____    ______ ____
ROOT
ATOM      1  C   UNL     1       8.622  -2.190  25.299  0.00  0.00    +0.042 C 
ATOM      2  C   UNL     1       8.806  -3.184  24.143  0.00  0.00    +0.070 C 
ENDROOT
BRANCH   2   3
ATOM      3  O   UNL     1      10.231  -3.446  24.125  0.00  0.00    -0.388 OA
ATOM      4  H   UNL     1      10.443  -3.980  24.905  0.00  0.00    +0.210 HD
ENDBRANCH   2   3
BRANCH   2   5
ATOM      5  C   UNL     1       8.424  -2.553  22.806  0.00  0.00    +0.086 C 
BRANCH   5   6
ATOM      6  C   UNL     1       9.295  -1.431  22.229  0.00  0.00    +0.044 C 
ATOM      7  O   UNL     1       8.667  -0.359  21.998  0.00  0.00    -0.550 OA
ATOM      8  O   UNL     1      10.515  -1.691  22.064  0.00  0.00    -0.550 OA
ENDBRANCH   5   6
ENDBRANCH   2   5
BRANCH   2   9
ATOM      9  C   UNL     1       8.095  -4.520  24.464  0.00  0.00    +0.062 C 
BRANCH   9  10
ATOM     10  C   UNL     1       8.722  -5.328  25.606  0.00  0.00    +0.158 C 
BRANCH  10  11
ATOM     11  O   UNL     1       9.908  -5.998  25.176  0.00  0.00    -0.395 OA
ATOM     12  H   UNL     1       9.920  -6.876  25.591  0.00  0.00    +0.209 HD
ENDBRANCH  10  11
ENDBRANCH   9  10
ENDBRANCH   2   9
TORSDOF 6
ENDMDL
MODEL 7
REMARK VINA RESULT:      -3.7      5.177      6.114
REMARK  Name = 
REMARK  7 active torsions:
REMARK  status: ('A' for Active; 'I' for Inactive)
REMARK    1  A    between atoms: C_1  and  C_2
REMARK    2  A    between atoms: C_2  and  O_3
REMARK    3  A    between atoms: C_2  and  C_4
REMARK    4  A    between atoms: C_2  and  C_7
REMARK    5  A    between atoms: C_4  and  C_5
REMARK    6  A    between atoms: C_5  and  O_6
REMARK    7  A    between atoms: C_7  and  C_8
REMARK                            x       y       z     vdW  Elec       q    Type
REMARK                         _______ _______ _______ _____ _____    ______ ____
ROOT
ATOM      1  C   UNL     1       9.350  -3.125  24.313  0.00  0.00    +0.042 C 
ATOM      2  C   UNL     1       8.199  -4.110  24.060  0.00  0.00    +0.070 C 
ENDROOT
BRANCH   2   3
ATOM      3  O   UNL     1       8.843  -5.409  24.042  0.00  0.00    -0.388 OA
ATOM      4  H   UNL     1       9.706  -5.317  24.474  0.00  0.00    +0.210 HD
ENDBRANCH   2   3
BRANCH   2   5
ATOM      5  C   UNL     1       7.563  -3.879  22.691  0.00  0.00    +0.086 C 
BRANCH   5   6
ATOM      6  C   UNL     1       6.616  -4.938  22.116  0.00  0.00    +0.044 C 
ATOM      7  O   UNL     1       5.446  -4.515  21.891  0.00  0.00    -0.550 OA
ATOM      8  O   UNL     1       7.099  -6.084  21.924  0.00  0.00    -0.550 OA
ENDBRANCH   5   6
ENDBRANCH   2   5
BRANCH   2   9
ATOM      9  C   UNL     1       7.212  -4.102  25.251  0.00  0.00    +0.062 C 
BRANCH   9  10
ATOM     10  C   UNL     1       6.986  -5.466  25.913  0.00  0.00    +0.158 C 
BRANCH  10  11
ATOM     11  O   UNL     1       8.090  -5.829  26.742  0.00  0.00    -0.395 OA
ATOM     12  H   UNL     1       8.600  -6.510  26.277  0.00  0.00    +0.209 HD
ENDBRANCH  10  11
ENDBRANCH   9  10
ENDBRANCH   2   9
TORSDOF 6
ENDMDL
MODEL 8
REMARK VINA RESULT:      -3.6      1.719      3.793
REMARK  Name = 
REMARK  7 active torsions:
REMARK  status: ('A' for Active; 'I' for Inactive)
REMARK    1  A    between atoms: C_1  and  C_2
REMARK    2  A    between atoms: C_2  and  O_3
REMARK    3  A    between atoms: C_2  and  C_4
REMARK    4  A    between atoms: C_2  and  C_7
REMARK    5  A    between atoms: C_4  and  C_5
REMARK    6  A    between atoms: C_5  and  O_6
REMARK    7  A    between atoms: C_7  and  C_8
REMARK                            x       y       z     vdW  Elec       q    Type
REMARK                         _______ _______ _______ _____ _____    ______ ____
ROOT
ATOM      1  C   UNL     1       8.179   0.367  24.271  0.00  0.00    +0.042 C 
ATOM      2  C   UNL     1       9.637  -0.010  24.574  0.00  0.00    +0.070 C 
ENDROOT
BRANCH   2   3
ATOM      3  O   UNL     1       9.686  -0.096  26.021  0.00  0.00    -0.388 OA
ATOM      4  H   UNL     1       9.358  -0.971  26.276  0.00  0.00    +0.210 HD
ENDBRANCH   2   3
BRANCH   2   5
ATOM      5  C   UNL     1      10.597   1.093  24.133  0.00  0.00    +0.086 C 
BRANCH   5   6
ATOM      6  C   UNL     1      10.189   2.029  22.989  0.00  0.00    +0.044 C 
ATOM      7  O   UNL     1       9.930   3.210  23.357  0.00  0.00    -0.550 OA
ATOM      8  O   UNL     1      10.168   1.532  21.833  0.00  0.00    -0.550 OA
ENDBRANCH   5   6
ENDBRANCH   2   5
BRANCH   2   9
ATOM      9  C   UNL     1       9.957  -1.417  24.018  0.00  0.00    +0.062 C 
BRANCH   9  10
ATOM     10  C   UNL     1       9.307  -1.742  22.668  0.00  0.00    +0.158 C 
BRANCH  10  11
ATOM     11  O   UNL     1      10.216  -1.519  21.589  0.00  0.00    -0.395 OA
ATOM     12  H   UNL     1      11.108  -1.744  21.900  0.00  0.00    +0.209 HD
ENDBRANCH  10  11
ENDBRANCH   9  10
ENDBRANCH   2   9
TORSDOF 6
ENDMDL
MODEL 9
REMARK VINA RESULT:      -3.5      5.197      6.850
REMARK  Name = 
REMARK  7 active torsions:
REMARK  status: ('A' for Active; 'I' for Inactive)
REMARK    1  A    between atoms: C_1  and  C_2
REMARK    2  A    between atoms: C_2  and  O_3
REMARK    3  A    between atoms: C_2  and  C_4
REMARK    4  A    between atoms: C_2  and  C_7
REMARK    5  A    between atoms: C_4  and  C_5
REMARK    6  A    between atoms: C_5  and  O_6
REMARK    7  A    between atoms: C_7  and  C_8
REMARK                            x       y       z     vdW  Elec       q    Type
REMARK                         _______ _______ _______ _____ _____    ______ ____
ROOT
ATOM      1  C   UNL     1       8.114  -3.288  23.244  0.00  0.00    +0.042 C 
ATOM      2  C   UNL     1       7.687  -4.680  23.731  0.00  0.00    +0.070 C 
ENDROOT
BRANCH   2   3
ATOM      3  O   UNL     1       6.429  -4.446  24.412  0.00  0.00    -0.388 OA
ATOM      4  H   UNL     1       5.730  -4.880  23.899  0.00  0.00    +0.210 HD
ENDBRANCH   2   3
BRANCH   2   5
ATOM      5  C   UNL     1       8.679  -5.239  24.748  0.00  0.00    +0.086 C 
BRANCH   5   6
ATOM      6  C   UNL     1       8.351  -5.147  26.244  0.00  0.00    +0.044 C 
ATOM      7  O   UNL     1       7.423  -5.922  26.615  0.00  0.00    -0.550 OA
ATOM      8  O   UNL     1       9.033  -4.339  26.924  0.00  0.00    -0.550 OA
ENDBRANCH   5   6
ENDBRANCH   2   5
BRANCH   2   9
ATOM      9  C   UNL     1       7.394  -5.605  22.526  0.00  0.00    +0.062 C 
BRANCH   9  10
ATOM     10  C   UNL     1       5.907  -5.843  22.241  0.00  0.00    +0.158 C 
BRANCH  10  11
ATOM     11  O   UNL     1       5.283  -4.666  21.727  0.00  0.00    -0.395 OA
ATOM     12  H   UNL     1       5.418  -4.653  20.766  0.00  0.00    +0.209 HD
ENDBRANCH  10  11
ENDBRANCH   9  10
ENDBRANCH   2   9
TORSDOF 6
ENDMDL
