MODEL 1
REMARK VINA RESULT:      -6.3      0.000      0.000
REMARK  Name = 
REMARK  6 active torsions:
REMARK  status: ('A' for Active; 'I' for Inactive)
REMARK    1  A    between atoms: N_1  and  C_2
REMARK    2  A    between atoms: C_2  and  C_3
REMARK    3  A    between atoms: C_6  and  C_7
REMARK    4  A    between atoms: C_10  and  O_11
REMARK    5  A    between atoms: N_16  and  C_17
REMARK    6  A    between atoms: C_17  and  C_18
REMARK                            x       y       z     vdW  Elec       q    Type
REMARK                         _______ _______ _______ _____ _____    ______ ____
ROOT
ATOM      1  C   UNL     1       6.551  -3.200  25.453  0.00  0.00    +0.311 C 
ATOM      2  N   UNL     1       6.974  -4.474  25.594  0.00  0.00    -0.146 N 
ATOM      3  C   UNL     1       8.275  -4.536  25.180  0.00  0.00    +0.379 C 
ATOM      4  O   UNL     1       9.034  -5.487  25.162  0.00  0.00    -0.237 OA
ATOM      5  C   UNL     1       8.535  -3.138  24.727  0.00  0.00    +0.263 C 
ATOM      6  C   UNL     1       9.650  -2.774  24.075  0.00  0.00    +0.071 C 
ATOM      7  N   UNL     1       7.423  -2.366  24.975  0.00  0.00    -0.037 NA
ENDROOT
BRANCH   6   8
ATOM      8  C   UNL     1       9.845  -1.471  23.412  0.00  0.00    -0.020 A 
ATOM      9  C   UNL     1       9.493  -1.344  22.060  0.00  0.00    +0.011 A 
ATOM     10  C   UNL     1       9.548  -0.101  21.422  0.00  0.00    +0.046 A 
ATOM     11  C   UNL     1       9.960   1.020  22.131  0.00  0.00    +0.117 A 
ATOM     12  C   UNL     1      10.366   0.911  23.454  0.00  0.00    +0.046 A 
ATOM     13  C   UNL     1      10.326  -0.337  24.083  0.00  0.00    +0.011 A 
BRANCH  11  14
ATOM     14  O   UNL     1       9.942   2.223  21.493  0.00  0.00    -0.507 OA
ATOM     15  H   UNL     1       9.750   2.068  20.554  0.00  0.00    +0.292 HD
ENDBRANCH  11  14
ENDBRANCH   6   8
BRANCH   1  16
ATOM     16  C   UNL     1       5.155  -2.748  25.829  0.00  0.00    +0.208 C 
BRANCH  16  17
ATOM     17  N   UNL     1       4.897  -1.411  25.280  0.00  0.00    -0.320 NA
ATOM     18  H   UNL     1       5.789  -0.922  25.186  0.00  0.00    +0.119 HD
ATOM     19  H   UNL     1       4.550  -1.519  24.325  0.00  0.00    +0.119 HD
ENDBRANCH  16  17
ENDBRANCH   1  16
BRANCH   2  20
ATOM     20  C   UNL     1       6.209  -5.636  25.996  0.00  0.00    +0.306 C 
BRANCH  20  21
ATOM     21  C   UNL     1       6.237  -5.789  27.504  0.00  0.00    +0.267 C 
ATOM     22  O   UNL     1       7.226  -6.094  28.164  0.00  0.00    -0.297 OA
ENDBRANCH  20  21
ENDBRANCH   2  20
TORSDOF 6
ENDMDL
MODEL 2
REMARK VINA RESULT:      -6.2      2.221      3.018
REMARK  Name = 
REMARK  6 active torsions:
REMARK  status: ('A' for Active; 'I' for Inactive)
REMARK    1  A    between atoms: N_1  and  C_2
REMARK    2  A    between atoms: C_2  and  C_3
REMARK    3  A    between atoms: C_6  and  C_7
REMARK    4  A    between atoms: C_10  and  O_11
REMARK    5  A    between atoms: N_16  and  C_17
REMARK    6  A    between atoms: C_17  and  C_18
REMARK                            x       y       z     vdW  Elec       q    Type
REMARK                         _______ _______ _______ _____ _____    ______ ____
ROOT
ATOM      1  C   UNL     1       6.870  -3.026  23.534  0.00  0.00    +0.311 C 
ATOM      2  N   UNL     1       7.637  -4.102  23.811  0.00  0.00    -0.146 N 
ATOM      3  C   UNL     1       8.874  -3.656  24.180  0.00  0.00    +0.379 C 
ATOM      4  O   UNL     1       9.851  -4.293  24.528  0.00  0.00    -0.237 OA
ATOM      5  C   UNL     1       8.743  -2.178  24.028  0.00  0.00    +0.263 C 
ATOM      6  C   UNL     1       9.782  -1.335  24.121  0.00  0.00    +0.071 C 
ATOM      7  N   UNL     1       7.451  -1.872  23.666  0.00  0.00    -0.037 NA
ENDROOT
BRANCH   6   8
ATOM      8  C   UNL     1       9.740   0.093  23.752  0.00  0.00    -0.020 A 
ATOM      9  C   UNL     1       9.408   1.034  24.738  0.00  0.00    +0.011 A 
ATOM     10  C   UNL     1       9.472   2.404  24.466  0.00  0.00    +0.046 A 
ATOM     11  C   UNL     1       9.862   2.840  23.207  0.00  0.00    +0.117 A 
ATOM     12  C   UNL     1      10.144   1.928  22.198  0.00  0.00    +0.046 A 
ATOM     13  C   UNL     1      10.063   0.560  22.469  0.00  0.00    +0.011 A 
BRANCH  11  14
ATOM     14  O   UNL     1       9.972   4.181  22.998  0.00  0.00    -0.507 OA
ATOM     15  H   UNL     1       9.117   4.511  22.676  0.00  0.00    +0.292 HD
ENDBRANCH  11  14
ENDBRANCH   6   8
BRANCH   1  16
ATOM     16  C   UNL     1       5.422  -3.133  23.104  0.00  0.00    +0.208 C 
BRANCH  16  17
ATOM     17  N   UNL     1       5.341  -3.253  21.643  0.00  0.00    -0.320 NA
ATOM     18  H   UNL     1       4.408  -3.593  21.399  0.00  0.00    +0.119 HD
ATOM     19  H   UNL     1       5.397  -2.316  21.241  0.00  0.00    +0.119 HD
ENDBRANCH  16  17
ENDBRANCH   1  16
BRANCH   2  20
ATOM     20  C   UNL     1       7.308  -5.503  23.656  0.00  0.00    +0.306 C 
BRANCH  20  21
ATOM     21  C   UNL     1       7.551  -5.949  22.227  0.00  0.00    +0.267 C 
ATOM     22  O   UNL     1       6.705  -5.960  21.339  0.00  0.00    -0.297 OA
ENDBRANCH  20  21
ENDBRANCH   2  20
TORSDOF 6
ENDMDL
MODEL 3
REMARK VINA RESULT:      -6.2      1.641      2.048
REMARK  Name = 
REMARK  6 active torsions:
REMARK  status: ('A' for Active; 'I' for Inactive)
REMARK    1  A    between atoms: N_1  and  C_2
REMARK    2  A    between atoms: C_2  and  C_3
REMARK    3  A    between atoms: C_6  and  C_7
REMARK    4  A    between atoms: C_10  and  O_11
REMARK    5  A    between atoms: N_16  and  C_17
REMARK    6  A    between atoms: C_17  and  C_18
REMARK                            x       y       z     vdW  Elec       q    Type
REMARK                         _______ _______ _______ _____ _____    ______ ____
ROOT
ATOM      1  C   UNL     1       6.406  -3.010  24.501  0.00  0.00    +0.311 C 
ATOM      2  N   UNL     1       6.813  -4.292  24.391  0.00  0.00    -0.146 N 
ATOM      3  C   UNL     1       8.165  -4.291  24.188  0.00  0.00    +0.379 C 
ATOM      4  O   UNL     1       8.925  -5.232  24.059  0.00  0.00    -0.237 OA
ATOM      5  C   UNL     1       8.482  -2.834  24.139  0.00  0.00    +0.263 C 
ATOM      6  C   UNL     1       9.684  -2.356  23.784  0.00  0.00    +0.071 C 
ATOM      7  N   UNL     1       7.337  -2.111  24.387  0.00  0.00    -0.037 NA
ENDROOT
BRANCH   6   8
ATOM      8  C   UNL     1       9.972  -0.937  23.499  0.00  0.00    -0.020 A 
ATOM      9  C   UNL     1       9.782  -0.460  22.195  0.00  0.00    +0.011 A 
ATOM     10  C   UNL     1       9.927   0.901  21.905  0.00  0.00    +0.046 A 
ATOM     11  C   UNL     1      10.268   1.788  22.916  0.00  0.00    +0.117 A 
ATOM     12  C   UNL     1      10.514   1.333  24.205  0.00  0.00    +0.046 A 
ATOM     13  C   UNL     1      10.385  -0.030  24.486  0.00  0.00    +0.011 A 
BRANCH  11  14
ATOM     14  O   UNL     1      10.340   3.114  22.609  0.00  0.00    -0.507 OA
ATOM     15  H   UNL     1      11.247   3.417  22.776  0.00  0.00    +0.292 HD
ENDBRANCH  11  14
ENDBRANCH   6   8
BRANCH   1  16
ATOM     16  C   UNL     1       4.964  -2.619  24.748  0.00  0.00    +0.208 C 
BRANCH  16  17
ATOM     17  N   UNL     1       4.903  -1.291  25.371  0.00  0.00    -0.320 NA
ATOM     18  H   UNL     1       5.224  -1.373  26.338  0.00  0.00    +0.119 HD
ATOM     19  H   UNL     1       5.591  -0.691  24.912  0.00  0.00    +0.119 HD
ENDBRANCH  16  17
ENDBRANCH   1  16
BRANCH   2  20
ATOM     20  C   UNL     1       6.004  -5.492  24.369  0.00  0.00    +0.306 C 
BRANCH  20  21
ATOM     21  C   UNL     1       5.624  -5.846  22.944  0.00  0.00    +0.267 C 
ATOM     22  O   UNL     1       4.852  -5.203  22.240  0.00  0.00    -0.297 OA
ENDBRANCH  20  21
ENDBRANCH   2  20
TORSDOF 6
ENDMDL
MODEL 4
REMARK VINA RESULT:      -6.1      1.856      2.614
REMARK  Name = 
REMARK  6 active torsions:
REMARK  status: ('A' for Active; 'I' for Inactive)
REMARK    1  A    between atoms: N_1  and  C_2
REMARK    2  A    between atoms: C_2  and  C_3
REMARK    3  A    between atoms: C_6  and  C_7
REMARK    4  A    between atoms: C_10  and  O_11
REMARK    5  A    between atoms: N_16  and  C_17
REMARK    6  A    between atoms: C_17  and  C_18
REMARK                            x       y       z     vdW  Elec       q    Type
REMARK                         _______ _______ _______ _____ _____    ______ ____
ROOT
ATOM      1  C   UNL     1       8.170  -4.238  25.313  0.00  0.00    +0.311 C 
ATOM      2  N   UNL     1       6.903  -4.703  25.301  0.00  0.00    -0.146 N 
ATOM      3  C   UNL     1       6.193  -3.972  24.389  0.00  0.00    +0.379 C 
ATOM      4  O   UNL     1       5.028  -4.078  24.056  0.00  0.00    -0.237 OA
ATOM      5  C   UNL     1       7.203  -2.983  23.913  0.00  0.00    +0.263 C 
ATOM      6  C   UNL     1       6.897  -1.942  23.124  0.00  0.00    +0.071 C 
ATOM      7  N   UNL     1       8.416  -3.250  24.507  0.00  0.00    -0.037 NA
ENDROOT
BRANCH   6   8
ATOM      8  C   UNL     1       7.807  -0.821  22.822  0.00  0.00    -0.020 A 
ATOM      9  C   UNL     1       8.878  -1.042  21.945  0.00  0.00    +0.011 A 
ATOM     10  C   UNL     1       9.695   0.017  21.536  0.00  0.00    +0.046 A 
ATOM     11  C   UNL     1       9.447   1.300  22.006  0.00  0.00    +0.117 A 
ATOM     12  C   UNL     1       8.426   1.536  22.917  0.00  0.00    +0.046 A 
ATOM     13  C   UNL     1       7.623   0.471  23.336  0.00  0.00    +0.011 A 
BRANCH  11  14
ATOM     14  O   UNL     1      10.225   2.316  21.538  0.00  0.00    -0.507 OA
ATOM     15  H   UNL     1       9.801   2.685  20.746  0.00  0.00    +0.292 HD
ENDBRANCH  11  14
ENDBRANCH   6   8
BRANCH   1  16
ATOM     16  C   UNL     1       9.254  -4.820  26.196  0.00  0.00    +0.208 C 
BRANCH  16  17
ATOM     17  N   UNL     1      10.228  -5.553  25.377  0.00  0.00    -0.320 NA
ATOM     18  H   UNL     1      10.734  -6.202  25.982  0.00  0.00    +0.119 HD
ATOM     19  H   UNL     1       9.715  -6.143  24.721  0.00  0.00    +0.119 HD
ENDBRANCH  16  17
ENDBRANCH   1  16
BRANCH   2  20
ATOM     20  C   UNL     1       6.307  -5.711  26.151  0.00  0.00    +0.306 C 
BRANCH  20  21
ATOM     21  C   UNL     1       5.872  -5.100  27.469  0.00  0.00    +0.267 C 
ATOM     22  O   UNL     1       6.503  -5.169  28.520  0.00  0.00    -0.297 OA
ENDBRANCH  20  21
ENDBRANCH   2  20
TORSDOF 6
ENDMDL
MODEL 5
REMARK VINA RESULT:      -5.9      3.024      4.529
REMARK  Name = 
REMARK  6 active torsions:
REMARK  status: ('A' for Active; 'I' for Inactive)
REMARK    1  A    between atoms: N_1  and  C_2
REMARK    2  A    between atoms: C_2  and  C_3
REMARK    3  A    between atoms: C_6  and  C_7
REMARK    4  A    between atoms: C_10  and  O_11
REMARK    5  A    between atoms: N_16  and  C_17
REMARK    6  A    between atoms: C_17  and  C_18
REMARK                            x       y       z     vdW  Elec       q    Type
REMARK                         _______ _______ _______ _____ _____    ______ ____
ROOT
ATOM      1  C   UNL     1       9.264  -0.992  25.232  0.00  0.00    +0.311 C 
ATOM      2  N   UNL     1       9.524  -1.887  24.256  0.00  0.00    -0.146 N 
ATOM      3  C   UNL     1      10.042  -1.208  23.188  0.00  0.00    +0.379 C 
ATOM      4  O   UNL     1      10.428  -1.637  22.116  0.00  0.00    -0.237 OA
ATOM      5  C   UNL     1       9.995   0.208  23.653  0.00  0.00    +0.263 C 
ATOM      6  C   UNL     1      10.251   1.253  22.852  0.00  0.00    +0.071 C 
ATOM      7  N   UNL     1       9.539   0.245  24.951  0.00  0.00    -0.037 NA
ENDROOT
BRANCH   6   8
ATOM      8  C   UNL     1       9.994   2.663  23.202  0.00  0.00    -0.020 A 
ATOM      9  C   UNL     1      11.088   3.504  23.453  0.00  0.00    +0.011 A 
ATOM     10  C   UNL     1      10.899   4.873  23.671  0.00  0.00    +0.046 A 
ATOM     11  C   UNL     1       9.617   5.404  23.645  0.00  0.00    +0.117 A 
ATOM     12  C   UNL     1       8.513   4.584  23.452  0.00  0.00    +0.046 A 
ATOM     13  C   UNL     1       8.706   3.214  23.252  0.00  0.00    +0.011 A 
BRANCH  11  14
ATOM     14  O   UNL     1       9.478   6.751  23.800  0.00  0.00    -0.507 OA
ATOM     15  H   UNL     1       8.535   6.971  23.723  0.00  0.00    +0.292 HD
ENDBRANCH  11  14
ENDBRANCH   6   8
BRANCH   1  16
ATOM     16  C   UNL     1       8.693  -1.384  26.579  0.00  0.00    +0.208 C 
BRANCH  16  17
ATOM     17  N   UNL     1       9.100  -0.408  27.599  0.00  0.00    -0.320 NA
ATOM     18  H   UNL     1       8.442  -0.464  28.379  0.00  0.00    +0.119 HD
ATOM     19  H   UNL     1       9.998  -0.706  27.985  0.00  0.00    +0.119 HD
ENDBRANCH  16  17
ENDBRANCH   1  16
BRANCH   2  20
ATOM     20  C   UNL     1       9.229  -3.304  24.233  0.00  0.00    +0.306 C 
BRANCH  20  21
ATOM     21  C   UNL     1       7.866  -3.550  23.616  0.00  0.00    +0.267 C 
ATOM     22  O   UNL     1       7.670  -3.898  22.456  0.00  0.00    -0.297 OA
ENDBRANCH  20  21
ENDBRANCH   2  20
TORSDOF 6
ENDMDL
MODEL 6
REMARK VINA RESULT:      -5.9      2.188      6.480
REMARK  Name = 
REMARK  6 active torsions:
REMARK  status: ('A' for Active; 'I' for Inactive)
REMARK    1  A    between atoms: N_1  and  C_2
REMARK    2  A    between atoms: C_2  and  C_3
REMARK    3  A    between atoms: C_6  and  C_7
REMARK    4  A    between atoms: C_10  and  O_11
REMARK    5  A    between atoms: N_16  and  C_17
REMARK    6  A    between atoms: C_17  and  C_18
REMARK                            x       y       z     vdW  Elec       q    Type
REMARK                         _______ _______ _______ _____ _____    ______ ____
ROOT
ATOM      1  C   UNL     1       7.818   0.408  23.814  0.00  0.00    +0.311 C 
ATOM      2  N   UNL     1       8.452   0.606  22.639  0.00  0.00    -0.146 N 
ATOM      3  C   UNL     1       8.765  -0.617  22.116  0.00  0.00    +0.379 C 
ATOM      4  O   UNL     1       9.318  -0.888  21.066  0.00  0.00    -0.237 OA
ATOM      5  C   UNL     1       8.279  -1.553  23.171  0.00  0.00    +0.263 C 
ATOM      6  C   UNL     1       8.534  -2.870  23.159  0.00  0.00    +0.071 C 
ATOM      7  N   UNL     1       7.664  -0.831  24.169  0.00  0.00    -0.037 NA
ENDROOT
BRANCH   6   8
ATOM      8  C   UNL     1       8.276  -3.785  24.287  0.00  0.00    -0.020 A 
ATOM      9  C   UNL     1       9.319  -4.062  25.182  0.00  0.00    +0.011 A 
ATOM     10  C   UNL     1       9.089  -4.826  26.331  0.00  0.00    +0.046 A 
ATOM     11  C   UNL     1       7.818  -5.322  26.586  0.00  0.00    +0.117 A 
ATOM     12  C   UNL     1       6.780  -5.107  25.688  0.00  0.00    +0.046 A 
ATOM     13  C   UNL     1       7.019  -4.357  24.533  0.00  0.00    +0.011 A 
BRANCH  11  14
ATOM     14  O   UNL     1       7.618  -6.009  27.745  0.00  0.00    -0.507 OA
ATOM     15  H   UNL     1       6.662  -6.109  27.880  0.00  0.00    +0.292 HD
ENDBRANCH  11  14
ENDBRANCH   6   8
BRANCH   1  16
ATOM     16  C   UNL     1       7.305   1.542  24.676  0.00  0.00    +0.208 C 
BRANCH  16  17
ATOM     17  N   UNL     1       8.343   1.958  25.628  0.00  0.00    -0.320 NA
ATOM     18  H   UNL     1       7.885   2.295  26.477  0.00  0.00    +0.119 HD
ATOM     19  H   UNL     1       8.863   1.128  25.916  0.00  0.00    +0.119 HD
ENDBRANCH  16  17
ENDBRANCH   1  16
BRANCH   2  20
ATOM     20  C   UNL     1       8.859   1.858  22.037  0.00  0.00    +0.306 C 
BRANCH  20  21
ATOM     21  C   UNL     1      10.265   2.222  22.475  0.00  0.00    +0.267 C 
ATOM     22  O   UNL     1      10.576   2.604  23.598  0.00  0.00    -0.297 OA
ENDBRANCH  20  21
ENDBRANCH   2  20
TORSDOF 6
ENDMDL
MODEL 7
REMARK VINA RESULT:      -5.8      3.045      6.301
REMARK  Name = 
REMARK  6 active torsions:
REMARK  status: ('A' for Active; 'I' for Inactive)
REMARK    1  A    between atoms: N_1  and  C_2
REMARK    2  A    between atoms: C_2  and  C_3
REMARK    3  A    between atoms: C_6  and  C_7
REMARK    4  A    between atoms: C_10  and  O_11
REMARK    5  A    between atoms: N_16  and  C_17
REMARK    6  A    between atoms: C_17  and  C_18
REMARK                            x       y       z     vdW  Elec       q    Type
REMARK                         _______ _______ _______ _____ _____    ______ ____
ROOT
ATOM      1  C   UNL     1       9.404  -0.258  22.924  0.00  0.00    +0.311 C 
ATOM      2  N   UNL     1       9.582   0.282  24.148  0.00  0.00    -0.146 N 
ATOM      3  C   UNL     1       9.152  -0.624  25.076  0.00  0.00    +0.379 C 
ATOM      4  O   UNL     1       9.154  -0.544  26.291  0.00  0.00    -0.237 OA
ATOM      5  C   UNL     1       8.648  -1.742  24.226  0.00  0.00    +0.263 C 
ATOM      6  C   UNL     1       7.969  -2.789  24.717  0.00  0.00    +0.071 C 
ATOM      7  N   UNL     1       8.886  -1.448  22.903  0.00  0.00    -0.037 NA
ENDROOT
BRANCH   6   8
ATOM      8  C   UNL     1       7.259  -3.789  23.897  0.00  0.00    -0.020 A 
ATOM      9  C   UNL     1       5.918  -3.553  23.560  0.00  0.00    +0.011 A 
ATOM     10  C   UNL     1       5.241  -4.410  22.686  0.00  0.00    +0.046 A 
ATOM     11  C   UNL     1       5.899  -5.509  22.151  0.00  0.00    +0.117 A 
ATOM     12  C   UNL     1       7.210  -5.794  22.511  0.00  0.00    +0.046 A 
ATOM     13  C   UNL     1       7.877  -4.944  23.397  0.00  0.00    +0.011 A 
BRANCH  11  14
ATOM     14  O   UNL     1       5.227  -6.286  21.257  0.00  0.00    -0.507 OA
ATOM     15  H   UNL     1       5.246  -5.843  20.393  0.00  0.00    +0.292 HD
ENDBRANCH  11  14
ENDBRANCH   6   8
BRANCH   1  16
ATOM     16  C   UNL     1       9.785   0.456  21.644  0.00  0.00    +0.208 C 
BRANCH  16  17
ATOM     17  N   UNL     1       8.664   1.283  21.178  0.00  0.00    -0.320 NA
ATOM     18  H   UNL     1       8.854   1.572  20.217  0.00  0.00    +0.119 HD
ATOM     19  H   UNL     1       7.834   0.692  21.120  0.00  0.00    +0.119 HD
ENDBRANCH  16  17
ENDBRANCH   1  16
BRANCH   2  20
ATOM     20  C   UNL     1      10.033   1.615  24.485  0.00  0.00    +0.306 C 
BRANCH  20  21
ATOM     21  C   UNL     1       8.850   2.551  24.635  0.00  0.00    +0.267 C 
ATOM     22  O   UNL     1       7.908   2.628  23.852  0.00  0.00    -0.297 OA
ENDBRANCH  20  21
ENDBRANCH   2  20
TORSDOF 6
ENDMDL
MODEL 8
REMARK VINA RESULT:      -5.8      2.923      6.307
REMARK  Name = 
REMARK  6 active torsions:
REMARK  status: ('A' for Active; 'I' for Inactive)
REMARK    1  A    between atoms: N_1  and  C_2
REMARK    2  A    between atoms: C_2  and  C_3
REMARK    3  A    between atoms: C_6  and  C_7
REMARK    4  A    between atoms: C_10  and  O_11
REMARK    5  A    between atoms: N_16  and  C_17
REMARK    6  A    between atoms: C_17  and  C_18
REMARK                            x       y       z     vdW  Elec       q    Type
REMARK                         _______ _______ _______ _____ _____    ______ ____
ROOT
ATOM      1  C   UNL     1       8.809  -1.104  24.880  0.00  0.00    +0.311 C 
ATOM      2  N   UNL     1       9.585  -0.462  23.981  0.00  0.00    -0.146 N 
ATOM      3  C   UNL     1       9.197  -0.855  22.731  0.00  0.00    +0.379 C 
ATOM      4  O   UNL     1       9.622  -0.502  21.646  0.00  0.00    -0.237 OA
ATOM      5  C   UNL     1       8.129  -1.855  23.024  0.00  0.00    +0.263 C 
ATOM      6  C   UNL     1       7.576  -2.635  22.083  0.00  0.00    +0.071 C 
ATOM      7  N   UNL     1       7.923  -1.914  24.383  0.00  0.00    -0.037 NA
ENDROOT
BRANCH   6   8
ATOM      8  C   UNL     1       6.694  -3.785  22.359  0.00  0.00    -0.020 A 
ATOM      9  C   UNL     1       7.204  -5.081  22.190  0.00  0.00    +0.011 A 
ATOM     10  C   UNL     1       6.447  -6.199  22.553  0.00  0.00    +0.046 A 
ATOM     11  C   UNL     1       5.174  -6.027  23.081  0.00  0.00    +0.117 A 
ATOM     12  C   UNL     1       4.626  -4.758  23.209  0.00  0.00    +0.046 A 
ATOM     13  C   UNL     1       5.380  -3.644  22.829  0.00  0.00    +0.011 A 
BRANCH  11  14
ATOM     14  O   UNL     1       4.491  -7.136  23.480  0.00  0.00    -0.507 OA
ATOM     15  H   UNL     1       3.972  -6.907  24.269  0.00  0.00    +0.292 HD
ENDBRANCH  11  14
ENDBRANCH   6   8
BRANCH   1  16
ATOM     16  C   UNL     1       8.940  -0.904  26.375  0.00  0.00    +0.208 C 
BRANCH  16  17
ATOM     17  N   UNL     1       8.227   0.313  26.783  0.00  0.00    -0.320 NA
ATOM     18  H   UNL     1       8.368   0.450  27.785  0.00  0.00    +0.119 HD
ATOM     19  H   UNL     1       8.679   1.113  26.338  0.00  0.00    +0.119 HD
ENDBRANCH  16  17
ENDBRANCH   1  16
BRANCH   2  20
ATOM     20  C   UNL     1      10.713   0.410  24.229  0.00  0.00    +0.306 C 
BRANCH  20  21
ATOM     21  C   UNL     1      10.287   1.863  24.142  0.00  0.00    +0.267 C 
ATOM     22  O   UNL     1       9.266   2.328  24.639  0.00  0.00    -0.297 OA
ENDBRANCH  20  21
ENDBRANCH   2  20
TORSDOF 6
ENDMDL
MODEL 9
REMARK VINA RESULT:      -5.6      1.506      1.821
REMARK  Name = 
REMARK  6 active torsions:
REMARK  status: ('A' for Active; 'I' for Inactive)
REMARK    1  A    between atoms: N_1  and  C_2
REMARK    2  A    between atoms: C_2  and  C_3
REMARK    3  A    between atoms: C_6  and  C_7
REMARK    4  A    between atoms: C_10  and  O_11
REMARK    5  A    between atoms: N_16  and  C_17
REMARK    6  A    between atoms: C_17  and  C_18
REMARK                            x       y       z     vdW  Elec       q    Type
REMARK                         _______ _______ _______ _____ _____    ______ ____
ROOT
ATOM      1  C   UNL     1       7.145  -2.419  25.495  0.00  0.00    +0.311 C 
ATOM      2  N   UNL     1       7.883  -3.529  25.286  0.00  0.00    -0.146 N 
ATOM      3  C   UNL     1       9.064  -3.150  24.711  0.00  0.00    +0.379 C 
ATOM      4  O   UNL     1      10.015  -3.835  24.381  0.00  0.00    -0.237 OA
ATOM      5  C   UNL     1       8.891  -1.676  24.562  0.00  0.00    +0.263 C 
ATOM      6  C   UNL     1       9.747  -0.902  23.878  0.00  0.00    +0.071 C 
ATOM      7  N   UNL     1       7.688  -1.302  25.116  0.00  0.00    -0.037 NA
ENDROOT
BRANCH   6   8
ATOM      8  C   UNL     1       9.498   0.505  23.513  0.00  0.00    -0.020 A 
ATOM      9  C   UNL     1       8.890   0.783  22.280  0.00  0.00    +0.011 A 
ATOM     10  C   UNL     1       8.525   2.090  21.942  0.00  0.00    +0.046 A 
ATOM     11  C   UNL     1       8.772   3.126  22.833  0.00  0.00    +0.117 A 
ATOM     12  C   UNL     1       9.420   2.886  24.037  0.00  0.00    +0.046 A 
ATOM     13  C   UNL     1       9.798   1.580  24.363  0.00  0.00    +0.011 A 
BRANCH  11  14
ATOM     14  O   UNL     1       8.347   4.376  22.496  0.00  0.00    -0.507 OA
ATOM     15  H   UNL     1       8.558   4.977  23.229  0.00  0.00    +0.292 HD
ENDBRANCH  11  14
ENDBRANCH   6   8
BRANCH   1  16
ATOM     16  C   UNL     1       5.773  -2.448  26.135  0.00  0.00    +0.208 C 
BRANCH  16  17
ATOM     17  N   UNL     1       4.781  -1.865  25.222  0.00  0.00    -0.320 NA
ATOM     18  H   UNL     1       3.857  -2.211  25.486  0.00  0.00    +0.119 HD
ATOM     19  H   UNL     1       4.747  -0.858  25.389  0.00  0.00    +0.119 HD
ENDBRANCH  16  17
ENDBRANCH   1  16
BRANCH   2  20
ATOM     20  C   UNL     1       7.509  -4.911  25.502  0.00  0.00    +0.306 C 
BRANCH  20  21
ATOM     21  C   UNL     1       8.025  -5.394  26.843  0.00  0.00    +0.267 C 
ATOM     22  O   UNL     1       7.322  -5.797  27.765  0.00  0.00    -0.297 OA
ENDBRANCH  20  21
ENDBRANCH   2  20
TORSDOF 6
ENDMDL
