MODEL 1
REMARK VINA RESULT:      -6.9      0.000      0.000
REMARK  Name = 
REMARK  10 active torsions:
REMARK  status: ('A' for Active; 'I' for Inactive)
REMARK    1  A    between atoms: C_6  and  C_7
REMARK    2  A    between atoms: C_7  and  O_9
REMARK    3  A    between atoms: O_9  and  C_10
REMARK    4  A    between atoms: C_11  and  C_12
REMARK    5  A    between atoms: C_12  and  O_14
REMARK    6  A    between atoms: O_14  and  C_15
REMARK    7  A    between atoms: C_16  and  C_25
REMARK    8  A    between atoms: C_17  and  C_18
REMARK    9  A    between atoms: C_21  and  O_22
REMARK   10  A    between atoms: C_28  and  O_29
REMARK                            x       y       z     vdW  Elec       q    Type
REMARK                         _______ _______ _______ _____ _____    ______ ____
ROOT
ATOM      1  C   UNL     1       9.280  -3.925  24.717  0.00  0.00    +0.188 C 
ATOM      2  C   UNL     1       8.922  -2.460  24.920  0.00  0.00    -0.001 C 
ATOM      3  C   UNL     1       8.083  -2.454  25.988  0.00  0.00    -0.001 C 
ATOM      4  C   UNL     1       7.934  -3.892  26.427  0.00  0.00    +0.188 C 
ATOM      5  C   UNL     1       7.233  -4.686  25.365  0.00  0.00    +0.082 C 
ATOM      6  C   UNL     1       8.062  -4.703  24.304  0.00  0.00    +0.082 C 
ATOM      7  O   UNL     1       9.303  -4.327  26.132  0.00  0.00    -0.354 OA
ENDROOT
BRANCH   2   8
ATOM      8  C   UNL     1       9.303  -1.376  24.007  0.00  0.00    -0.018 A 
ATOM      9  C   UNL     1       8.795  -1.313  22.703  0.00  0.00    +0.012 A 
ATOM     10  C   UNL     1       9.067  -0.211  21.881  0.00  0.00    +0.046 A 
ATOM     11  C   UNL     1       9.851   0.831  22.356  0.00  0.00    +0.117 A 
ATOM     12  C   UNL     1      10.422   0.763  23.615  0.00  0.00    +0.046 A 
ATOM     13  C   UNL     1      10.162  -0.346  24.421  0.00  0.00    +0.012 A 
BRANCH  11  14
ATOM     14  O   UNL     1      10.033   1.919  21.558  0.00  0.00    -0.507 OA
ATOM     15  H   UNL     1      10.845   2.372  21.842  0.00  0.00    +0.292 HD
ENDBRANCH  11  14
ENDBRANCH   2   8
BRANCH   3  16
ATOM     16  C   UNL     1       7.307  -1.364  26.557  0.00  0.00    -0.018 A 
ATOM     17  C   UNL     1       7.941  -0.371  27.314  0.00  0.00    +0.012 A 
ATOM     18  C   UNL     1       7.246   0.783  27.678  0.00  0.00    +0.046 A 
ATOM     19  C   UNL     1       5.912   0.927  27.314  0.00  0.00    +0.117 A 
ATOM     20  C   UNL     1       5.249  -0.079  26.619  0.00  0.00    +0.046 A 
ATOM     21  C   UNL     1       5.951  -1.225  26.235  0.00  0.00    +0.012 A 
BRANCH  19  22
ATOM     22  O   UNL     1       5.288   2.094  27.638  0.00  0.00    -0.507 OA
ATOM     23  H   UNL     1       5.444   2.737  26.927  0.00  0.00    +0.292 HD
ENDBRANCH  19  22
ENDBRANCH   3  16
BRANCH   5  24
ATOM     24  C   UNL     1       5.917  -5.282  25.530  0.00  0.00    +0.338 C 
ATOM     25  O   UNL     1       4.899  -4.889  24.987  0.00  0.00    -0.245 OA
BRANCH  24  26
ATOM     26  O   UNL     1       6.017  -6.351  26.359  0.00  0.00    -0.465 OA
ATOM     27  C   UNL     1       4.782  -6.714  26.979  0.00  0.00    +0.280 C 
ENDBRANCH  24  26
ENDBRANCH   5  24
BRANCH   6  28
ATOM     28  C   UNL     1       7.845  -5.252  22.975  0.00  0.00    +0.338 C 
ATOM     29  O   UNL     1       8.248  -6.342  22.605  0.00  0.00    -0.245 OA
BRANCH  28  30
ATOM     30  O   UNL     1       7.085  -4.397  22.247  0.00  0.00    -0.465 OA
ATOM     31  C   UNL     1       6.042  -5.044  21.513  0.00  0.00    +0.280 C 
ENDBRANCH  28  30
ENDBRANCH   6  28
TORSDOF 8
ENDMDL
MODEL 2
REMARK VINA RESULT:      -6.6      1.485      4.924
REMARK  Name = 
REMARK  10 active torsions:
REMARK  status: ('A' for Active; 'I' for Inactive)
REMARK    1  A    between atoms: C_6  and  C_7
REMARK    2  A    between atoms: C_7  and  O_9
REMARK    3  A    between atoms: O_9  and  C_10
REMARK    4  A    between atoms: C_11  and  C_12
REMARK    5  A    between atoms: C_12  and  O_14
REMARK    6  A    between atoms: O_14  and  C_15
REMARK    7  A    between atoms: C_16  and  C_25
REMARK    8  A    between atoms: C_17  and  C_18
REMARK    9  A    between atoms: C_21  and  O_22
REMARK   10  A    between atoms: C_28  and  O_29
REMARK                            x       y       z     vdW  Elec       q    Type
REMARK                         _______ _______ _______ _____ _____    ______ ____
ROOT
ATOM      1  C   UNL     1       5.351  -2.817  25.243  0.00  0.00    +0.188 C 
ATOM      2  C   UNL     1       6.070  -1.498  24.994  0.00  0.00    -0.001 C 
ATOM      3  C   UNL     1       6.502  -1.577  23.710  0.00  0.00    -0.001 C 
ATOM      4  C   UNL     1       6.052  -2.920  23.185  0.00  0.00    +0.188 C 
ATOM      5  C   UNL     1       6.758  -4.023  23.918  0.00  0.00    +0.082 C 
ATOM      6  C   UNL     1       6.329  -3.956  25.193  0.00  0.00    +0.082 C 
ATOM      7  O   UNL     1       4.774  -2.989  23.901  0.00  0.00    -0.354 OA
ENDROOT
BRANCH   2   8
ATOM      8  C   UNL     1       6.344  -0.492  26.027  0.00  0.00    -0.018 A 
ATOM      9  C   UNL     1       7.414  -0.641  26.920  0.00  0.00    +0.012 A 
ATOM     10  C   UNL     1       7.742   0.380  27.821  0.00  0.00    +0.046 A 
ATOM     11  C   UNL     1       7.001   1.554  27.839  0.00  0.00    +0.117 A 
ATOM     12  C   UNL     1       5.896   1.700  27.016  0.00  0.00    +0.046 A 
ATOM     13  C   UNL     1       5.565   0.670  26.134  0.00  0.00    +0.012 A 
BRANCH  11  14
ATOM     14  O   UNL     1       7.392   2.554  28.674  0.00  0.00    -0.507 OA
ATOM     15  H   UNL     1       7.643   2.159  29.526  0.00  0.00    +0.292 HD
ENDBRANCH  11  14
ENDBRANCH   2   8
BRANCH   3  16
ATOM     16  C   UNL     1       7.368  -0.680  22.961  0.00  0.00    -0.018 A 
ATOM     17  C   UNL     1       6.975   0.644  22.728  0.00  0.00    +0.012 A 
ATOM     18  C   UNL     1       7.885   1.562  22.203  0.00  0.00    +0.046 A 
ATOM     19  C   UNL     1       9.173   1.149  21.884  0.00  0.00    +0.117 A 
ATOM     20  C   UNL     1       9.560  -0.177  22.049  0.00  0.00    +0.046 A 
ATOM     21  C   UNL     1       8.655  -1.092  22.594  0.00  0.00    +0.012 A 
BRANCH  19  22
ATOM     22  O   UNL     1      10.048   2.091  21.431  0.00  0.00    -0.507 OA
ATOM     23  H   UNL     1       9.574   2.934  21.334  0.00  0.00    +0.292 HD
ENDBRANCH  19  22
ENDBRANCH   3  16
BRANCH   5  24
ATOM     24  C   UNL     1       7.706  -4.936  23.299  0.00  0.00    +0.338 C 
ATOM     25  O   UNL     1       8.684  -5.408  23.852  0.00  0.00    -0.245 OA
BRANCH  24  26
ATOM     26  O   UNL     1       7.309  -5.190  22.027  0.00  0.00    -0.465 OA
ATOM     27  C   UNL     1       6.497  -6.359  21.901  0.00  0.00    +0.280 C 
ENDBRANCH  24  26
ENDBRANCH   5  24
BRANCH   6  28
ATOM     28  C   UNL     1       6.757  -4.728  26.349  0.00  0.00    +0.338 C 
ATOM     29  O   UNL     1       7.320  -4.257  27.323  0.00  0.00    -0.245 OA
BRANCH  28  30
ATOM     30  O   UNL     1       6.382  -6.022  26.198  0.00  0.00    -0.465 OA
ATOM     31  C   UNL     1       5.128  -6.329  26.812  0.00  0.00    +0.280 C 
ENDBRANCH  28  30
ENDBRANCH   6  28
TORSDOF 8
ENDMDL
MODEL 3
REMARK VINA RESULT:      -6.5      1.429      1.927
REMARK  Name = 
REMARK  10 active torsions:
REMARK  status: ('A' for Active; 'I' for Inactive)
REMARK    1  A    between atoms: C_6  and  C_7
REMARK    2  A    between atoms: C_7  and  O_9
REMARK    3  A    between atoms: O_9  and  C_10
REMARK    4  A    between atoms: C_11  and  C_12
REMARK    5  A    between atoms: C_12  and  O_14
REMARK    6  A    between atoms: O_14  and  C_15
REMARK    7  A    between atoms: C_16  and  C_25
REMARK    8  A    between atoms: C_17  and  C_18
REMARK    9  A    between atoms: C_21  and  O_22
REMARK   10  A    between atoms: C_28  and  O_29
REMARK                            x       y       z     vdW  Elec       q    Type
REMARK                         _______ _______ _______ _____ _____    ______ ____
ROOT
ATOM      1  C   UNL     1       8.092  -3.370  23.918  0.00  0.00    +0.188 C 
ATOM      2  C   UNL     1       8.162  -1.913  24.352  0.00  0.00    -0.001 C 
ATOM      3  C   UNL     1       7.351  -1.835  25.437  0.00  0.00    -0.001 C 
ATOM      4  C   UNL     1       6.796  -3.223  25.661  0.00  0.00    +0.188 C 
ATOM      5  C   UNL     1       5.907  -3.613  24.517  0.00  0.00    +0.082 C 
ATOM      6  C   UNL     1       6.706  -3.699  23.436  0.00  0.00    +0.082 C 
ATOM      7  O   UNL     1       7.988  -3.975  25.255  0.00  0.00    -0.354 OA
ENDROOT
BRANCH   2   8
ATOM      8  C   UNL     1       8.843  -0.852  23.599  0.00  0.00    -0.018 A 
ATOM      9  C   UNL     1       8.651  -0.704  22.218  0.00  0.00    +0.012 A 
ATOM     10  C   UNL     1       9.207   0.383  21.531  0.00  0.00    +0.046 A 
ATOM     11  C   UNL     1       9.961   1.325  22.217  0.00  0.00    +0.117 A 
ATOM     12  C   UNL     1      10.223   1.167  23.568  0.00  0.00    +0.046 A 
ATOM     13  C   UNL     1       9.681   0.071  24.241  0.00  0.00    +0.012 A 
BRANCH  11  14
ATOM     14  O   UNL     1      10.423   2.407  21.533  0.00  0.00    -0.507 OA
ATOM     15  H   UNL     1       9.699   3.051  21.456  0.00  0.00    +0.292 HD
ENDBRANCH  11  14
ENDBRANCH   2   8
BRANCH   3  16
ATOM     16  C   UNL     1       6.911  -0.672  26.192  0.00  0.00    -0.018 A 
ATOM     17  C   UNL     1       5.672  -0.082  25.915  0.00  0.00    +0.012 A 
ATOM     18  C   UNL     1       5.153   0.891  26.770  0.00  0.00    +0.046 A 
ATOM     19  C   UNL     1       5.887   1.294  27.879  0.00  0.00    +0.117 A 
ATOM     20  C   UNL     1       7.148   0.765  28.132  0.00  0.00    +0.046 A 
ATOM     21  C   UNL     1       7.659  -0.225  27.288  0.00  0.00    +0.012 A 
BRANCH  19  22
ATOM     22  O   UNL     1       5.318   2.203  28.721  0.00  0.00    -0.507 OA
ATOM     23  H   UNL     1       5.217   3.045  28.246  0.00  0.00    +0.292 HD
ENDBRANCH  19  22
ENDBRANCH   3  16
BRANCH   5  24
ATOM     24  C   UNL     1       4.475  -3.833  24.637  0.00  0.00    +0.338 C 
ATOM     25  O   UNL     1       3.653  -2.966  24.876  0.00  0.00    -0.245 OA
BRANCH  24  26
ATOM     26  O   UNL     1       4.209  -5.145  24.418  0.00  0.00    -0.465 OA
ATOM     27  C   UNL     1       3.198  -5.370  23.434  0.00  0.00    +0.280 C 
ENDBRANCH  24  26
ENDBRANCH   5  24
BRANCH   6  28
ATOM     28  C   UNL     1       6.353  -3.953  22.048  0.00  0.00    +0.338 C 
ATOM     29  O   UNL     1       5.555  -3.290  21.407  0.00  0.00    -0.245 OA
BRANCH  28  30
ATOM     30  O   UNL     1       7.085  -4.991  21.574  0.00  0.00    -0.465 OA
ATOM     31  C   UNL     1       6.562  -6.272  21.935  0.00  0.00    +0.280 C 
ENDBRANCH  28  30
ENDBRANCH   6  28
TORSDOF 8
ENDMDL
MODEL 4
REMARK VINA RESULT:      -6.4      2.082      7.017
REMARK  Name = 
REMARK  10 active torsions:
REMARK  status: ('A' for Active; 'I' for Inactive)
REMARK    1  A    between atoms: C_6  and  C_7
REMARK    2  A    between atoms: C_7  and  O_9
REMARK    3  A    between atoms: O_9  and  C_10
REMARK    4  A    between atoms: C_11  and  C_12
REMARK    5  A    between atoms: C_12  and  O_14
REMARK    6  A    between atoms: O_14  and  C_15
REMARK    7  A    between atoms: C_16  and  C_25
REMARK    8  A    between atoms: C_17  and  C_18
REMARK    9  A    between atoms: C_21  and  O_22
REMARK   10  A    between atoms: C_28  and  O_29
REMARK                            x       y       z     vdW  Elec       q    Type
REMARK                         _______ _______ _______ _____ _____    ______ ____
ROOT
ATOM      1  C   UNL     1       8.898  -0.960  25.580  0.00  0.00    +0.188 C 
ATOM      2  C   UNL     1       8.088  -2.216  25.290  0.00  0.00    -0.001 C 
ATOM      3  C   UNL     1       8.272  -2.447  23.965  0.00  0.00    -0.001 C 
ATOM      4  C   UNL     1       9.180  -1.351  23.457  0.00  0.00    +0.188 C 
ATOM      5  C   UNL     1       8.485  -0.025  23.544  0.00  0.00    +0.082 C 
ATOM      6  C   UNL     1       8.304   0.217  24.857  0.00  0.00    +0.082 C 
ATOM      7  O   UNL     1      10.013  -1.220  24.656  0.00  0.00    -0.354 OA
ENDROOT
BRANCH   2   8
ATOM      8  C   UNL     1       7.191  -2.868  26.251  0.00  0.00    -0.018 A 
ATOM      9  C   UNL     1       6.003  -2.253  26.668  0.00  0.00    +0.012 A 
ATOM     10  C   UNL     1       5.095  -2.934  27.490  0.00  0.00    +0.046 A 
ATOM     11  C   UNL     1       5.370  -4.230  27.903  0.00  0.00    +0.117 A 
ATOM     12  C   UNL     1       6.568  -4.836  27.562  0.00  0.00    +0.046 A 
ATOM     13  C   UNL     1       7.475  -4.145  26.759  0.00  0.00    +0.012 A 
BRANCH  11  14
ATOM     14  O   UNL     1       4.433  -4.888  28.638  0.00  0.00    -0.507 OA
ATOM     15  H   UNL     1       3.589  -4.854  28.156  0.00  0.00    +0.292 HD
ENDBRANCH  11  14
ENDBRANCH   2   8
BRANCH   3  16
ATOM     16  C   UNL     1       7.636  -3.422  23.092  0.00  0.00    -0.018 A 
ATOM     17  C   UNL     1       7.915  -4.785  23.241  0.00  0.00    +0.012 A 
ATOM     18  C   UNL     1       7.154  -5.735  22.558  0.00  0.00    +0.046 A 
ATOM     19  C   UNL     1       6.138  -5.318  21.705  0.00  0.00    +0.117 A 
ATOM     20  C   UNL     1       5.891  -3.965  21.496  0.00  0.00    +0.046 A 
ATOM     21  C   UNL     1       6.640  -3.015  22.196  0.00  0.00    +0.012 A 
BRANCH  19  22
ATOM     22  O   UNL     1       5.380  -6.278  21.104  0.00  0.00    -0.507 OA
ATOM     23  H   UNL     1       4.907  -5.877  20.356  0.00  0.00    +0.292 HD
ENDBRANCH  19  22
ENDBRANCH   3  16
BRANCH   5  24
ATOM     24  C   UNL     1       8.111   0.777  22.389  0.00  0.00    +0.338 C 
ATOM     25  O   UNL     1       6.996   1.219  22.177  0.00  0.00    -0.245 OA
BRANCH  24  26
ATOM     26  O   UNL     1       9.206   0.967  21.611  0.00  0.00    -0.465 OA
ATOM     27  C   UNL     1      10.109   1.950  22.120  0.00  0.00    +0.280 C 
ENDBRANCH  24  26
ENDBRANCH   5  24
BRANCH   6  28
ATOM     28  C   UNL     1       7.602   1.314  25.504  0.00  0.00    +0.338 C 
ATOM     29  O   UNL     1       6.540   1.202  26.092  0.00  0.00    -0.245 OA
BRANCH  28  30
ATOM     30  O   UNL     1       8.336   2.449  25.398  0.00  0.00    -0.465 OA
ATOM     31  C   UNL     1       7.578   3.582  24.966  0.00  0.00    +0.280 C 
ENDBRANCH  28  30
ENDBRANCH   6  28
TORSDOF 8
ENDMDL
MODEL 5
REMARK VINA RESULT:      -6.2      1.844      5.473
REMARK  Name = 
REMARK  10 active torsions:
REMARK  status: ('A' for Active; 'I' for Inactive)
REMARK    1  A    between atoms: C_6  and  C_7
REMARK    2  A    between atoms: C_7  and  O_9
REMARK    3  A    between atoms: O_9  and  C_10
REMARK    4  A    between atoms: C_11  and  C_12
REMARK    5  A    between atoms: C_12  and  O_14
REMARK    6  A    between atoms: O_14  and  C_15
REMARK    7  A    between atoms: C_16  and  C_25
REMARK    8  A    between atoms: C_17  and  C_18
REMARK    9  A    between atoms: C_21  and  O_22
REMARK   10  A    between atoms: C_28  and  O_29
REMARK                            x       y       z     vdW  Elec       q    Type
REMARK                         _______ _______ _______ _____ _____    ______ ____
ROOT
ATOM      1  C   UNL     1       7.114  -3.440  26.207  0.00  0.00    +0.188 C 
ATOM      2  C   UNL     1       7.443  -3.055  24.771  0.00  0.00    -0.001 C 
ATOM      3  C   UNL     1       8.074  -1.857  24.871  0.00  0.00    -0.001 C 
ATOM      4  C   UNL     1       8.128  -1.519  26.342  0.00  0.00    +0.188 C 
ATOM      5  C   UNL     1       6.742  -1.293  26.871  0.00  0.00    +0.082 C 
ATOM      6  C   UNL     1       6.111  -2.479  26.782  0.00  0.00    +0.082 C 
ATOM      7  O   UNL     1       8.315  -2.883  26.847  0.00  0.00    -0.354 OA
ENDROOT
BRANCH   2   8
ATOM      8  C   UNL     1       6.986  -3.791  23.586  0.00  0.00    -0.018 A 
ATOM      9  C   UNL     1       6.052  -3.234  22.702  0.00  0.00    +0.012 A 
ATOM     10  C   UNL     1       5.714  -3.891  21.512  0.00  0.00    +0.046 A 
ATOM     11  C   UNL     1       6.303  -5.108  21.199  0.00  0.00    +0.117 A 
ATOM     12  C   UNL     1       7.177  -5.713  22.087  0.00  0.00    +0.046 A 
ATOM     13  C   UNL     1       7.494  -5.062  23.279  0.00  0.00    +0.012 A 
BRANCH  11  14
ATOM     14  O   UNL     1       6.008  -5.681  20.001  0.00  0.00    -0.507 OA
ATOM     15  H   UNL     1       6.783  -5.590  19.421  0.00  0.00    +0.292 HD
ENDBRANCH  11  14
ENDBRANCH   2   8
BRANCH   3  16
ATOM     16  C   UNL     1       8.495  -0.936  23.827  0.00  0.00    -0.018 A 
ATOM     17  C   UNL     1       7.597   0.015  23.325  0.00  0.00    +0.012 A 
ATOM     18  C   UNL     1       8.052   1.033  22.486  0.00  0.00    +0.046 A 
ATOM     19  C   UNL     1       9.394   1.080  22.126  0.00  0.00    +0.117 A 
ATOM     20  C   UNL     1      10.285   0.105  22.563  0.00  0.00    +0.046 A 
ATOM     21  C   UNL     1       9.834  -0.902  23.420  0.00  0.00    +0.012 A 
BRANCH  19  22
ATOM     22  O   UNL     1       9.808   2.124  21.354  0.00  0.00    -0.507 OA
ATOM     23  H   UNL     1      10.536   2.577  21.810  0.00  0.00    +0.292 HD
ENDBRANCH  19  22
ENDBRANCH   3  16
BRANCH   5  24
ATOM     24  C   UNL     1       6.256  -0.012  27.359  0.00  0.00    +0.338 C 
ATOM     25  O   UNL     1       5.940   0.221  28.513  0.00  0.00    -0.245 OA
BRANCH  24  26
ATOM     26  O   UNL     1       6.236   0.873  26.333  0.00  0.00    -0.465 OA
ATOM     27  C   UNL     1       7.066   2.017  26.544  0.00  0.00    +0.280 C 
ENDBRANCH  24  26
ENDBRANCH   5  24
BRANCH   6  28
ATOM     28  C   UNL     1       4.724  -2.808  27.070  0.00  0.00    +0.338 C 
ATOM     29  O   UNL     1       4.342  -3.353  28.092  0.00  0.00    -0.245 OA
BRANCH  28  30
ATOM     30  O   UNL     1       3.932  -2.365  26.063  0.00  0.00    -0.465 OA
ATOM     31  C   UNL     1       3.409  -3.414  25.243  0.00  0.00    +0.280 C 
ENDBRANCH  28  30
ENDBRANCH   6  28
TORSDOF 8
ENDMDL
MODEL 6
REMARK VINA RESULT:      -6.2      3.606      7.315
REMARK  Name = 
REMARK  10 active torsions:
REMARK  status: ('A' for Active; 'I' for Inactive)
REMARK    1  A    between atoms: C_6  and  C_7
REMARK    2  A    between atoms: C_7  and  O_9
REMARK    3  A    between atoms: O_9  and  C_10
REMARK    4  A    between atoms: C_11  and  C_12
REMARK    5  A    between atoms: C_12  and  O_14
REMARK    6  A    between atoms: O_14  and  C_15
REMARK    7  A    between atoms: C_16  and  C_25
REMARK    8  A    between atoms: C_17  and  C_18
REMARK    9  A    between atoms: C_21  and  O_22
REMARK   10  A    between atoms: C_28  and  O_29
REMARK                            x       y       z     vdW  Elec       q    Type
REMARK                         _______ _______ _______ _____ _____    ______ ____
ROOT
ATOM      1  C   UNL     1       6.848   4.300  23.049  0.00  0.00    +0.188 C 
ATOM      2  C   UNL     1       8.184   3.572  23.081  0.00  0.00    -0.001 C 
ATOM      3  C   UNL     1       7.872   2.267  22.871  0.00  0.00    -0.001 C 
ATOM      4  C   UNL     1       6.371   2.203  22.713  0.00  0.00    +0.188 C 
ATOM      5  C   UNL     1       5.701   2.578  24.002  0.00  0.00    +0.082 C 
ATOM      6  C   UNL     1       5.999   3.874  24.215  0.00  0.00    +0.082 C 
ATOM      7  O   UNL     1       6.195   3.481  22.016  0.00  0.00    -0.354 OA
ENDROOT
BRANCH   2   8
ATOM      8  C   UNL     1       9.463   4.195  23.442  0.00  0.00    -0.018 A 
ATOM      9  C   UNL     1      10.682   3.554  23.180  0.00  0.00    +0.012 A 
ATOM     10  C   UNL     1      11.898   4.208  23.416  0.00  0.00    +0.046 A 
ATOM     11  C   UNL     1      11.905   5.502  23.917  0.00  0.00    +0.117 A 
ATOM     12  C   UNL     1      10.718   6.133  24.249  0.00  0.00    +0.046 A 
ATOM     13  C   UNL     1       9.511   5.468  24.029  0.00  0.00    +0.012 A 
BRANCH  11  14
ATOM     14  O   UNL     1      13.102   6.133  24.063  0.00  0.00    -0.507 OA
ATOM     15  H   UNL     1      13.087   6.943  23.526  0.00  0.00    +0.292 HD
ENDBRANCH  11  14
ENDBRANCH   2   8
BRANCH   3  16
ATOM     16  C   UNL     1       8.717   1.085  22.935  0.00  0.00    -0.018 A 
ATOM     17  C   UNL     1       8.990   0.483  24.169  0.00  0.00    +0.012 A 
ATOM     18  C   UNL     1       9.615  -0.764  24.217  0.00  0.00    +0.046 A 
ATOM     19  C   UNL     1       9.994  -1.389  23.035  0.00  0.00    +0.117 A 
ATOM     20  C   UNL     1       9.789  -0.775  21.804  0.00  0.00    +0.046 A 
ATOM     21  C   UNL     1       9.143   0.464  21.755  0.00  0.00    +0.012 A 
BRANCH  19  22
ATOM     22  O   UNL     1      10.547  -2.632  23.123  0.00  0.00    -0.507 OA
ATOM     23  H   UNL     1      10.495  -3.058  22.252  0.00  0.00    +0.292 HD
ENDBRANCH  19  22
ENDBRANCH   3  16
BRANCH   5  24
ATOM     24  C   UNL     1       4.906   1.660  24.804  0.00  0.00    +0.338 C 
ATOM     25  O   UNL     1       3.871   1.951  25.377  0.00  0.00    -0.245 OA
BRANCH  24  26
ATOM     26  O   UNL     1       5.491   0.437  24.784  0.00  0.00    -0.465 OA
ATOM     27  C   UNL     1       5.963   0.005  26.062  0.00  0.00    +0.280 C 
ENDBRANCH  24  26
ENDBRANCH   5  24
BRANCH   6  28
ATOM     28  C   UNL     1       5.685   4.715  25.358  0.00  0.00    +0.338 C 
ATOM     29  O   UNL     1       4.570   5.137  25.618  0.00  0.00    -0.245 OA
BRANCH  28  30
ATOM     30  O   UNL     1       6.799   4.902  26.107  0.00  0.00    -0.465 OA
ATOM     31  C   UNL     1       6.976   3.914  27.125  0.00  0.00    +0.280 C 
ENDBRANCH  28  30
ENDBRANCH   6  28
TORSDOF 8
ENDMDL
MODEL 7
REMARK VINA RESULT:      -6.0      3.548      7.042
REMARK  Name = 
REMARK  10 active torsions:
REMARK  status: ('A' for Active; 'I' for Inactive)
REMARK    1  A    between atoms: C_6  and  C_7
REMARK    2  A    between atoms: C_7  and  O_9
REMARK    3  A    between atoms: O_9  and  C_10
REMARK    4  A    between atoms: C_11  and  C_12
REMARK    5  A    between atoms: C_12  and  O_14
REMARK    6  A    between atoms: O_14  and  C_15
REMARK    7  A    between atoms: C_16  and  C_25
REMARK    8  A    between atoms: C_17  and  C_18
REMARK    9  A    between atoms: C_21  and  O_22
REMARK   10  A    between atoms: C_28  and  O_29
REMARK                            x       y       z     vdW  Elec       q    Type
REMARK                         _______ _______ _______ _____ _____    ______ ____
ROOT
ATOM      1  C   UNL     1       6.645   1.755  22.825  0.00  0.00    +0.188 C 
ATOM      2  C   UNL     1       7.299   2.895  23.593  0.00  0.00    -0.001 C 
ATOM      3  C   UNL     1       8.527   3.031  23.031  0.00  0.00    -0.001 C 
ATOM      4  C   UNL     1       8.620   1.991  21.939  0.00  0.00    +0.188 C 
ATOM      5  C   UNL     1       8.596   0.615  22.535  0.00  0.00    +0.082 C 
ATOM      6  C   UNL     1       7.377   0.469  23.088  0.00  0.00    +0.082 C 
ATOM      7  O   UNL     1       7.221   2.045  21.502  0.00  0.00    -0.354 OA
ENDROOT
BRANCH   2   8
ATOM      8  C   UNL     1       6.723   3.535  24.782  0.00  0.00    -0.018 A 
ATOM      9  C   UNL     1       7.144   3.181  26.072  0.00  0.00    +0.012 A 
ATOM     10  C   UNL     1       6.679   3.881  27.193  0.00  0.00    +0.046 A 
ATOM     11  C   UNL     1       5.789   4.934  27.034  0.00  0.00    +0.117 A 
ATOM     12  C   UNL     1       5.305   5.260  25.778  0.00  0.00    +0.046 A 
ATOM     13  C   UNL     1       5.758   4.546  24.668  0.00  0.00    +0.012 A 
BRANCH  11  14
ATOM     14  O   UNL     1       5.417   5.639  28.136  0.00  0.00    -0.507 OA
ATOM     15  H   UNL     1       6.133   5.582  28.790  0.00  0.00    +0.292 HD
ENDBRANCH  11  14
ENDBRANCH   2   8
BRANCH   3  16
ATOM     16  C   UNL     1       9.651   3.861  23.437  0.00  0.00    -0.018 A 
ATOM     17  C   UNL     1      10.962   3.410  23.244  0.00  0.00    +0.012 A 
ATOM     18  C   UNL     1      12.037   4.281  23.430  0.00  0.00    +0.046 A 
ATOM     19  C   UNL     1      11.800   5.589  23.839  0.00  0.00    +0.117 A 
ATOM     20  C   UNL     1      10.507   6.033  24.098  0.00  0.00    +0.046 A 
ATOM     21  C   UNL     1       9.430   5.167  23.891  0.00  0.00    +0.012 A 
BRANCH  19  22
ATOM     22  O   UNL     1      12.871   6.423  23.951  0.00  0.00    -0.507 OA
ATOM     23  H   UNL     1      12.758   6.969  24.746  0.00  0.00    +0.292 HD
ENDBRANCH  19  22
ENDBRANCH   3  16
BRANCH   5  24
ATOM     24  C   UNL     1       9.714  -0.314  22.483  0.00  0.00    +0.338 C 
ATOM     25  O   UNL     1       9.748  -1.329  21.810  0.00  0.00    -0.245 OA
BRANCH  24  26
ATOM     26  O   UNL     1      10.709   0.147  23.281  0.00  0.00    -0.465 OA
ATOM     27  C   UNL     1      10.431   0.020  24.677  0.00  0.00    +0.280 C 
ENDBRANCH  24  26
ENDBRANCH   5  24
BRANCH   6  28
ATOM     28  C   UNL     1       6.850  -0.635  23.876  0.00  0.00    +0.338 C 
ATOM     29  O   UNL     1       6.480  -1.699  23.411  0.00  0.00    -0.245 OA
BRANCH  28  30
ATOM     30  O   UNL     1       6.891  -0.315  25.193  0.00  0.00    -0.465 OA
ATOM     31  C   UNL     1       5.600  -0.231  25.801  0.00  0.00    +0.280 C 
ENDBRANCH  28  30
ENDBRANCH   6  28
TORSDOF 8
ENDMDL
MODEL 8
REMARK VINA RESULT:      -5.9      4.062      6.823
REMARK  Name = 
REMARK  10 active torsions:
REMARK  status: ('A' for Active; 'I' for Inactive)
REMARK    1  A    between atoms: C_6  and  C_7
REMARK    2  A    between atoms: C_7  and  O_9
REMARK    3  A    between atoms: O_9  and  C_10
REMARK    4  A    between atoms: C_11  and  C_12
REMARK    5  A    between atoms: C_12  and  O_14
REMARK    6  A    between atoms: O_14  and  C_15
REMARK    7  A    between atoms: C_16  and  C_25
REMARK    8  A    between atoms: C_17  and  C_18
REMARK    9  A    between atoms: C_21  and  O_22
REMARK   10  A    between atoms: C_28  and  O_29
REMARK                            x       y       z     vdW  Elec       q    Type
REMARK                         _______ _______ _______ _____ _____    ______ ____
ROOT
ATOM      1  C   UNL     1       7.208   1.610  22.360  0.00  0.00    +0.188 C 
ATOM      2  C   UNL     1       7.687   2.987  22.795  0.00  0.00    -0.001 C 
ATOM      3  C   UNL     1       9.031   2.857  22.938  0.00  0.00    -0.001 C 
ATOM      4  C   UNL     1       9.365   1.424  22.595  0.00  0.00    +0.188 C 
ATOM      5  C   UNL     1       8.757   0.497  23.606  0.00  0.00    +0.082 C 
ATOM      6  C   UNL     1       7.423   0.615  23.466  0.00  0.00    +0.082 C 
ATOM      7  O   UNL     1       8.369   1.243  21.534  0.00  0.00    -0.354 OA
ENDROOT
BRANCH   2   8
ATOM      8  C   UNL     1       6.801   4.108  23.133  0.00  0.00    -0.018 A 
ATOM      9  C   UNL     1       6.736   5.251  22.324  0.00  0.00    +0.012 A 
ATOM     10  C   UNL     1       5.801   6.260  22.587  0.00  0.00    +0.046 A 
ATOM     11  C   UNL     1       4.929   6.136  23.660  0.00  0.00    +0.117 A 
ATOM     12  C   UNL     1       5.017   5.050  24.515  0.00  0.00    +0.046 A 
ATOM     13  C   UNL     1       5.964   4.058  24.258  0.00  0.00    +0.012 A 
BRANCH  11  14
ATOM     14  O   UNL     1       3.984   7.099  23.841  0.00  0.00    -0.507 OA
ATOM     15  H   UNL     1       3.165   6.808  23.406  0.00  0.00    +0.292 HD
ENDBRANCH  11  14
ENDBRANCH   2   8
BRANCH   3  16
ATOM     16  C   UNL     1      10.007   3.796  23.468  0.00  0.00    -0.018 A 
ATOM     17  C   UNL     1      11.365   3.646  23.162  0.00  0.00    +0.012 A 
ATOM     18  C   UNL     1      12.272   4.656  23.485  0.00  0.00    +0.046 A 
ATOM     19  C   UNL     1      11.826   5.797  24.142  0.00  0.00    +0.117 A 
ATOM     20  C   UNL     1      10.492   5.933  24.511  0.00  0.00    +0.046 A 
ATOM     21  C   UNL     1       9.579   4.931  24.168  0.00  0.00    +0.012 A 
BRANCH  19  22
ATOM     22  O   UNL     1      12.732   6.785  24.386  0.00  0.00    -0.507 OA
ATOM     23  H   UNL     1      12.257   7.626  24.483  0.00  0.00    +0.292 HD
ENDBRANCH  19  22
ENDBRANCH   3  16
BRANCH   5  24
ATOM     24  C   UNL     1       9.529  -0.328  24.522  0.00  0.00    +0.338 C 
ATOM     25  O   UNL     1       9.492  -0.246  25.737  0.00  0.00    -0.245 OA
BRANCH  24  26
ATOM     26  O   UNL     1      10.270  -1.209  23.805  0.00  0.00    -0.465 OA
ATOM     27  C   UNL     1       9.806  -2.558  23.896  0.00  0.00    +0.280 C 
ENDBRANCH  24  26
ENDBRANCH   5  24
BRANCH   6  28
ATOM     28  C   UNL     1       6.358   0.013  24.253  0.00  0.00    +0.338 C 
ATOM     29  O   UNL     1       5.427   0.631  24.741  0.00  0.00    -0.245 OA
BRANCH  28  30
ATOM     30  O   UNL     1       6.533  -1.330  24.305  0.00  0.00    -0.465 OA
ATOM     31  C   UNL     1       6.226  -1.995  23.077  0.00  0.00    +0.280 C 
ENDBRANCH  28  30
ENDBRANCH   6  28
TORSDOF 8
ENDMDL
MODEL 9
REMARK VINA RESULT:      -5.8      1.581      4.954
REMARK  Name = 
REMARK  10 active torsions:
REMARK  status: ('A' for Active; 'I' for Inactive)
REMARK    1  A    between atoms: C_6  and  C_7
REMARK    2  A    between atoms: C_7  and  O_9
REMARK    3  A    between atoms: O_9  and  C_10
REMARK    4  A    between atoms: C_11  and  C_12
REMARK    5  A    between atoms: C_12  and  O_14
REMARK    6  A    between atoms: O_14  and  C_15
REMARK    7  A    between atoms: C_16  and  C_25
REMARK    8  A    between atoms: C_17  and  C_18
REMARK    9  A    between atoms: C_21  and  O_22
REMARK   10  A    between atoms: C_28  and  O_29
REMARK                            x       y       z     vdW  Elec       q    Type
REMARK                         _______ _______ _______ _____ _____    ______ ____
ROOT
ATOM      1  C   UNL     1       5.297  -2.632  24.079  0.00  0.00    +0.188 C 
ATOM      2  C   UNL     1       6.056  -1.347  24.380  0.00  0.00    -0.001 C 
ATOM      3  C   UNL     1       7.152  -1.397  23.581  0.00  0.00    -0.001 C 
ATOM      4  C   UNL     1       7.061  -2.690  22.805  0.00  0.00    +0.188 C 
ATOM      5  C   UNL     1       7.184  -3.860  23.736  0.00  0.00    +0.082 C 
ATOM      6  C   UNL     1       6.096  -3.822  24.529  0.00  0.00    +0.082 C 
ATOM      7  O   UNL     1       5.604  -2.716  22.643  0.00  0.00    -0.354 OA
ENDROOT
BRANCH   2   8
ATOM      8  C   UNL     1       5.700  -0.401  25.445  0.00  0.00    -0.018 A 
ATOM      9  C   UNL     1       5.390   0.935  25.155  0.00  0.00    +0.012 A 
ATOM     10  C   UNL     1       4.934   1.797  26.161  0.00  0.00    +0.046 A 
ATOM     11  C   UNL     1       4.790   1.333  27.461  0.00  0.00    +0.117 A 
ATOM     12  C   UNL     1       5.155   0.038  27.788  0.00  0.00    +0.046 A 
ATOM     13  C   UNL     1       5.626  -0.810  26.785  0.00  0.00    +0.012 A 
BRANCH  11  14
ATOM     14  O   UNL     1       4.275   2.177  28.396  0.00  0.00    -0.507 OA
ATOM     15  H   UNL     1       3.324   1.994  28.480  0.00  0.00    +0.292 HD
ENDBRANCH  11  14
ENDBRANCH   2   8
BRANCH   3  16
ATOM     16  C   UNL     1       8.311  -0.521  23.533  0.00  0.00    -0.018 A 
ATOM     17  C   UNL     1       8.397   0.479  22.557  0.00  0.00    +0.012 A 
ATOM     18  C   UNL     1       9.392   1.453  22.637  0.00  0.00    +0.046 A 
ATOM     19  C   UNL     1      10.318   1.407  23.672  0.00  0.00    +0.117 A 
ATOM     20  C   UNL     1      10.287   0.383  24.613  0.00  0.00    +0.046 A 
ATOM     21  C   UNL     1       9.277  -0.580  24.546  0.00  0.00    +0.012 A 
BRANCH  19  22
ATOM     22  O   UNL     1      11.237   2.411  23.748  0.00  0.00    -0.507 OA
ATOM     23  H   UNL     1      11.669   2.372  24.617  0.00  0.00    +0.292 HD
ENDBRANCH  19  22
ENDBRANCH   3  16
BRANCH   5  24
ATOM     24  C   UNL     1       8.295  -4.799  23.721  0.00  0.00    +0.338 C 
ATOM     25  O   UNL     1       8.284  -5.885  23.168  0.00  0.00    -0.245 OA
BRANCH  24  26
ATOM     26  O   UNL     1       9.339  -4.260  24.398  0.00  0.00    -0.465 OA
ATOM     27  C   UNL     1       9.660  -4.952  25.606  0.00  0.00    +0.280 C 
ENDBRANCH  24  26
ENDBRANCH   5  24
BRANCH   6  28
ATOM     28  C   UNL     1       5.755  -4.664  25.665  0.00  0.00    +0.338 C 
ATOM     29  O   UNL     1       6.276  -4.582  26.765  0.00  0.00    -0.245 OA
BRANCH  28  30
ATOM     30  O   UNL     1       4.742  -5.498  25.326  0.00  0.00    -0.465 OA
ATOM     31  C   UNL     1       4.782  -6.753  26.009  0.00  0.00    +0.280 C 
ENDBRANCH  28  30
ENDBRANCH   6  28
TORSDOF 8
ENDMDL
