MODEL 1
REMARK VINA RESULT:      -8.6      0.000      0.000
REMARK  Name = 
REMARK  4 active torsions:
REMARK  status: ('A' for Active; 'I' for Inactive)
REMARK    1  A    between atoms: N_9  and  C_10
REMARK    2  A    between atoms: C_12  and  S_16
REMARK    3  A    between atoms: S_16  and  N_19
REMARK    4  A    between atoms: N_22  and  C_25
REMARK                            x       y       z     vdW  Elec       q    Type
REMARK                         _______ _______ _______ _____ _____    ______ ____
ROOT
ATOM      1  C   UNL     1       6.939  -4.741  24.128  0.00  0.00    +0.037 A 
ATOM      2  C   UNL     1       7.818  -5.370  25.022  0.00  0.00    +0.023 A 
ATOM      3  C   UNL     1       9.059  -4.807  25.322  0.00  0.00    +0.004 A 
ATOM      4  C   UNL     1       9.446  -3.625  24.703  0.00  0.00    +0.028 A 
ATOM      5  C   UNL     1       8.581  -3.005  23.793  0.00  0.00    +0.107 A 
ATOM      6  C   UNL     1       7.326  -3.555  23.505  0.00  0.00    +0.052 A 
ENDROOT
BRANCH   1   9
ATOM      7  O   UNL     1       5.533  -5.391  21.589  0.00  0.00    -0.252 OA
ATOM      8  C   UNL     1       5.112  -5.693  22.704  0.00  0.00    +0.310 C 
ATOM      9  N   UNL     1       5.715  -5.388  23.896  0.00  0.00    -0.269 N 
ATOM     10  H   UNL     1       5.165  -5.622  24.718  0.00  0.00    +0.156 HD
ATOM     11  N   UNL     1       3.938  -6.392  22.782  0.00  0.00    -0.248 N 
ATOM     12  H   UNL     1       3.516  -6.640  21.900  0.00  0.00    +0.158 HD
ATOM     13  C   UNL     1       3.325  -6.790  23.933  0.00  0.00    +0.165 A 
ATOM     14  S   UNL     1       1.925  -7.738  23.736  0.00  0.00    -0.060 S 
ATOM     15  C   UNL     1       1.794  -7.852  25.445  0.00  0.00    +0.068 A 
ATOM     16  C   UNL     1       2.813  -7.135  26.036  0.00  0.00    +0.120 A 
ATOM     17  N   UNL     1       3.695  -6.526  25.165  0.00  0.00    -0.233 NA
ENDBRANCH   1   9
BRANCH   5  18
ATOM     18  S   UNL     1       9.169  -1.625  22.844  0.00  0.00    +0.061 S 
ATOM     19  O   UNL     1       8.693  -1.787  21.486  0.00  0.00    -0.153 OA
ATOM     20  O   UNL     1      10.588  -1.499  23.097  0.00  0.00    -0.153 OA
BRANCH  18  21
ATOM     21  N   UNL     1       8.372  -0.277  23.514  0.00  0.00    -0.174 NA
ATOM     22  C   UNL     1       8.101   0.814  22.513  0.00  0.00    +0.128 C 
ATOM     23  C   UNL     1       9.376   1.609  22.160  0.00  0.00    +0.123 C 
ATOM     24  N   UNL     1      10.014   2.108  23.380  0.00  0.00    -0.313 N 
ATOM     25  C   UNL     1      10.224   1.160  24.479  0.00  0.00    +0.123 C 
ATOM     26  C   UNL     1       8.955   0.334  24.756  0.00  0.00    +0.128 C 
BRANCH  24  27
ATOM     27  C   UNL     1      10.403   3.415  23.546  0.00  0.00    +0.121 A 
ATOM     28  N   UNL     1      11.693   3.725  23.292  0.00  0.00    -0.240 NA
ATOM     29  C   UNL     1      12.104   5.002  23.466  0.00  0.00    +0.113 A 
ATOM     30  C   UNL     1      11.272   6.029  23.862  0.00  0.00    +0.020 A 
ATOM     31  C   UNL     1       9.943   5.722  24.107  0.00  0.00    +0.005 A 
ATOM     32  C   UNL     1       9.511   4.404  23.957  0.00  0.00    +0.043 A 
ENDBRANCH  24  27
ENDBRANCH  18  21
ENDBRANCH   5  18
TORSDOF 4
ENDMDL
MODEL 2
REMARK VINA RESULT:      -8.5      1.577      1.923
REMARK  Name = 
REMARK  4 active torsions:
REMARK  status: ('A' for Active; 'I' for Inactive)
REMARK    1  A    between atoms: N_9  and  C_10
REMARK    2  A    between atoms: C_12  and  S_16
REMARK    3  A    between atoms: S_16  and  N_19
REMARK    4  A    between atoms: N_22  and  C_25
REMARK                            x       y       z     vdW  Elec       q    Type
REMARK                         _______ _______ _______ _____ _____    ______ ____
ROOT
ATOM      1  C   UNL     1       7.236  -4.411  23.995  0.00  0.00    +0.037 A 
ATOM      2  C   UNL     1       7.999  -5.252  24.818  0.00  0.00    +0.023 A 
ATOM      3  C   UNL     1       9.261  -4.864  25.266  0.00  0.00    +0.004 A 
ATOM      4  C   UNL     1       9.787  -3.642  24.867  0.00  0.00    +0.028 A 
ATOM      5  C   UNL     1       9.038  -2.807  24.027  0.00  0.00    +0.107 A 
ATOM      6  C   UNL     1       7.761  -3.183  23.593  0.00  0.00    +0.052 A 
ENDROOT
BRANCH   1   9
ATOM      7  O   UNL     1       6.484  -6.421  21.937  0.00  0.00    -0.252 OA
ATOM      8  C   UNL     1       5.675  -5.845  22.662  0.00  0.00    +0.310 C 
ATOM      9  N   UNL     1       5.978  -4.895  23.600  0.00  0.00    -0.269 N 
ATOM     10  H   UNL     1       5.169  -4.450  24.026  0.00  0.00    +0.156 HD
ATOM     11  N   UNL     1       4.350  -6.166  22.532  0.00  0.00    -0.248 N 
ATOM     12  H   UNL     1       4.138  -6.888  21.861  0.00  0.00    +0.158 HD
ATOM     13  C   UNL     1       3.326  -5.612  23.242  0.00  0.00    +0.165 A 
ATOM     14  S   UNL     1       1.784  -6.273  22.952  0.00  0.00    -0.060 S 
ATOM     15  C   UNL     1       1.132  -5.195  24.120  0.00  0.00    +0.068 A 
ATOM     16  C   UNL     1       2.136  -4.394  24.622  0.00  0.00    +0.120 A 
ATOM     17  N   UNL     1       3.399  -4.638  24.118  0.00  0.00    -0.233 NA
ENDBRANCH   1   9
BRANCH   5  18
ATOM     18  S   UNL     1       9.801  -1.357  23.346  0.00  0.00    +0.061 S 
ATOM     19  O   UNL     1      10.648  -1.776  22.249  0.00  0.00    -0.153 OA
ATOM     20  O   UNL     1      10.370  -0.609  24.447  0.00  0.00    -0.153 OA
BRANCH  18  21
ATOM     21  N   UNL     1       8.508  -0.464  22.688  0.00  0.00    -0.174 NA
ATOM     22  C   UNL     1       8.921   0.438  21.556  0.00  0.00    +0.128 C 
ATOM     23  C   UNL     1       9.673   1.690  22.054  0.00  0.00    +0.123 C 
ATOM     24  N   UNL     1       8.879   2.386  23.068  0.00  0.00    -0.313 N 
ATOM     25  C   UNL     1       8.319   1.588  24.164  0.00  0.00    +0.123 C 
ATOM     26  C   UNL     1       7.640   0.311  23.637  0.00  0.00    +0.128 C 
BRANCH  24  27
ATOM     27  C   UNL     1       8.621   3.735  23.029  0.00  0.00    +0.121 A 
ATOM     28  N   UNL     1       7.558   4.153  22.308  0.00  0.00    -0.240 NA
ATOM     29  C   UNL     1       7.296   5.477  22.239  0.00  0.00    +0.113 A 
ATOM     30  C   UNL     1       8.037   6.442  22.891  0.00  0.00    +0.020 A 
ATOM     31  C   UNL     1       9.118   6.020  23.647  0.00  0.00    +0.005 A 
ATOM     32  C   UNL     1       9.417   4.658  23.706  0.00  0.00    +0.043 A 
ENDBRANCH  24  27
ENDBRANCH  18  21
ENDBRANCH   5  18
TORSDOF 4
ENDMDL
MODEL 3
REMARK VINA RESULT:      -8.3      2.554      3.083
REMARK  Name = 
REMARK  4 active torsions:
REMARK  status: ('A' for Active; 'I' for Inactive)
REMARK    1  A    between atoms: N_9  and  C_10
REMARK    2  A    between atoms: C_12  and  S_16
REMARK    3  A    between atoms: S_16  and  N_19
REMARK    4  A    between atoms: N_22  and  C_25
REMARK                            x       y       z     vdW  Elec       q    Type
REMARK                         _______ _______ _______ _____ _____    ______ ____
ROOT
ATOM      1  C   UNL     1       6.759  -4.048  24.634  0.00  0.00    +0.037 A 
ATOM      2  C   UNL     1       5.728  -4.274  23.710  0.00  0.00    +0.023 A 
ATOM      3  C   UNL     1       5.751  -3.675  22.451  0.00  0.00    +0.004 A 
ATOM      4  C   UNL     1       6.791  -2.817  22.115  0.00  0.00    +0.028 A 
ATOM      5  C   UNL     1       7.812  -2.571  23.042  0.00  0.00    +0.107 A 
ATOM      6  C   UNL     1       7.804  -3.187  24.300  0.00  0.00    +0.052 A 
ENDROOT
BRANCH   1   9
ATOM      7  O   UNL     1       8.610  -5.906  26.037  0.00  0.00    -0.252 OA
ATOM      8  C   UNL     1       7.533  -5.530  26.498  0.00  0.00    +0.310 C 
ATOM      9  N   UNL     1       6.642  -4.699  25.872  0.00  0.00    -0.269 N 
ATOM     10  H   UNL     1       5.757  -4.588  26.359  0.00  0.00    +0.156 HD
ATOM     11  N   UNL     1       7.175  -5.974  27.743  0.00  0.00    -0.248 N 
ATOM     12  H   UNL     1       7.850  -6.560  28.210  0.00  0.00    +0.158 HD
ATOM     13  C   UNL     1       6.015  -5.670  28.391  0.00  0.00    +0.165 A 
ATOM     14  S   UNL     1       5.874  -6.275  29.975  0.00  0.00    -0.060 S 
ATOM     15  C   UNL     1       4.339  -5.511  30.101  0.00  0.00    +0.068 A 
ATOM     16  C   UNL     1       4.040  -4.876  28.914  0.00  0.00    +0.120 A 
ATOM     17  N   UNL     1       5.007  -4.965  27.932  0.00  0.00    -0.233 NA
ENDBRANCH   1   9
BRANCH   5  18
ATOM     18  S   UNL     1       9.011  -1.311  22.694  0.00  0.00    +0.061 S 
ATOM     19  O   UNL     1       9.308  -1.361  21.277  0.00  0.00    -0.153 OA
ATOM     20  O   UNL     1      10.082  -1.453  23.657  0.00  0.00    -0.153 OA
BRANCH  18  21
ATOM     21  N   UNL     1       8.193   0.152  22.998  0.00  0.00    -0.174 NA
ATOM     22  C   UNL     1       8.396   1.184  21.921  0.00  0.00    +0.128 C 
ATOM     23  C   UNL     1       9.796   1.829  21.989  0.00  0.00    +0.123 C 
ATOM     24  N   UNL     1      10.043   2.359  23.332  0.00  0.00    -0.313 N 
ATOM     25  C   UNL     1       9.767   1.482  24.474  0.00  0.00    +0.123 C 
ATOM     26  C   UNL     1       8.394   0.800  24.338  0.00  0.00    +0.128 C 
BRANCH  24  27
ATOM     27  C   UNL     1      10.499   3.634  23.566  0.00  0.00    +0.121 A 
ATOM     28  N   UNL     1      11.795   3.898  23.297  0.00  0.00    -0.240 NA
ATOM     29  C   UNL     1      12.271   5.141  23.537  0.00  0.00    +0.113 A 
ATOM     30  C   UNL     1      11.500   6.179  24.018  0.00  0.00    +0.020 A 
ATOM     31  C   UNL     1      10.165   5.920  24.281  0.00  0.00    +0.005 A 
ATOM     32  C   UNL     1       9.666   4.635  24.062  0.00  0.00    +0.043 A 
ENDBRANCH  24  27
ENDBRANCH  18  21
ENDBRANCH   5  18
TORSDOF 4
ENDMDL
MODEL 4
REMARK VINA RESULT:      -7.9      1.733      2.149
REMARK  Name = 
REMARK  4 active torsions:
REMARK  status: ('A' for Active; 'I' for Inactive)
REMARK    1  A    between atoms: N_9  and  C_10
REMARK    2  A    between atoms: C_12  and  S_16
REMARK    3  A    between atoms: S_16  and  N_19
REMARK    4  A    between atoms: N_22  and  C_25
REMARK                            x       y       z     vdW  Elec       q    Type
REMARK                         _______ _______ _______ _____ _____    ______ ____
ROOT
ATOM      1  C   UNL     1       6.991  -4.986  25.185  0.00  0.00    +0.037 A 
ATOM      2  C   UNL     1       8.227  -5.600  25.433  0.00  0.00    +0.023 A 
ATOM      3  C   UNL     1       9.422  -4.904  25.251  0.00  0.00    +0.004 A 
ATOM      4  C   UNL     1       9.392  -3.595  24.785  0.00  0.00    +0.028 A 
ATOM      5  C   UNL     1       8.160  -2.985  24.516  0.00  0.00    +0.107 A 
ATOM      6  C   UNL     1       6.958  -3.673  24.718  0.00  0.00    +0.052 A 
ENDROOT
BRANCH   1   9
ATOM      7  O   UNL     1       6.094  -6.496  27.585  0.00  0.00    -0.252 OA
ATOM      8  C   UNL     1       5.457  -6.433  26.535  0.00  0.00    +0.310 C 
ATOM      9  N   UNL     1       5.848  -5.773  25.401  0.00  0.00    -0.269 N 
ATOM     10  H   UNL     1       5.245  -5.924  24.596  0.00  0.00    +0.156 HD
ATOM     11  N   UNL     1       4.249  -7.076  26.475  0.00  0.00    -0.248 N 
ATOM     12  H   UNL     1       3.954  -7.534  27.324  0.00  0.00    +0.158 HD
ATOM     13  C   UNL     1       3.427  -7.122  25.388  0.00  0.00    +0.165 A 
ATOM     14  S   UNL     1       1.935  -7.906  25.622  0.00  0.00    -0.060 S 
ATOM     15  C   UNL     1       1.518  -7.541  23.996  0.00  0.00    +0.068 A 
ATOM     16  C   UNL     1       2.561  -6.872  23.390  0.00  0.00    +0.120 A 
ATOM     17  N   UNL     1       3.658  -6.629  24.193  0.00  0.00    -0.233 NA
ENDBRANCH   1   9
BRANCH   5  18
ATOM     18  S   UNL     1       8.137  -1.401  23.716  0.00  0.00    +0.061 S 
ATOM     19  O   UNL     1       6.766  -1.108  23.353  0.00  0.00    -0.153 OA
ATOM     20  O   UNL     1       9.162  -1.416  22.694  0.00  0.00    -0.153 OA
BRANCH  18  21
ATOM     21  N   UNL     1       8.595  -0.302  24.934  0.00  0.00    -0.174 NA
ATOM     22  C   UNL     1       7.783   0.965  24.930  0.00  0.00    +0.128 C 
ATOM     23  C   UNL     1       8.182   1.910  23.778  0.00  0.00    +0.123 C 
ATOM     24  N   UNL     1       9.624   2.165  23.811  0.00  0.00    -0.313 N 
ATOM     25  C   UNL     1      10.520   1.010  23.933  0.00  0.00    +0.123 C 
ATOM     26  C   UNL     1      10.051   0.053  25.043  0.00  0.00    +0.128 C 
BRANCH  24  27
ATOM     27  C   UNL     1      10.167   3.426  23.752  0.00  0.00    +0.121 A 
ATOM     28  N   UNL     1       9.372   4.470  24.068  0.00  0.00    -0.240 NA
ATOM     29  C   UNL     1       9.879   5.722  23.999  0.00  0.00    +0.113 A 
ATOM     30  C   UNL     1      11.184   6.003  23.651  0.00  0.00    +0.020 A 
ATOM     31  C   UNL     1      12.012   4.936  23.343  0.00  0.00    +0.005 A 
ATOM     32  C   UNL     1      11.495   3.640  23.384  0.00  0.00    +0.043 A 
ENDBRANCH  24  27
ENDBRANCH  18  21
ENDBRANCH   5  18
TORSDOF 4
ENDMDL
MODEL 5
REMARK VINA RESULT:      -7.9      2.969     10.136
REMARK  Name = 
REMARK  4 active torsions:
REMARK  status: ('A' for Active; 'I' for Inactive)
REMARK    1  A    between atoms: N_9  and  C_10
REMARK    2  A    between atoms: C_12  and  S_16
REMARK    3  A    between atoms: S_16  and  N_19
REMARK    4  A    between atoms: N_22  and  C_25
REMARK                            x       y       z     vdW  Elec       q    Type
REMARK                         _______ _______ _______ _____ _____    ______ ____
ROOT
ATOM      1  C   UNL     1       9.400   0.861  22.900  0.00  0.00    +0.037 A 
ATOM      2  C   UNL     1       9.437   0.529  21.537  0.00  0.00    +0.023 A 
ATOM      3  C   UNL     1       9.261  -0.789  21.116  0.00  0.00    +0.004 A 
ATOM      4  C   UNL     1       9.079  -1.794  22.058  0.00  0.00    +0.028 A 
ATOM      5  C   UNL     1       9.063  -1.471  23.421  0.00  0.00    +0.107 A 
ATOM      6  C   UNL     1       9.218  -0.146  23.847  0.00  0.00    +0.052 A 
ENDROOT
BRANCH   1   9
ATOM      7  O   UNL     1       7.477   2.916  23.858  0.00  0.00    -0.252 OA
ATOM      8  C   UNL     1       8.676   3.126  23.684  0.00  0.00    +0.310 C 
ATOM      9  N   UNL     1       9.587   2.215  23.218  0.00  0.00    -0.269 N 
ATOM     10  H   UNL     1      10.510   2.600  23.033  0.00  0.00    +0.156 HD
ATOM     11  N   UNL     1       9.161   4.374  23.971  0.00  0.00    -0.248 N 
ATOM     12  H   UNL     1       8.491   5.029  24.343  0.00  0.00    +0.158 HD
ATOM     13  C   UNL     1      10.455   4.778  23.820  0.00  0.00    +0.165 A 
ATOM     14  S   UNL     1      10.803   6.356  24.353  0.00  0.00    -0.060 S 
ATOM     15  C   UNL     1      12.446   6.114  23.910  0.00  0.00    +0.068 A 
ATOM     16  C   UNL     1      12.597   4.857  23.364  0.00  0.00    +0.120 A 
ATOM     17  N   UNL     1      11.451   4.088  23.315  0.00  0.00    -0.233 NA
ENDBRANCH   1   9
BRANCH   5  18
ATOM     18  S   UNL     1       9.053  -2.779  24.620  0.00  0.00    +0.061 S 
ATOM     19  O   UNL     1       9.062  -2.174  25.936  0.00  0.00    -0.153 OA
ATOM     20  O   UNL     1      10.096  -3.712  24.252  0.00  0.00    -0.153 OA
BRANCH  18  21
ATOM     21  N   UNL     1       7.542  -3.537  24.411  0.00  0.00    -0.174 NA
ATOM     22  C   UNL     1       6.437  -2.893  25.204  0.00  0.00    +0.128 C 
ATOM     23  C   UNL     1       6.522  -3.237  26.706  0.00  0.00    +0.123 C 
ATOM     24  N   UNL     1       6.576  -4.688  26.890  0.00  0.00    -0.313 N 
ATOM     25  C   UNL     1       7.537  -5.445  26.080  0.00  0.00    +0.123 C 
ATOM     26  C   UNL     1       7.475  -5.026  24.601  0.00  0.00    +0.128 C 
BRANCH  24  27
ATOM     27  C   UNL     1       5.762  -5.368  27.764  0.00  0.00    +0.121 A 
ATOM     28  N   UNL     1       6.065  -5.315  29.078  0.00  0.00    -0.240 NA
ATOM     29  C   UNL     1       5.289  -5.991  29.956  0.00  0.00    +0.113 A 
ATOM     30  C   UNL     1       4.174  -6.717  29.593  0.00  0.00    +0.020 A 
ATOM     31  C   UNL     1       3.845  -6.762  28.248  0.00  0.00    +0.005 A 
ATOM     32  C   UNL     1       4.652  -6.090  27.328  0.00  0.00    +0.043 A 
ENDBRANCH  24  27
ENDBRANCH  18  21
ENDBRANCH   5  18
TORSDOF 4
ENDMDL
MODEL 6
REMARK VINA RESULT:      -7.9      2.517     10.287
REMARK  Name = 
REMARK  4 active torsions:
REMARK  status: ('A' for Active; 'I' for Inactive)
REMARK    1  A    between atoms: N_9  and  C_10
REMARK    2  A    between atoms: C_12  and  S_16
REMARK    3  A    between atoms: S_16  and  N_19
REMARK    4  A    between atoms: N_22  and  C_25
REMARK                            x       y       z     vdW  Elec       q    Type
REMARK                         _______ _______ _______ _____ _____    ______ ____
ROOT
ATOM      1  C   UNL     1       9.203   0.789  22.922  0.00  0.00    +0.037 A 
ATOM      2  C   UNL     1       9.558   0.375  21.629  0.00  0.00    +0.023 A 
ATOM      3  C   UNL     1       9.406  -0.954  21.235  0.00  0.00    +0.004 A 
ATOM      4  C   UNL     1       8.927  -1.891  22.144  0.00  0.00    +0.028 A 
ATOM      5  C   UNL     1       8.592  -1.487  23.442  0.00  0.00    +0.107 A 
ATOM      6  C   UNL     1       8.723  -0.150  23.835  0.00  0.00    +0.052 A 
ENDROOT
BRANCH   1   9
ATOM      7  O   UNL     1       7.266   2.891  23.740  0.00  0.00    -0.252 OA
ATOM      8  C   UNL     1       8.475   3.081  23.618  0.00  0.00    +0.310 C 
ATOM      9  N   UNL     1       9.394   2.147  23.217  0.00  0.00    -0.269 N 
ATOM     10  H   UNL     1      10.330   2.515  23.068  0.00  0.00    +0.156 HD
ATOM     11  N   UNL     1       8.963   4.328  23.900  0.00  0.00    -0.248 N 
ATOM     12  H   UNL     1       8.285   5.001  24.224  0.00  0.00    +0.158 HD
ATOM     13  C   UNL     1      10.268   4.712  23.800  0.00  0.00    +0.165 A 
ATOM     14  S   UNL     1      10.613   6.297  24.314  0.00  0.00    -0.060 S 
ATOM     15  C   UNL     1      12.271   6.024  23.955  0.00  0.00    +0.068 A 
ATOM     16  C   UNL     1      12.430   4.752  23.445  0.00  0.00    +0.120 A 
ATOM     17  N   UNL     1      11.277   3.997  23.360  0.00  0.00    -0.233 NA
ENDBRANCH   1   9
BRANCH   5  18
ATOM     18  S   UNL     1       8.196  -2.720  24.656  0.00  0.00    +0.061 S 
ATOM     19  O   UNL     1       8.851  -2.349  25.893  0.00  0.00    -0.153 OA
ATOM     20  O   UNL     1       8.461  -4.013  24.063  0.00  0.00    -0.153 OA
BRANCH  18  21
ATOM     21  N   UNL     1       6.516  -2.561  24.892  0.00  0.00    -0.174 NA
ATOM     22  C   UNL     1       5.976  -3.472  25.961  0.00  0.00    +0.128 C 
ATOM     23  C   UNL     1       5.877  -4.936  25.484  0.00  0.00    +0.123 C 
ATOM     24  N   UNL     1       5.111  -5.010  24.238  0.00  0.00    -0.313 N 
ATOM     25  C   UNL     1       5.469  -4.084  23.158  0.00  0.00    +0.123 C 
ATOM     26  C   UNL     1       5.629  -2.647  23.684  0.00  0.00    +0.128 C 
BRANCH  24  27
ATOM     27  C   UNL     1       4.070  -5.886  24.045  0.00  0.00    +0.121 A 
ATOM     28  N   UNL     1       3.257  -5.675  22.988  0.00  0.00    -0.240 NA
ATOM     29  C   UNL     1       2.215  -6.513  22.788  0.00  0.00    +0.113 A 
ATOM     30  C   UNL     1       1.941  -7.603  23.589  0.00  0.00    +0.020 A 
ATOM     31  C   UNL     1       2.781  -7.836  24.666  0.00  0.00    +0.005 A 
ATOM     32  C   UNL     1       3.846  -6.964  24.900  0.00  0.00    +0.043 A 
ENDBRANCH  24  27
ENDBRANCH  18  21
ENDBRANCH   5  18
TORSDOF 4
ENDMDL
MODEL 7
REMARK VINA RESULT:      -7.8      2.250      2.890
REMARK  Name = 
REMARK  4 active torsions:
REMARK  status: ('A' for Active; 'I' for Inactive)
REMARK    1  A    between atoms: N_9  and  C_10
REMARK    2  A    between atoms: C_12  and  S_16
REMARK    3  A    between atoms: S_16  and  N_19
REMARK    4  A    between atoms: N_22  and  C_25
REMARK                            x       y       z     vdW  Elec       q    Type
REMARK                         _______ _______ _______ _____ _____    ______ ____
ROOT
ATOM      1  C   UNL     1       5.806  -5.514  24.665  0.00  0.00    +0.037 A 
ATOM      2  C   UNL     1       5.625  -5.933  23.339  0.00  0.00    +0.023 A 
ATOM      3  C   UNL     1       6.498  -5.522  22.332  0.00  0.00    +0.004 A 
ATOM      4  C   UNL     1       7.543  -4.659  22.637  0.00  0.00    +0.028 A 
ATOM      5  C   UNL     1       7.715  -4.220  23.956  0.00  0.00    +0.107 A 
ATOM      6  C   UNL     1       6.854  -4.648  24.974  0.00  0.00    +0.052 A 
ENDROOT
BRANCH   1   9
ATOM      7  O   UNL     1       3.931  -7.820  24.552  0.00  0.00    -0.252 OA
ATOM      8  C   UNL     1       4.044  -7.073  25.522  0.00  0.00    +0.310 C 
ATOM      9  N   UNL     1       4.873  -5.986  25.602  0.00  0.00    -0.269 N 
ATOM     10  H   UNL     1       4.750  -5.423  26.440  0.00  0.00    +0.156 HD
ATOM     11  N   UNL     1       3.278  -7.332  26.627  0.00  0.00    -0.248 N 
ATOM     12  H   UNL     1       2.692  -8.152  26.572  0.00  0.00    +0.158 HD
ATOM     13  C   UNL     1       3.266  -6.597  27.776  0.00  0.00    +0.165 A 
ATOM     14  S   UNL     1       2.294  -7.206  29.033  0.00  0.00    -0.060 S 
ATOM     15  C   UNL     1       2.798  -5.894  30.022  0.00  0.00    +0.068 A 
ATOM     16  C   UNL     1       3.649  -5.077  29.308  0.00  0.00    +0.120 A 
ATOM     17  N   UNL     1       3.920  -5.484  28.016  0.00  0.00    -0.233 NA
ENDBRANCH   1   9
BRANCH   5  18
ATOM     18  S   UNL     1       8.909  -2.952  24.297  0.00  0.00    +0.061 S 
ATOM     19  O   UNL     1      10.225  -3.507  24.058  0.00  0.00    -0.153 OA
ATOM     20  O   UNL     1       8.590  -2.393  25.593  0.00  0.00    -0.153 OA
BRANCH  18  21
ATOM     21  N   UNL     1       8.624  -1.768  23.106  0.00  0.00    -0.174 NA
ATOM     22  C   UNL     1       9.885  -1.133  22.583  0.00  0.00    +0.128 C 
ATOM     23  C   UNL     1      10.492  -0.131  23.586  0.00  0.00    +0.123 C 
ATOM     24  N   UNL     1       9.487   0.857  23.985  0.00  0.00    -0.313 N 
ATOM     25  C   UNL     1       8.171   0.362  24.403  0.00  0.00    +0.123 C 
ATOM     26  C   UNL     1       7.628  -0.688  23.418  0.00  0.00    +0.128 C 
BRANCH  24  27
ATOM     27  C   UNL     1       9.713   2.212  23.966  0.00  0.00    +0.121 A 
ATOM     28  N   UNL     1      10.877   2.649  23.438  0.00  0.00    -0.240 NA
ATOM     29  C   UNL     1      11.130   3.977  23.425  0.00  0.00    +0.113 A 
ATOM     30  C   UNL     1      10.251   4.931  23.895  0.00  0.00    +0.020 A 
ATOM     31  C   UNL     1       9.047   4.492  24.422  0.00  0.00    +0.005 A 
ATOM     32  C   UNL     1       8.783   3.122  24.465  0.00  0.00    +0.043 A 
ENDBRANCH  24  27
ENDBRANCH  18  21
ENDBRANCH   5  18
TORSDOF 4
ENDMDL
MODEL 8
REMARK VINA RESULT:      -7.7      2.921      9.692
REMARK  Name = 
REMARK  4 active torsions:
REMARK  status: ('A' for Active; 'I' for Inactive)
REMARK    1  A    between atoms: N_9  and  C_10
REMARK    2  A    between atoms: C_12  and  S_16
REMARK    3  A    between atoms: S_16  and  N_19
REMARK    4  A    between atoms: N_22  and  C_25
REMARK                            x       y       z     vdW  Elec       q    Type
REMARK                         _______ _______ _______ _____ _____    ______ ____
ROOT
ATOM      1  C   UNL     1       8.447   1.597  23.761  0.00  0.00    +0.037 A 
ATOM      2  C   UNL     1       9.690   1.941  24.312  0.00  0.00    +0.023 A 
ATOM      3  C   UNL     1      10.668   0.972  24.535  0.00  0.00    +0.004 A 
ATOM      4  C   UNL     1      10.398  -0.359  24.239  0.00  0.00    +0.028 A 
ATOM      5  C   UNL     1       9.150  -0.710  23.709  0.00  0.00    +0.107 A 
ATOM      6  C   UNL     1       8.174   0.262  23.463  0.00  0.00    +0.052 A 
ENDROOT
BRANCH   1   9
ATOM      7  O   UNL     1       5.662   1.948  24.742  0.00  0.00    -0.252 OA
ATOM      8  C   UNL     1       6.263   2.783  24.068  0.00  0.00    +0.310 C 
ATOM      9  N   UNL     1       7.534   2.647  23.575  0.00  0.00    -0.269 N 
ATOM     10  H   UNL     1       7.824   3.392  22.947  0.00  0.00    +0.156 HD
ATOM     11  N   UNL     1       5.622   3.956  23.772  0.00  0.00    -0.248 N 
ATOM     12  H   UNL     1       4.699   4.062  24.165  0.00  0.00    +0.158 HD
ATOM     13  C   UNL     1       6.135   4.975  23.026  0.00  0.00    +0.165 A 
ATOM     14  S   UNL     1       5.159   6.364  22.902  0.00  0.00    -0.060 S 
ATOM     15  C   UNL     1       6.384   7.108  21.955  0.00  0.00    +0.068 A 
ATOM     16  C   UNL     1       7.433   6.229  21.782  0.00  0.00    +0.120 A 
ATOM     17  N   UNL     1       7.289   5.003  22.402  0.00  0.00    -0.233 NA
ENDBRANCH   1   9
BRANCH   5  18
ATOM     18  S   UNL     1       8.734  -2.428  23.543  0.00  0.00    +0.061 S 
ATOM     19  O   UNL     1       9.883  -3.204  23.962  0.00  0.00    -0.153 OA
ATOM     20  O   UNL     1       8.187  -2.615  22.216  0.00  0.00    -0.153 OA
BRANCH  18  21
ATOM     21  N   UNL     1       7.497  -2.680  24.686  0.00  0.00    -0.174 NA
ATOM     22  C   UNL     1       7.518  -4.056  25.294  0.00  0.00    +0.128 C 
ATOM     23  C   UNL     1       6.986  -5.130  24.322  0.00  0.00    +0.123 C 
ATOM     24  N   UNL     1       5.660  -4.752  23.828  0.00  0.00    -0.313 N 
ATOM     25  C   UNL     1       5.484  -3.388  23.318  0.00  0.00    +0.123 C 
ATOM     26  C   UNL     1       6.090  -2.349  24.277  0.00  0.00    +0.128 C 
BRANCH  24  27
ATOM     27  C   UNL     1       4.581  -5.602  23.840  0.00  0.00    +0.121 A 
ATOM     28  N   UNL     1       3.570  -5.350  22.980  0.00  0.00    -0.240 NA
ATOM     29  C   UNL     1       2.489  -6.162  22.986  0.00  0.00    +0.113 A 
ATOM     30  C   UNL     1       2.363  -7.266  23.804  0.00  0.00    +0.020 A 
ATOM     31  C   UNL     1       3.403  -7.542  24.676  0.00  0.00    +0.005 A 
ATOM     32  C   UNL     1       4.514  -6.697  24.700  0.00  0.00    +0.043 A 
ENDBRANCH  24  27
ENDBRANCH  18  21
ENDBRANCH   5  18
TORSDOF 4
ENDMDL
MODEL 9
REMARK VINA RESULT:      -7.6      2.696     10.036
REMARK  Name = 
REMARK  4 active torsions:
REMARK  status: ('A' for Active; 'I' for Inactive)
REMARK    1  A    between atoms: N_9  and  C_10
REMARK    2  A    between atoms: C_12  and  S_16
REMARK    3  A    between atoms: S_16  and  N_19
REMARK    4  A    between atoms: N_22  and  C_25
REMARK                            x       y       z     vdW  Elec       q    Type
REMARK                         _______ _______ _______ _____ _____    ______ ____
ROOT
ATOM      1  C   UNL     1       8.878   0.927  22.784  0.00  0.00    +0.037 A 
ATOM      2  C   UNL     1       9.403   0.517  21.550  0.00  0.00    +0.023 A 
ATOM      3  C   UNL     1       9.455  -0.834  21.206  0.00  0.00    +0.004 A 
ATOM      4  C   UNL     1       9.013  -1.792  22.111  0.00  0.00    +0.028 A 
ATOM      5  C   UNL     1       8.509  -1.389  23.353  0.00  0.00    +0.107 A 
ATOM      6  C   UNL     1       8.433  -0.033  23.694  0.00  0.00    +0.052 A 
ENDROOT
BRANCH   1   9
ATOM      7  O   UNL     1      11.030   2.747  23.731  0.00  0.00    -0.252 OA
ATOM      8  C   UNL     1       9.893   3.118  23.444  0.00  0.00    +0.310 C 
ATOM      9  N   UNL     1       8.868   2.308  23.031  0.00  0.00    -0.269 N 
ATOM     10  H   UNL     1       7.970   2.777  22.946  0.00  0.00    +0.156 HD
ATOM     11  N   UNL     1       9.607   4.454  23.541  0.00  0.00    -0.248 N 
ATOM     12  H   UNL     1      10.375   5.048  23.815  0.00  0.00    +0.158 HD
ATOM     13  C   UNL     1       8.399   5.029  23.278  0.00  0.00    +0.165 A 
ATOM     14  S   UNL     1       8.351   6.727  23.380  0.00  0.00    -0.060 S 
ATOM     15  C   UNL     1       6.695   6.681  22.922  0.00  0.00    +0.068 A 
ATOM     16  C   UNL     1       6.299   5.371  22.753  0.00  0.00    +0.120 A 
ATOM     17  N   UNL     1       7.281   4.421  22.955  0.00  0.00    -0.233 NA
ENDBRANCH   1   9
BRANCH   5  18
ATOM     18  S   UNL     1       8.155  -2.619  24.583  0.00  0.00    +0.061 S 
ATOM     19  O   UNL     1       8.819  -2.224  25.808  0.00  0.00    -0.153 OA
ATOM     20  O   UNL     1       8.438  -3.911  23.997  0.00  0.00    -0.153 OA
BRANCH  18  21
ATOM     21  N   UNL     1       6.476  -2.492  24.843  0.00  0.00    -0.174 NA
ATOM     22  C   UNL     1       5.968  -3.413  25.918  0.00  0.00    +0.128 C 
ATOM     23  C   UNL     1       5.891  -4.879  25.442  0.00  0.00    +0.123 C 
ATOM     24  N   UNL     1       5.109  -4.968  24.207  0.00  0.00    -0.313 N 
ATOM     25  C   UNL     1       5.435  -4.035  23.123  0.00  0.00    +0.123 C 
ATOM     26  C   UNL     1       5.574  -2.595  23.646  0.00  0.00    +0.128 C 
BRANCH  24  27
ATOM     27  C   UNL     1       4.083  -5.863  24.028  0.00  0.00    +0.121 A 
ATOM     28  N   UNL     1       3.239  -5.656  22.994  0.00  0.00    -0.240 NA
ATOM     29  C   UNL     1       2.210  -6.514  22.809  0.00  0.00    +0.113 A 
ATOM     30  C   UNL     1       1.980  -7.620  23.601  0.00  0.00    +0.020 A 
ATOM     31  C   UNL     1       2.852  -7.850  24.653  0.00  0.00    +0.005 A 
ATOM     32  C   UNL     1       3.904  -6.958  24.872  0.00  0.00    +0.043 A 
ENDBRANCH  24  27
ENDBRANCH  18  21
ENDBRANCH   5  18
TORSDOF 4
ENDMDL
