MODEL 1
REMARK VINA RESULT:      -5.6      0.000      0.000
REMARK  Name = 
REMARK  11 active torsions:
REMARK  status: ('A' for Active; 'I' for Inactive)
REMARK    1  A    between atoms: C_2  and  C_3
REMARK    2  A    between atoms: N_5  and  C_6
REMARK    3  A    between atoms: C_6  and  C_7
REMARK    4  A    between atoms: C_7  and  C_8
REMARK    5  A    between atoms: C_8  and  C_9
REMARK    6  A    between atoms: C_9  and  C_10
REMARK    7  A    between atoms: C_10  and  C_11
REMARK    8  A    between atoms: C_11  and  C_12
REMARK    9  A    between atoms: C_12  and  C_13
REMARK   10  A    between atoms: C_13  and  N_14
REMARK   11  A    between atoms: C_18  and  C_20
REMARK                            x       y       z     vdW  Elec       q    Type
REMARK                         _______ _______ _______ _____ _____    ______ ____
ROOT
ATOM      1  C   UNL     1       9.133  -0.425  23.022  0.00  0.00    +0.015 C 
ENDROOT
BRANCH   1   2
ATOM      2  C   UNL     1       7.871  -1.284  22.853  0.00  0.00    +0.084 C 
BRANCH   2   9
ATOM      3  C   UNL     1       7.594  -5.041  23.488  0.00  0.00    +0.130 C 
ATOM      4  C   UNL     1       6.400  -5.200  24.428  0.00  0.00    +0.039 C 
ATOM      5  O   UNL     1       8.845  -5.263  24.153  0.00  0.00    -0.371 OA
ATOM      6  C   UNL     1       9.380  -4.139  24.870  0.00  0.00    +0.130 C 
ATOM      7  C   UNL     1       8.777  -4.017  26.268  0.00  0.00    +0.039 C 
ATOM      8  C   UNL     1       9.304  -2.824  24.065  0.00  0.00    +0.115 C 
ATOM      9  N   UNL     1       7.941  -2.569  23.560  0.00  0.00    -0.297 NA
ATOM     10  C   UNL     1       7.562  -3.712  22.707  0.00  0.00    +0.115 C 
ENDBRANCH   2   9
ENDBRANCH   1   2
BRANCH   1  11
ATOM     11  C   UNL     1       9.632   0.160  21.696  0.00  0.00    +0.001 C 
BRANCH  11  12
ATOM     12  C   UNL     1      10.011   1.630  21.857  0.00  0.00    +0.000 C 
BRANCH  12  13
ATOM     13  C   UNL     1       8.980   2.374  22.703  0.00  0.00    +0.000 C 
BRANCH  13  14
ATOM     14  C   UNL     1       9.640   3.025  23.916  0.00  0.00    +0.002 C 
BRANCH  14  15
ATOM     15  C   UNL     1      11.062   3.479  23.596  0.00  0.00    +0.019 C 
BRANCH  15  16
ATOM     16  C   UNL     1      11.190   4.997  23.698  0.00  0.00    +0.104 C 
BRANCH  16  17
ATOM     17  N   UNL     1      11.814   5.554  22.519  0.00  0.00    -0.318 N 
ATOM     18  H   UNL     1      11.244   6.072  21.862  0.00  0.00    +0.148 HD
ATOM     19  C   UNL     1      13.171   5.531  22.341  0.00  0.00    +0.325 C 
ATOM     20  O   UNL     1      13.986   5.024  23.096  0.00  0.00    -0.280 OA
ENDBRANCH  16  17
ENDBRANCH  15  16
ENDBRANCH  14  15
ENDBRANCH  13  14
ENDBRANCH  12  13
ENDBRANCH  11  12
ENDBRANCH   1  11
TORSDOF 9
ENDMDL
MODEL 2
REMARK VINA RESULT:      -5.5      2.386      4.049
REMARK  Name = 
REMARK  11 active torsions:
REMARK  status: ('A' for Active; 'I' for Inactive)
REMARK    1  A    between atoms: C_2  and  C_3
REMARK    2  A    between atoms: N_5  and  C_6
REMARK    3  A    between atoms: C_6  and  C_7
REMARK    4  A    between atoms: C_7  and  C_8
REMARK    5  A    between atoms: C_8  and  C_9
REMARK    6  A    between atoms: C_9  and  C_10
REMARK    7  A    between atoms: C_10  and  C_11
REMARK    8  A    between atoms: C_11  and  C_12
REMARK    9  A    between atoms: C_12  and  C_13
REMARK   10  A    between atoms: C_13  and  N_14
REMARK   11  A    between atoms: C_18  and  C_20
REMARK                            x       y       z     vdW  Elec       q    Type
REMARK                         _______ _______ _______ _____ _____    ______ ____
ROOT
ATOM      1  C   UNL     1       8.975  -3.571  24.853  0.00  0.00    +0.015 C 
ENDROOT
BRANCH   1   2
ATOM      2  C   UNL     1       7.871  -4.603  25.131  0.00  0.00    +0.084 C 
BRANCH   2   9
ATOM      3  C   UNL     1       4.636  -3.967  23.201  0.00  0.00    +0.130 C 
ATOM      4  C   UNL     1       3.842  -5.267  23.314  0.00  0.00    +0.039 C 
ATOM      5  O   UNL     1       5.177  -3.769  21.887  0.00  0.00    -0.371 OA
ATOM      6  C   UNL     1       6.418  -4.441  21.616  0.00  0.00    +0.130 C 
ATOM      7  C   UNL     1       6.199  -5.892  21.195  0.00  0.00    +0.039 C 
ATOM      8  C   UNL     1       7.442  -4.294  22.762  0.00  0.00    +0.115 C 
ATOM      9  N   UNL     1       6.868  -4.685  24.064  0.00  0.00    -0.297 NA
ATOM     10  C   UNL     1       5.697  -3.821  24.311  0.00  0.00    +0.115 C 
ENDBRANCH   2   9
ENDBRANCH   1   2
BRANCH   1  11
ATOM     11  C   UNL     1       8.732  -2.238  25.568  0.00  0.00    +0.001 C 
BRANCH  11  12
ATOM     12  C   UNL     1       9.332  -1.078  24.778  0.00  0.00    +0.000 C 
BRANCH  12  13
ATOM     13  C   UNL     1       8.607  -0.886  23.448  0.00  0.00    +0.000 C 
BRANCH  13  14
ATOM     14  C   UNL     1       9.559  -1.096  22.274  0.00  0.00    +0.002 C 
BRANCH  14  15
ATOM     15  C   UNL     1       9.320  -0.064  21.175  0.00  0.00    +0.019 C 
BRANCH  15  16
ATOM     16  C   UNL     1       8.897   1.279  21.766  0.00  0.00    +0.104 C 
BRANCH  16  17
ATOM     17  N   UNL     1      10.022   2.180  21.886  0.00  0.00    -0.318 N 
ATOM     18  H   UNL     1      10.428   2.570  21.045  0.00  0.00    +0.148 HD
ATOM     19  C   UNL     1      10.456   2.636  23.102  0.00  0.00    +0.325 C 
ATOM     20  O   UNL     1      10.000   2.323  24.191  0.00  0.00    -0.280 OA
ENDBRANCH  16  17
ENDBRANCH  15  16
ENDBRANCH  14  15
ENDBRANCH  13  14
ENDBRANCH  12  13
ENDBRANCH  11  12
ENDBRANCH   1  11
TORSDOF 9
ENDMDL
MODEL 3
REMARK VINA RESULT:      -5.5      2.814      8.467
REMARK  Name = 
REMARK  11 active torsions:
REMARK  status: ('A' for Active; 'I' for Inactive)
REMARK    1  A    between atoms: C_2  and  C_3
REMARK    2  A    between atoms: N_5  and  C_6
REMARK    3  A    between atoms: C_6  and  C_7
REMARK    4  A    between atoms: C_7  and  C_8
REMARK    5  A    between atoms: C_8  and  C_9
REMARK    6  A    between atoms: C_9  and  C_10
REMARK    7  A    between atoms: C_10  and  C_11
REMARK    8  A    between atoms: C_11  and  C_12
REMARK    9  A    between atoms: C_12  and  C_13
REMARK   10  A    between atoms: C_13  and  N_14
REMARK   11  A    between atoms: C_18  and  C_20
REMARK                            x       y       z     vdW  Elec       q    Type
REMARK                         _______ _______ _______ _____ _____    ______ ____
ROOT
ATOM      1  C   UNL     1       8.901  -2.576  24.593  0.00  0.00    +0.015 C 
ENDROOT
BRANCH   1   2
ATOM      2  C   UNL     1       9.962  -1.940  23.683  0.00  0.00    +0.084 C 
BRANCH   2   9
ATOM      3  C   UNL     1      10.344   1.855  23.915  0.00  0.00    +0.130 C 
ATOM      4  C   UNL     1       9.098   2.337  24.655  0.00  0.00    +0.039 C 
ATOM      5  O   UNL     1      10.311   2.183  22.518  0.00  0.00    -0.371 OA
ATOM      6  C   UNL     1       9.577   1.276  21.681  0.00  0.00    +0.130 C 
ATOM      7  C   UNL     1       8.082   1.583  21.683  0.00  0.00    +0.039 C 
ATOM      8  C   UNL     1       9.888  -0.206  21.986  0.00  0.00    +0.115 C 
ATOM      9  N   UNL     1       9.728  -0.515  23.420  0.00  0.00    -0.297 NA
ATOM     10  C   UNL     1      10.647   0.364  24.169  0.00  0.00    +0.115 C 
ENDBRANCH   2   9
ENDBRANCH   1   2
BRANCH   1  11
ATOM     11  C   UNL     1       8.355  -3.893  24.033  0.00  0.00    +0.001 C 
BRANCH  11  12
ATOM     12  C   UNL     1       8.463  -5.012  25.067  0.00  0.00    +0.000 C 
BRANCH  12  13
ATOM     13  C   UNL     1       7.126  -5.242  25.769  0.00  0.00    +0.000 C 
BRANCH  13  14
ATOM     14  C   UNL     1       5.963  -4.828  24.873  0.00  0.00    +0.002 C 
BRANCH  14  15
ATOM     15  C   UNL     1       5.135  -6.038  24.447  0.00  0.00    +0.019 C 
BRANCH  15  16
ATOM     16  C   UNL     1       4.650  -5.892  23.007  0.00  0.00    +0.104 C 
BRANCH  16  17
ATOM     17  N   UNL     1       5.630  -6.392  22.068  0.00  0.00    -0.318 N 
ATOM     18  H   UNL     1       5.845  -7.381  22.066  0.00  0.00    +0.148 HD
ATOM     19  C   UNL     1       6.161  -5.599  21.086  0.00  0.00    +0.325 C 
ATOM     20  O   UNL     1       5.920  -4.414  20.913  0.00  0.00    -0.280 OA
ENDBRANCH  16  17
ENDBRANCH  15  16
ENDBRANCH  14  15
ENDBRANCH  13  14
ENDBRANCH  12  13
ENDBRANCH  11  12
ENDBRANCH   1  11
TORSDOF 9
ENDMDL
MODEL 4
REMARK VINA RESULT:      -5.4      2.962      7.147
REMARK  Name = 
REMARK  11 active torsions:
REMARK  status: ('A' for Active; 'I' for Inactive)
REMARK    1  A    between atoms: C_2  and  C_3
REMARK    2  A    between atoms: N_5  and  C_6
REMARK    3  A    between atoms: C_6  and  C_7
REMARK    4  A    between atoms: C_7  and  C_8
REMARK    5  A    between atoms: C_8  and  C_9
REMARK    6  A    between atoms: C_9  and  C_10
REMARK    7  A    between atoms: C_10  and  C_11
REMARK    8  A    between atoms: C_11  and  C_12
REMARK    9  A    between atoms: C_12  and  C_13
REMARK   10  A    between atoms: C_13  and  N_14
REMARK   11  A    between atoms: C_18  and  C_20
REMARK                            x       y       z     vdW  Elec       q    Type
REMARK                         _______ _______ _______ _____ _____    ______ ____
ROOT
ATOM      1  C   UNL     1       9.112  -2.794  24.703  0.00  0.00    +0.015 C 
ENDROOT
BRANCH   1   2
ATOM      2  C   UNL     1       9.865  -2.183  23.512  0.00  0.00    +0.084 C 
BRANCH   2   9
ATOM      3  C   UNL     1      10.177   1.563  24.196  0.00  0.00    +0.130 C 
ATOM      4  C   UNL     1       8.832   1.972  24.795  0.00  0.00    +0.039 C 
ATOM      5  O   UNL     1      10.343   2.037  22.852  0.00  0.00    -0.371 OA
ATOM      6  C   UNL     1       9.745   1.228  21.826  0.00  0.00    +0.130 C 
ATOM      7  C   UNL     1       8.263   1.543  21.644  0.00  0.00    +0.039 C 
ATOM      8  C   UNL     1      10.022  -0.279  22.015  0.00  0.00    +0.115 C 
ATOM      9  N   UNL     1       9.659  -0.737  23.370  0.00  0.00    -0.297 NA
ATOM     10  C   UNL     1      10.452   0.051  24.333  0.00  0.00    +0.115 C 
ENDBRANCH   2   9
ENDBRANCH   1   2
BRANCH   1  11
ATOM     11  C   UNL     1       9.595  -4.206  25.048  0.00  0.00    +0.001 C 
BRANCH  11  12
ATOM     12  C   UNL     1       8.651  -5.261  24.475  0.00  0.00    +0.000 C 
BRANCH  12  13
ATOM     13  C   UNL     1       7.237  -4.705  24.319  0.00  0.00    +0.000 C 
BRANCH  13  14
ATOM     14  C   UNL     1       6.711  -4.947  22.906  0.00  0.00    +0.002 C 
BRANCH  14  15
ATOM     15  C   UNL     1       6.713  -3.659  22.087  0.00  0.00    +0.019 C 
BRANCH  15  16
ATOM     16  C   UNL     1       5.751  -2.632  22.677  0.00  0.00    +0.104 C 
BRANCH  16  17
ATOM     17  N   UNL     1       6.420  -1.379  22.951  0.00  0.00    -0.318 N 
ATOM     18  H   UNL     1       7.026  -0.983  22.244  0.00  0.00    +0.148 HD
ATOM     19  C   UNL     1       6.141  -0.642  24.071  0.00  0.00    +0.325 C 
ATOM     20  O   UNL     1       5.364  -0.952  24.960  0.00  0.00    -0.280 OA
ENDBRANCH  16  17
ENDBRANCH  15  16
ENDBRANCH  14  15
ENDBRANCH  13  14
ENDBRANCH  12  13
ENDBRANCH  11  12
ENDBRANCH   1  11
TORSDOF 9
ENDMDL
MODEL 5
REMARK VINA RESULT:      -5.4      3.208      7.709
REMARK  Name = 
REMARK  11 active torsions:
REMARK  status: ('A' for Active; 'I' for Inactive)
REMARK    1  A    between atoms: C_2  and  C_3
REMARK    2  A    between atoms: N_5  and  C_6
REMARK    3  A    between atoms: C_6  and  C_7
REMARK    4  A    between atoms: C_7  and  C_8
REMARK    5  A    between atoms: C_8  and  C_9
REMARK    6  A    between atoms: C_9  and  C_10
REMARK    7  A    between atoms: C_10  and  C_11
REMARK    8  A    between atoms: C_11  and  C_12
REMARK    9  A    between atoms: C_12  and  C_13
REMARK   10  A    between atoms: C_13  and  N_14
REMARK   11  A    between atoms: C_18  and  C_20
REMARK                            x       y       z     vdW  Elec       q    Type
REMARK                         _______ _______ _______ _____ _____    ______ ____
ROOT
ATOM      1  C   UNL     1       6.532  -2.982  22.367  0.00  0.00    +0.015 C 
ENDROOT
BRANCH   1   2
ATOM      2  C   UNL     1       8.002  -2.950  22.812  0.00  0.00    +0.084 C 
BRANCH   2   9
ATOM      3  C   UNL     1      10.023  -0.019  24.198  0.00  0.00    +0.130 C 
ATOM      4  C   UNL     1       8.992   0.906  24.843  0.00  0.00    +0.039 C 
ATOM      5  O   UNL     1      10.543   0.512  22.971  0.00  0.00    -0.371 OA
ATOM      6  C   UNL     1       9.742   0.281  21.801  0.00  0.00    +0.130 C 
ATOM      7  C   UNL     1       8.631   1.318  21.659  0.00  0.00    +0.039 C 
ATOM      8  C   UNL     1       9.227  -1.171  21.706  0.00  0.00    +0.115 C 
ATOM      9  N   UNL     1       8.543  -1.593  22.943  0.00  0.00    -0.297 NA
ATOM     10  C   UNL     1       9.510  -1.467  24.051  0.00  0.00    +0.115 C 
ENDBRANCH   2   9
ENDBRANCH   1   2
BRANCH   1  11
ATOM     11  C   UNL     1       6.068  -4.384  21.957  0.00  0.00    +0.001 C 
BRANCH  11  12
ATOM     12  C   UNL     1       6.408  -5.408  23.037  0.00  0.00    +0.000 C 
BRANCH  12  13
ATOM     13  C   UNL     1       5.165  -5.802  23.832  0.00  0.00    +0.000 C 
BRANCH  13  14
ATOM     14  C   UNL     1       5.471  -5.857  25.327  0.00  0.00    +0.002 C 
BRANCH  14  15
ATOM     15  C   UNL     1       6.486  -4.789  25.724  0.00  0.00    +0.019 C 
BRANCH  15  16
ATOM     16  C   UNL     1       7.540  -5.359  26.670  0.00  0.00    +0.104 C 
BRANCH  16  17
ATOM     17  N   UNL     1       8.796  -4.651  26.548  0.00  0.00    -0.318 N 
ATOM     18  H   UNL     1       9.082  -4.030  27.294  0.00  0.00    +0.148 HD
ATOM     19  C   UNL     1       9.675  -4.910  25.531  0.00  0.00    +0.325 C 
ATOM     20  O   UNL     1       9.502  -5.701  24.616  0.00  0.00    -0.280 OA
ENDBRANCH  16  17
ENDBRANCH  15  16
ENDBRANCH  14  15
ENDBRANCH  13  14
ENDBRANCH  12  13
ENDBRANCH  11  12
ENDBRANCH   1  11
TORSDOF 9
ENDMDL
MODEL 6
REMARK VINA RESULT:      -5.4      2.573      3.741
REMARK  Name = 
REMARK  11 active torsions:
REMARK  status: ('A' for Active; 'I' for Inactive)
REMARK    1  A    between atoms: C_2  and  C_3
REMARK    2  A    between atoms: N_5  and  C_6
REMARK    3  A    between atoms: C_6  and  C_7
REMARK    4  A    between atoms: C_7  and  C_8
REMARK    5  A    between atoms: C_8  and  C_9
REMARK    6  A    between atoms: C_9  and  C_10
REMARK    7  A    between atoms: C_10  and  C_11
REMARK    8  A    between atoms: C_11  and  C_12
REMARK    9  A    between atoms: C_12  and  C_13
REMARK   10  A    between atoms: C_13  and  N_14
REMARK   11  A    between atoms: C_18  and  C_20
REMARK                            x       y       z     vdW  Elec       q    Type
REMARK                         _______ _______ _______ _____ _____    ______ ____
ROOT
ATOM      1  C   UNL     1       6.810  -3.203  22.041  0.00  0.00    +0.015 C 
ENDROOT
BRANCH   1   2
ATOM      2  C   UNL     1       6.666  -4.617  22.622  0.00  0.00    +0.084 C 
BRANCH   2   9
ATOM      3  C   UNL     1       6.117  -5.529  26.292  0.00  0.00    +0.130 C 
ATOM      4  C   UNL     1       5.645  -4.238  26.957  0.00  0.00    +0.039 C 
ATOM      5  O   UNL     1       7.462  -5.870  26.656  0.00  0.00    -0.371 OA
ATOM      6  C   UNL     1       8.498  -5.215  25.906  0.00  0.00    +0.130 C 
ATOM      7  C   UNL     1       8.810  -3.827  26.459  0.00  0.00    +0.039 C 
ATOM      8  C   UNL     1       8.224  -5.210  24.386  0.00  0.00    +0.115 C 
ATOM      9  N   UNL     1       6.884  -4.677  24.072  0.00  0.00    -0.297 NA
ATOM     10  C   UNL     1       5.896  -5.526  24.766  0.00  0.00    +0.115 C 
ENDBRANCH   2   9
ENDBRANCH   1   2
BRANCH   1  11
ATOM     11  C   UNL     1       6.586  -2.107  23.088  0.00  0.00    +0.001 C 
BRANCH  11  12
ATOM     12  C   UNL     1       7.848  -1.268  23.277  0.00  0.00    +0.000 C 
BRANCH  12  13
ATOM     13  C   UNL     1       9.067  -1.966  22.679  0.00  0.00    +0.000 C 
BRANCH  13  14
ATOM     14  C   UNL     1       9.865  -1.007  21.799  0.00  0.00    +0.002 C 
BRANCH  14  15
ATOM     15  C   UNL     1       9.117   0.307  21.592  0.00  0.00    +0.019 C 
BRANCH  15  16
ATOM     16  C   UNL     1       9.969   1.498  22.024  0.00  0.00    +0.104 C 
BRANCH  16  17
ATOM     17  N   UNL     1       9.434   2.125  23.212  0.00  0.00    -0.318 N 
ATOM     18  H   UNL     1       8.707   2.823  23.112  0.00  0.00    +0.148 HD
ATOM     19  C   UNL     1       9.771   1.699  24.468  0.00  0.00    +0.325 C 
ATOM     20  O   UNL     1      10.562   0.807  24.736  0.00  0.00    -0.280 OA
ENDBRANCH  16  17
ENDBRANCH  15  16
ENDBRANCH  14  15
ENDBRANCH  13  14
ENDBRANCH  12  13
ENDBRANCH  11  12
ENDBRANCH   1  11
TORSDOF 9
ENDMDL
MODEL 7
REMARK VINA RESULT:      -5.4      2.855      8.864
REMARK  Name = 
REMARK  11 active torsions:
REMARK  status: ('A' for Active; 'I' for Inactive)
REMARK    1  A    between atoms: C_2  and  C_3
REMARK    2  A    between atoms: N_5  and  C_6
REMARK    3  A    between atoms: C_6  and  C_7
REMARK    4  A    between atoms: C_7  and  C_8
REMARK    5  A    between atoms: C_8  and  C_9
REMARK    6  A    between atoms: C_9  and  C_10
REMARK    7  A    between atoms: C_10  and  C_11
REMARK    8  A    between atoms: C_11  and  C_12
REMARK    9  A    between atoms: C_12  and  C_13
REMARK   10  A    between atoms: C_13  and  N_14
REMARK   11  A    between atoms: C_18  and  C_20
REMARK                            x       y       z     vdW  Elec       q    Type
REMARK                         _______ _______ _______ _____ _____    ______ ____
ROOT
ATOM      1  C   UNL     1       9.225  -2.658  24.672  0.00  0.00    +0.015 C 
ENDROOT
BRANCH   1   2
ATOM      2  C   UNL     1       9.681  -2.068  23.329  0.00  0.00    +0.084 C 
BRANCH   2   9
ATOM      3  C   UNL     1      10.174   1.621  24.191  0.00  0.00    +0.130 C 
ATOM      4  C   UNL     1       8.850   2.066  24.811  0.00  0.00    +0.039 C 
ATOM      5  O   UNL     1      10.364   2.150  22.871  0.00  0.00    -0.371 OA
ATOM      6  C   UNL     1       9.729   1.422  21.809  0.00  0.00    +0.130 C 
ATOM      7  C   UNL     1       8.263   1.817  21.644  0.00  0.00    +0.039 C 
ATOM      8  C   UNL     1       9.931  -0.104  21.924  0.00  0.00    +0.115 C 
ATOM      9  N   UNL     1       9.545  -0.609  23.257  0.00  0.00    -0.297 NA
ATOM     10  C   UNL     1      10.375   0.093  24.255  0.00  0.00    +0.115 C 
ENDBRANCH   2   9
ENDBRANCH   1   2
BRANCH   1  11
ATOM     11  C   UNL     1       9.399  -4.179  24.739  0.00  0.00    +0.001 C 
BRANCH  11  12
ATOM     12  C   UNL     1       8.072  -4.867  25.053  0.00  0.00    +0.000 C 
BRANCH  12  13
ATOM     13  C   UNL     1       7.033  -4.574  23.973  0.00  0.00    +0.000 C 
BRANCH  13  14
ATOM     14  C   UNL     1       7.327  -5.370  22.704  0.00  0.00    +0.002 C 
BRANCH  14  15
ATOM     15  C   UNL     1       6.051  -5.969  22.119  0.00  0.00    +0.019 C 
BRANCH  15  16
ATOM     16  C   UNL     1       4.821  -5.507  22.896  0.00  0.00    +0.104 C 
BRANCH  16  17
ATOM     17  N   UNL     1       3.999  -6.628  23.296  0.00  0.00    -0.318 N 
ATOM     18  H   UNL     1       3.410  -7.074  22.605  0.00  0.00    +0.148 HD
ATOM     19  C   UNL     1       4.107  -7.196  24.538  0.00  0.00    +0.325 C 
ATOM     20  O   UNL     1       4.843  -6.820  25.438  0.00  0.00    -0.280 OA
ENDBRANCH  16  17
ENDBRANCH  15  16
ENDBRANCH  14  15
ENDBRANCH  13  14
ENDBRANCH  12  13
ENDBRANCH  11  12
ENDBRANCH   1  11
TORSDOF 9
ENDMDL
MODEL 8
REMARK VINA RESULT:      -5.3      1.548      2.648
REMARK  Name = 
REMARK  11 active torsions:
REMARK  status: ('A' for Active; 'I' for Inactive)
REMARK    1  A    between atoms: C_2  and  C_3
REMARK    2  A    between atoms: N_5  and  C_6
REMARK    3  A    between atoms: C_6  and  C_7
REMARK    4  A    between atoms: C_7  and  C_8
REMARK    5  A    between atoms: C_8  and  C_9
REMARK    6  A    between atoms: C_9  and  C_10
REMARK    7  A    between atoms: C_10  and  C_11
REMARK    8  A    between atoms: C_11  and  C_12
REMARK    9  A    between atoms: C_12  and  C_13
REMARK   10  A    between atoms: C_13  and  N_14
REMARK   11  A    between atoms: C_18  and  C_20
REMARK                            x       y       z     vdW  Elec       q    Type
REMARK                         _______ _______ _______ _____ _____    ______ ____
ROOT
ATOM      1  C   UNL     1       9.189  -1.924  24.047  0.00  0.00    +0.015 C 
ENDROOT
BRANCH   1   2
ATOM      2  C   UNL     1       9.116  -3.456  24.134  0.00  0.00    +0.084 C 
BRANCH   2   9
ATOM      3  C   UNL     1       5.368  -4.189  24.205  0.00  0.00    +0.130 C 
ATOM      4  C   UNL     1       5.256  -5.657  24.614  0.00  0.00    +0.039 C 
ATOM      5  O   UNL     1       5.059  -3.983  22.819  0.00  0.00    -0.371 OA
ATOM      6  C   UNL     1       6.133  -4.225  21.897  0.00  0.00    +0.130 C 
ATOM      7  C   UNL     1       6.257  -5.704  21.543  0.00  0.00    +0.039 C 
ATOM      8  C   UNL     1       7.469  -3.602  22.357  0.00  0.00    +0.115 C 
ATOM      9  N   UNL     1       7.814  -4.002  23.736  0.00  0.00    -0.297 NA
ATOM     10  C   UNL     1       6.715  -3.560  24.615  0.00  0.00    +0.115 C 
ENDBRANCH   2   9
ENDBRANCH   1   2
BRANCH   1  11
ATOM     11  C   UNL     1      10.319  -1.437  23.133  0.00  0.00    +0.001 C 
BRANCH  11  12
ATOM     12  C   UNL     1       9.761  -0.874  21.828  0.00  0.00    +0.000 C 
BRANCH  12  13
ATOM     13  C   UNL     1       8.997   0.425  22.073  0.00  0.00    +0.000 C 
BRANCH  13  14
ATOM     14  C   UNL     1       9.905   1.636  21.871  0.00  0.00    +0.002 C 
BRANCH  14  15
ATOM     15  C   UNL     1       9.684   2.680  22.963  0.00  0.00    +0.019 C 
BRANCH  15  16
ATOM     16  C   UNL     1      11.014   3.231  23.472  0.00  0.00    +0.104 C 
BRANCH  16  17
ATOM     17  N   UNL     1      11.074   4.670  23.337  0.00  0.00    -0.318 N 
ATOM     18  H   UNL     1      10.214   5.202  23.376  0.00  0.00    +0.148 HD
ATOM     19  C   UNL     1      12.266   5.344  23.310  0.00  0.00    +0.325 C 
ATOM     20  O   UNL     1      13.378   4.838  23.350  0.00  0.00    -0.280 OA
ENDBRANCH  16  17
ENDBRANCH  15  16
ENDBRANCH  14  15
ENDBRANCH  13  14
ENDBRANCH  12  13
ENDBRANCH  11  12
ENDBRANCH   1  11
TORSDOF 9
ENDMDL
MODEL 9
REMARK VINA RESULT:      -5.2      2.993      7.773
REMARK  Name = 
REMARK  11 active torsions:
REMARK  status: ('A' for Active; 'I' for Inactive)
REMARK    1  A    between atoms: C_2  and  C_3
REMARK    2  A    between atoms: N_5  and  C_6
REMARK    3  A    between atoms: C_6  and  C_7
REMARK    4  A    between atoms: C_7  and  C_8
REMARK    5  A    between atoms: C_8  and  C_9
REMARK    6  A    between atoms: C_9  and  C_10
REMARK    7  A    between atoms: C_10  and  C_11
REMARK    8  A    between atoms: C_11  and  C_12
REMARK    9  A    between atoms: C_12  and  C_13
REMARK   10  A    between atoms: C_13  and  N_14
REMARK   11  A    between atoms: C_18  and  C_20
REMARK                            x       y       z     vdW  Elec       q    Type
REMARK                         _______ _______ _______ _____ _____    ______ ____
ROOT
ATOM      1  C   UNL     1       5.981  -1.630  24.385  0.00  0.00    +0.015 C 
ENDROOT
BRANCH   1   2
ATOM      2  C   UNL     1       7.324  -1.571  25.126  0.00  0.00    +0.084 C 
BRANCH   2   9
ATOM      3  C   UNL     1      10.260   0.830  24.663  0.00  0.00    +0.130 C 
ATOM      4  C   UNL     1       9.633   2.138  24.185  0.00  0.00    +0.039 C 
ATOM      5  O   UNL     1      10.964   0.146  23.616  0.00  0.00    -0.371 OA
ATOM      6  C   UNL     1      10.157  -0.666  22.749  0.00  0.00    +0.130 C 
ATOM      7  C   UNL     1       9.511   0.157  21.637  0.00  0.00    +0.039 C 
ATOM      8  C   UNL     1       9.142  -1.539  23.518  0.00  0.00    +0.115 C 
ATOM      9  N   UNL     1       8.327  -0.738  24.452  0.00  0.00    -0.297 NA
ATOM     10  C   UNL     1       9.251  -0.079  25.395  0.00  0.00    +0.115 C 
ENDBRANCH   2   9
ENDBRANCH   1   2
BRANCH   1  11
ATOM     11  C   UNL     1       5.584  -3.057  23.992  0.00  0.00    +0.001 C 
BRANCH  11  12
ATOM     12  C   UNL     1       6.089  -3.398  22.592  0.00  0.00    +0.000 C 
BRANCH  12  13
ATOM     13  C   UNL     1       7.106  -4.537  22.638  0.00  0.00    +0.000 C 
BRANCH  13  14
ATOM     14  C   UNL     1       7.202  -5.124  24.043  0.00  0.00    +0.002 C 
BRANCH  14  15
ATOM     15  C   UNL     1       8.646  -5.145  24.537  0.00  0.00    +0.019 C 
BRANCH  15  16
ATOM     16  C   UNL     1       8.719  -4.852  26.033  0.00  0.00    +0.104 C 
BRANCH  16  17
ATOM     17  N   UNL     1       7.955  -5.815  26.797  0.00  0.00    -0.318 N 
ATOM     18  H   UNL     1       8.300  -6.763  26.873  0.00  0.00    +0.148 HD
ATOM     19  C   UNL     1       6.866  -5.447  27.540  0.00  0.00    +0.325 C 
ATOM     20  O   UNL     1       6.395  -4.322  27.616  0.00  0.00    -0.280 OA
ENDBRANCH  16  17
ENDBRANCH  15  16
ENDBRANCH  14  15
ENDBRANCH  13  14
ENDBRANCH  12  13
ENDBRANCH  11  12
ENDBRANCH   1  11
TORSDOF 9
ENDMDL
