MODEL 1
REMARK VINA RESULT:      -7.8      0.000      0.000
REMARK  Name = 
REMARK  6 active torsions:
REMARK  status: ('A' for Active; 'I' for Inactive)
REMARK    1  A    between atoms: C_2  and  C_3
REMARK    2  A    between atoms: C_2  and  N_4
REMARK    3  A    between atoms: C_2  and  C_26
REMARK    4  A    between atoms: C_7  and  N_9
REMARK    5  A    between atoms: N_9  and  S_10
REMARK    6  A    between atoms: S_10  and  C_13
REMARK                            x       y       z     vdW  Elec       q    Type
REMARK                         _______ _______ _______ _____ _____    ______ ____
ROOT
ATOM      1  N   UNL     1      10.163   1.507  23.132  0.00  0.00    -0.289 N 
ATOM      2  C   UNL     1      10.259   0.310  23.832  0.00  0.00    +0.235 C 
ATOM      3  O   UNL     1      10.697   0.184  24.966  0.00  0.00    -0.274 OA
ATOM      4  C   UNL     1       9.658  -0.817  22.982  0.00  0.00    +0.164 C 
ATOM      5  C   UNL     1       9.004  -0.057  21.829  0.00  0.00    +0.049 C 
ATOM      6  C   UNL     1       9.659   1.301  21.800  0.00  0.00    +0.110 C 
ENDROOT
BRANCH   1   7
ATOM      7  C   UNL     1      10.017   2.816  23.799  0.00  0.00    +0.159 C 
ATOM      8  C   UNL     1      11.194   3.737  23.454  0.00  0.00    +0.038 C 
BRANCH   7   9
ATOM      9  C   UNL     1       8.671   3.556  23.572  0.00  0.00    +0.236 C 
ATOM     10  N   UNL     1       7.511   3.028  24.108  0.00  0.00    -0.296 N 
ATOM     11  C   UNL     1       7.407   1.947  25.087  0.00  0.00    +0.136 C 
ATOM     12  C   UNL     1       6.338   0.941  24.651  0.00  0.00    +0.179 C 
ATOM     13  O   UNL     1       5.077   1.594  24.433  0.00  0.00    -0.377 OA
ATOM     14  C   UNL     1       5.198   2.601  23.412  0.00  0.00    +0.179 C 
ATOM     15  C   UNL     1       6.230   3.665  23.804  0.00  0.00    +0.136 C 
ATOM     16  O   UNL     1       8.657   4.665  23.026  0.00  0.00    -0.274 OA
ENDBRANCH   7   9
ENDBRANCH   1   7
BRANCH   4  17
ATOM     17  N   UNL     1       8.643  -1.503  23.799  0.00  0.00    -0.178 NA
ATOM     18  H   UNL     1       7.667  -1.413  23.513  0.00  0.00    +0.149 HD
BRANCH  17  19
ATOM     19  S   UNL     1       8.973  -2.885  24.665  0.00  0.00    +0.059 S 
ATOM     20  O   UNL     1       8.939  -2.571  26.077  0.00  0.00    -0.153 OA
ATOM     21  O   UNL     1      10.143  -3.475  24.049  0.00  0.00    -0.153 OA
BRANCH  19  22
ATOM     22  C   UNL     1       7.593  -3.931  24.298  0.00  0.00    +0.106 A 
ATOM     23  C   UNL     1       7.053  -3.942  23.009  0.00  0.00    +0.029 A 
ATOM     24  C   UNL     1       5.939  -4.737  22.738  0.00  0.00    +0.010 A 
ATOM     25  C   UNL     1       5.355  -5.517  23.747  0.00  0.00    -0.016 A 
ATOM     26  C   UNL     1       5.893  -5.482  25.059  0.00  0.00    -0.016 A 
ATOM     27  C   UNL     1       5.295  -6.255  26.068  0.00  0.00    +0.010 A 
ATOM     28  C   UNL     1       4.190  -7.062  25.786  0.00  0.00    +0.020 A 
ATOM     29  C   UNL     1       3.674  -7.100  24.494  0.00  0.00    +0.042 A 
ATOM     30 CL   UNL     1       2.321  -8.104  24.143  0.00  0.00    -0.084 Cl
ATOM     31  C   UNL     1       4.245  -6.332  23.480  0.00  0.00    +0.028 A 
ATOM     32  C   UNL     1       7.014  -4.682  25.323  0.00  0.00    +0.037 A 
ENDBRANCH  19  22
ENDBRANCH  17  19
ENDBRANCH   4  17
TORSDOF 5
ENDMDL
MODEL 2
REMARK VINA RESULT:      -7.6      3.796      8.558
REMARK  Name = 
REMARK  6 active torsions:
REMARK  status: ('A' for Active; 'I' for Inactive)
REMARK    1  A    between atoms: C_2  and  C_3
REMARK    2  A    between atoms: C_2  and  N_4
REMARK    3  A    between atoms: C_2  and  C_26
REMARK    4  A    between atoms: C_7  and  N_9
REMARK    5  A    between atoms: N_9  and  S_10
REMARK    6  A    between atoms: S_10  and  C_13
REMARK                            x       y       z     vdW  Elec       q    Type
REMARK                         _______ _______ _______ _____ _____    ______ ____
ROOT
ATOM      1  N   UNL     1       4.857  -4.769  22.858  0.00  0.00    -0.289 N 
ATOM      2  C   UNL     1       5.447  -3.525  23.049  0.00  0.00    +0.235 C 
ATOM      3  O   UNL     1       4.949  -2.590  23.660  0.00  0.00    -0.274 OA
ATOM      4  C   UNL     1       6.854  -3.538  22.437  0.00  0.00    +0.164 C 
ATOM      5  C   UNL     1       7.058  -5.012  22.095  0.00  0.00    +0.049 C 
ATOM      6  C   UNL     1       5.681  -5.624  22.045  0.00  0.00    +0.110 C 
ENDROOT
BRANCH   1   7
ATOM      7  C   UNL     1       3.871  -5.342  23.796  0.00  0.00    +0.159 C 
ATOM      8  C   UNL     1       2.760  -6.075  23.035  0.00  0.00    +0.038 C 
BRANCH   7   9
ATOM      9  C   UNL     1       4.440  -6.247  24.921  0.00  0.00    +0.236 C 
ATOM     10  N   UNL     1       4.776  -5.681  26.137  0.00  0.00    -0.296 N 
ATOM     11  C   UNL     1       4.447  -4.335  26.603  0.00  0.00    +0.136 C 
ATOM     12  C   UNL     1       5.683  -3.672  27.217  0.00  0.00    +0.179 C 
ATOM     13  O   UNL     1       6.235  -4.485  28.265  0.00  0.00    -0.377 OA
ATOM     14  C   UNL     1       6.616  -5.776  27.757  0.00  0.00    +0.179 C 
ATOM     15  C   UNL     1       5.412  -6.513  27.160  0.00  0.00    +0.136 C 
ATOM     16  O   UNL     1       4.474  -7.474  24.774  0.00  0.00    -0.274 OA
ENDBRANCH   7   9
ENDBRANCH   1   7
BRANCH   4  17
ATOM     17  N   UNL     1       7.801  -3.105  23.479  0.00  0.00    -0.178 NA
ATOM     18  H   UNL     1       7.847  -3.660  24.334  0.00  0.00    +0.149 HD
BRANCH  17  19
ATOM     19  S   UNL     1       9.200  -2.276  23.130  0.00  0.00    +0.059 S 
ATOM     20  O   UNL     1       9.317  -2.139  21.694  0.00  0.00    -0.153 OA
ATOM     21  O   UNL     1      10.243  -2.897  23.919  0.00  0.00    -0.153 OA
BRANCH  19  22
ATOM     22  C   UNL     1       8.899  -0.671  23.814  0.00  0.00    +0.106 A 
ATOM     23  C   UNL     1       7.897  -0.502  24.774  0.00  0.00    +0.029 A 
ATOM     24  C   UNL     1       7.637   0.773  25.277  0.00  0.00    +0.010 A 
ATOM     25  C   UNL     1       8.365   1.883  24.826  0.00  0.00    -0.016 A 
ATOM     26  C   UNL     1       9.364   1.708  23.833  0.00  0.00    -0.016 A 
ATOM     27  C   UNL     1      10.080   2.826  23.375  0.00  0.00    +0.010 A 
ATOM     28  C   UNL     1       9.827   4.097  23.896  0.00  0.00    +0.020 A 
ATOM     29  C   UNL     1       8.853   4.260  24.877  0.00  0.00    +0.042 A 
ATOM     30 CL   UNL     1       8.550   5.823  25.528  0.00  0.00    -0.084 Cl
ATOM     31  C   UNL     1       8.122   3.165  25.338  0.00  0.00    +0.028 A 
ATOM     32  C   UNL     1       9.621   0.423  23.334  0.00  0.00    +0.037 A 
ENDBRANCH  19  22
ENDBRANCH  17  19
ENDBRANCH   4  17
TORSDOF 5
ENDMDL
MODEL 3
REMARK VINA RESULT:      -7.6      4.529      8.962
REMARK  Name = 
REMARK  6 active torsions:
REMARK  status: ('A' for Active; 'I' for Inactive)
REMARK    1  A    between atoms: C_2  and  C_3
REMARK    2  A    between atoms: C_2  and  N_4
REMARK    3  A    between atoms: C_2  and  C_26
REMARK    4  A    between atoms: C_7  and  N_9
REMARK    5  A    between atoms: N_9  and  S_10
REMARK    6  A    between atoms: S_10  and  C_13
REMARK                            x       y       z     vdW  Elec       q    Type
REMARK                         _______ _______ _______ _____ _____    ______ ____
ROOT
ATOM      1  N   UNL     1       4.771  -6.289  27.011  0.00  0.00    -0.289 N 
ATOM      2  C   UNL     1       5.412  -6.317  25.777  0.00  0.00    +0.235 C 
ATOM      3  O   UNL     1       5.011  -6.903  24.783  0.00  0.00    -0.274 OA
ATOM      4  C   UNL     1       6.664  -5.432  25.843  0.00  0.00    +0.164 C 
ATOM      5  C   UNL     1       6.506  -4.725  27.187  0.00  0.00    +0.049 C 
ATOM      6  C   UNL     1       5.537  -5.559  27.986  0.00  0.00    +0.110 C 
ENDROOT
BRANCH   1   7
ATOM      7  C   UNL     1       3.310  -6.441  27.159  0.00  0.00    +0.159 C 
ATOM      8  C   UNL     1       2.899  -6.326  28.632  0.00  0.00    +0.038 C 
BRANCH   7   9
ATOM      9  C   UNL     1       2.431  -5.511  26.281  0.00  0.00    +0.236 C 
ATOM     10  N   UNL     1       1.717  -6.052  25.229  0.00  0.00    -0.296 N 
ATOM     11  C   UNL     1       1.491  -7.471  24.956  0.00  0.00    +0.136 C 
ATOM     12  C   UNL     1       1.747  -7.771  23.476  0.00  0.00    +0.179 C 
ATOM     13  O   UNL     1       0.947  -6.926  22.635  0.00  0.00    -0.377 OA
ATOM     14  C   UNL     1       1.247  -5.540  22.876  0.00  0.00    +0.179 C 
ATOM     15  C   UNL     1       0.975  -5.162  24.336  0.00  0.00    +0.136 C 
ATOM     16  O   UNL     1       2.274  -4.325  26.597  0.00  0.00    -0.274 OA
ENDBRANCH   7   9
ENDBRANCH   1   7
BRANCH   4  17
ATOM     17  N   UNL     1       6.591  -4.468  24.732  0.00  0.00    -0.178 NA
ATOM     18  H   UNL     1       6.105  -3.586  24.903  0.00  0.00    +0.149 HD
BRANCH  17  19
ATOM     19  S   UNL     1       7.745  -4.388  23.537  0.00  0.00    +0.059 S 
ATOM     20  O   UNL     1       7.087  -4.411  22.249  0.00  0.00    -0.153 OA
ATOM     21  O   UNL     1       8.756  -5.363  23.888  0.00  0.00    -0.153 OA
BRANCH  19  22
ATOM     22  C   UNL     1       8.453  -2.781  23.766  0.00  0.00    +0.106 A 
ATOM     23  C   UNL     1       8.719  -2.317  25.057  0.00  0.00    +0.029 A 
ATOM     24  C   UNL     1       9.236  -1.034  25.232  0.00  0.00    +0.010 A 
ATOM     25  C   UNL     1       9.486  -0.206  24.128  0.00  0.00    -0.016 A 
ATOM     26  C   UNL     1       9.191  -0.674  22.821  0.00  0.00    -0.016 A 
ATOM     27  C   UNL     1       9.430   0.165  21.721  0.00  0.00    +0.010 A 
ATOM     28  C   UNL     1       9.965   1.442  21.902  0.00  0.00    +0.020 A 
ATOM     29  C   UNL     1      10.262   1.892  23.185  0.00  0.00    +0.042 A 
ATOM     30 CL   UNL     1      10.933   3.460  23.407  0.00  0.00    -0.084 Cl
ATOM     31  C   UNL     1      10.021   1.079  24.293  0.00  0.00    +0.028 A 
ATOM     32  C   UNL     1       8.673  -1.966  22.654  0.00  0.00    +0.037 A 
ENDBRANCH  19  22
ENDBRANCH  17  19
ENDBRANCH   4  17
TORSDOF 5
ENDMDL
MODEL 4
REMARK VINA RESULT:      -7.5      3.820      8.072
REMARK  Name = 
REMARK  6 active torsions:
REMARK  status: ('A' for Active; 'I' for Inactive)
REMARK    1  A    between atoms: C_2  and  C_3
REMARK    2  A    between atoms: C_2  and  N_4
REMARK    3  A    between atoms: C_2  and  C_26
REMARK    4  A    between atoms: C_7  and  N_9
REMARK    5  A    between atoms: N_9  and  S_10
REMARK    6  A    between atoms: S_10  and  C_13
REMARK                            x       y       z     vdW  Elec       q    Type
REMARK                         _______ _______ _______ _____ _____    ______ ____
ROOT
ATOM      1  N   UNL     1       6.796  -5.217  25.780  0.00  0.00    -0.289 N 
ATOM      2  C   UNL     1       7.314  -4.649  24.621  0.00  0.00    +0.235 C 
ATOM      3  O   UNL     1       6.770  -4.649  23.527  0.00  0.00    -0.274 OA
ATOM      4  C   UNL     1       8.641  -3.954  24.954  0.00  0.00    +0.164 C 
ATOM      5  C   UNL     1       8.675  -4.005  26.480  0.00  0.00    +0.049 C 
ATOM      6  C   UNL     1       7.713  -5.094  26.882  0.00  0.00    +0.110 C 
ENDROOT
BRANCH   1   7
ATOM      7  C   UNL     1       5.348  -5.375  26.018  0.00  0.00    +0.159 C 
ATOM      8  C   UNL     1       5.022  -6.809  26.451  0.00  0.00    +0.038 C 
BRANCH   7   9
ATOM      9  C   UNL     1       4.697  -4.357  26.992  0.00  0.00    +0.236 C 
ATOM     10  N   UNL     1       4.462  -3.065  26.562  0.00  0.00    -0.296 N 
ATOM     11  C   UNL     1       4.539  -2.567  25.189  0.00  0.00    +0.136 C 
ATOM     12  C   UNL     1       5.318  -1.249  25.149  0.00  0.00    +0.179 C 
ATOM     13  O   UNL     1       4.740  -0.283  26.041  0.00  0.00    -0.377 OA
ATOM     14  C   UNL     1       4.748  -0.775  27.393  0.00  0.00    +0.179 C 
ATOM     15  C   UNL     1       3.949  -2.078  27.512  0.00  0.00    +0.136 C 
ATOM     16  O   UNL     1       4.282  -4.733  28.095  0.00  0.00    -0.274 OA
ENDBRANCH   7   9
ENDBRANCH   1   7
BRANCH   4  17
ATOM     17  N   UNL     1       8.553  -2.564  24.477  0.00  0.00    -0.178 NA
ATOM     18  H   UNL     1       8.434  -1.832  25.179  0.00  0.00    +0.149 HD
BRANCH  17  19
ATOM     19  S   UNL     1       9.280  -2.049  23.072  0.00  0.00    +0.059 S 
ATOM     20  O   UNL     1       8.393  -2.316  21.962  0.00  0.00    -0.153 OA
ATOM     21  O   UNL     1      10.631  -2.569  23.105  0.00  0.00    -0.153 OA
BRANCH  19  22
ATOM     22  C   UNL     1       9.380  -0.294  23.289  0.00  0.00    +0.106 A 
ATOM     23  C   UNL     1      10.388   0.250  24.091  0.00  0.00    +0.029 A 
ATOM     24  C   UNL     1      10.434   1.629  24.292  0.00  0.00    +0.010 A 
ATOM     25  C   UNL     1       9.479   2.471  23.703  0.00  0.00    -0.016 A 
ATOM     26  C   UNL     1       8.444   1.909  22.911  0.00  0.00    -0.016 A 
ATOM     27  C   UNL     1       7.483   2.756  22.336  0.00  0.00    +0.010 A 
ATOM     28  C   UNL     1       7.545   4.138  22.527  0.00  0.00    +0.020 A 
ATOM     29  C   UNL     1       8.569   4.684  23.296  0.00  0.00    +0.042 A 
ATOM     30 CL   UNL     1       8.654   6.387  23.520  0.00  0.00    -0.084 Cl
ATOM     31  C   UNL     1       9.527   3.860  23.886  0.00  0.00    +0.028 A 
ATOM     32  C   UNL     1       8.406   0.522  22.712  0.00  0.00    +0.037 A 
ENDBRANCH  19  22
ENDBRANCH  17  19
ENDBRANCH   4  17
TORSDOF 5
ENDMDL
MODEL 5
REMARK VINA RESULT:      -7.5      3.848      8.374
REMARK  Name = 
REMARK  6 active torsions:
REMARK  status: ('A' for Active; 'I' for Inactive)
REMARK    1  A    between atoms: C_2  and  C_3
REMARK    2  A    between atoms: C_2  and  N_4
REMARK    3  A    between atoms: C_2  and  C_26
REMARK    4  A    between atoms: C_7  and  N_9
REMARK    5  A    between atoms: N_9  and  S_10
REMARK    6  A    between atoms: S_10  and  C_13
REMARK                            x       y       z     vdW  Elec       q    Type
REMARK                         _______ _______ _______ _____ _____    ______ ____
ROOT
ATOM      1  N   UNL     1       6.280  -2.645  26.040  0.00  0.00    -0.289 N 
ATOM      2  C   UNL     1       7.628  -2.316  25.958  0.00  0.00    +0.235 C 
ATOM      3  O   UNL     1       8.501  -2.708  26.718  0.00  0.00    -0.274 OA
ATOM      4  C   UNL     1       7.857  -1.444  24.717  0.00  0.00    +0.164 C 
ATOM      5  C   UNL     1       6.514  -1.529  23.993  0.00  0.00    +0.049 C 
ATOM      6  C   UNL     1       5.510  -1.970  25.029  0.00  0.00    +0.110 C 
ENDROOT
BRANCH   1   7
ATOM      7  C   UNL     1       5.796  -3.904  26.639  0.00  0.00    +0.159 C 
ATOM      8  C   UNL     1       4.959  -3.622  27.893  0.00  0.00    +0.038 C 
BRANCH   7   9
ATOM      9  C   UNL     1       5.037  -4.869  25.691  0.00  0.00    +0.236 C 
ATOM     10  N   UNL     1       5.712  -5.445  24.631  0.00  0.00    -0.296 N 
ATOM     11  C   UNL     1       7.157  -5.446  24.404  0.00  0.00    +0.136 C 
ATOM     12  C   UNL     1       7.463  -5.079  22.949  0.00  0.00    +0.179 C 
ATOM     13  O   UNL     1       6.774  -5.955  22.043  0.00  0.00    -0.377 OA
ATOM     14  C   UNL     1       5.352  -5.875  22.243  0.00  0.00    +0.179 C 
ATOM     15  C   UNL     1       4.972  -6.269  23.675  0.00  0.00    +0.136 C 
ATOM     16  O   UNL     1       3.878  -5.214  25.953  0.00  0.00    -0.274 OA
ENDBRANCH   7   9
ENDBRANCH   1   7
BRANCH   4  17
ATOM     17  N   UNL     1       8.923  -2.071  23.917  0.00  0.00    -0.178 NA
ATOM     18  H   UNL     1       9.003  -3.088  23.952  0.00  0.00    +0.149 HD
BRANCH  17  19
ATOM     19  S   UNL     1       9.514  -1.390  22.519  0.00  0.00    +0.059 S 
ATOM     20  O   UNL     1       8.576  -1.637  21.446  0.00  0.00    -0.153 OA
ATOM     21  O   UNL     1      10.898  -1.803  22.425  0.00  0.00    -0.153 OA
BRANCH  19  22
ATOM     22  C   UNL     1       9.499   0.344  22.877  0.00  0.00    +0.106 A 
ATOM     23  C   UNL     1      10.466   0.885  23.730  0.00  0.00    +0.029 A 
ATOM     24  C   UNL     1      10.422   2.244  24.041  0.00  0.00    +0.010 A 
ATOM     25  C   UNL     1       9.417   3.067  23.513  0.00  0.00    -0.016 A 
ATOM     26  C   UNL     1       8.425   2.506  22.668  0.00  0.00    -0.016 A 
ATOM     27  C   UNL     1       7.413   3.333  22.154  0.00  0.00    +0.010 A 
ATOM     28  C   UNL     1       7.385   4.697  22.456  0.00  0.00    +0.020 A 
ATOM     29  C   UNL     1       8.367   5.243  23.277  0.00  0.00    +0.042 A 
ATOM     30 CL   UNL     1       8.341   6.925  23.638  0.00  0.00    -0.084 Cl
ATOM     31  C   UNL     1       9.374   4.437  23.807  0.00  0.00    +0.028 A 
ATOM     32  C   UNL     1       8.477   1.140  22.358  0.00  0.00    +0.037 A 
ENDBRANCH  19  22
ENDBRANCH  17  19
ENDBRANCH   4  17
TORSDOF 5
ENDMDL
MODEL 6
REMARK VINA RESULT:      -7.4      1.689      2.336
REMARK  Name = 
REMARK  6 active torsions:
REMARK  status: ('A' for Active; 'I' for Inactive)
REMARK    1  A    between atoms: C_2  and  C_3
REMARK    2  A    between atoms: C_2  and  N_4
REMARK    3  A    between atoms: C_2  and  C_26
REMARK    4  A    between atoms: C_7  and  N_9
REMARK    5  A    between atoms: N_9  and  S_10
REMARK    6  A    between atoms: S_10  and  C_13
REMARK                            x       y       z     vdW  Elec       q    Type
REMARK                         _______ _______ _______ _____ _____    ______ ____
ROOT
ATOM      1  N   UNL     1       9.669   0.005  23.353  0.00  0.00    -0.289 N 
ATOM      2  C   UNL     1       9.663  -0.858  24.443  0.00  0.00    +0.235 C 
ATOM      3  O   UNL     1       9.596  -0.519  25.616  0.00  0.00    -0.274 OA
ATOM      4  C   UNL     1       9.676  -2.306  23.936  0.00  0.00    +0.164 C 
ATOM      5  C   UNL     1       9.451  -2.139  22.435  0.00  0.00    +0.049 C 
ATOM      6  C   UNL     1       9.817  -0.712  22.114  0.00  0.00    +0.110 C 
ENDROOT
BRANCH   1   7
ATOM      7  C   UNL     1       9.035   1.338  23.382  0.00  0.00    +0.159 C 
ATOM      8  C   UNL     1       9.539   2.204  22.221  0.00  0.00    +0.038 C 
BRANCH   7   9
ATOM      9  C   UNL     1       7.484   1.359  23.435  0.00  0.00    +0.236 C 
ATOM     10  N   UNL     1       6.854   1.714  24.612  0.00  0.00    -0.296 N 
ATOM     11  C   UNL     1       7.470   2.313  25.795  0.00  0.00    +0.136 C 
ATOM     12  C   UNL     1       6.992   1.596  27.060  0.00  0.00    +0.179 C 
ATOM     13  O   UNL     1       5.558   1.598  27.141  0.00  0.00    -0.377 OA
ATOM     14  C   UNL     1       4.985   0.937  25.999  0.00  0.00    +0.179 C 
ATOM     15  C   UNL     1       5.395   1.631  24.695  0.00  0.00    +0.136 C 
ATOM     16  O   UNL     1       6.825   1.182  22.403  0.00  0.00    -0.274 OA
ENDBRANCH   7   9
ENDBRANCH   1   7
BRANCH   4  17
ATOM     17  N   UNL     1       8.544  -3.011  24.560  0.00  0.00    -0.178 NA
ATOM     18  H   UNL     1       7.620  -2.878  24.148  0.00  0.00    +0.149 HD
BRANCH  17  19
ATOM     19  S   UNL     1       8.724  -4.449  25.378  0.00  0.00    +0.059 S 
ATOM     20  O   UNL     1       9.114  -4.166  26.742  0.00  0.00    -0.153 OA
ATOM     21  O   UNL     1       9.525  -5.300  24.523  0.00  0.00    -0.153 OA
BRANCH  19  22
ATOM     22  C   UNL     1       7.082  -5.110  25.398  0.00  0.00    +0.106 A 
ATOM     23  C   UNL     1       6.587  -5.706  26.562  0.00  0.00    +0.029 A 
ATOM     24  C   UNL     1       5.309  -6.263  26.557  0.00  0.00    +0.010 A 
ATOM     25  C   UNL     1       4.520  -6.236  25.397  0.00  0.00    -0.016 A 
ATOM     26  C   UNL     1       5.038  -5.651  24.212  0.00  0.00    -0.016 A 
ATOM     27  C   UNL     1       4.249  -5.640  23.051  0.00  0.00    +0.010 A 
ATOM     28  C   UNL     1       2.963  -6.183  23.058  0.00  0.00    +0.020 A 
ATOM     29  C   UNL     1       2.457  -6.746  24.226  0.00  0.00    +0.042 A 
ATOM     30 CL   UNL     1       0.867  -7.403  24.238  0.00  0.00    -0.084 Cl
ATOM     31  C   UNL     1       3.227  -6.778  25.387  0.00  0.00    +0.028 A 
ATOM     32  C   UNL     1       6.324  -5.092  24.226  0.00  0.00    +0.037 A 
ENDBRANCH  19  22
ENDBRANCH  17  19
ENDBRANCH   4  17
TORSDOF 5
ENDMDL
MODEL 7
REMARK VINA RESULT:      -7.4      2.271      2.944
REMARK  Name = 
REMARK  6 active torsions:
REMARK  status: ('A' for Active; 'I' for Inactive)
REMARK    1  A    between atoms: C_2  and  C_3
REMARK    2  A    between atoms: C_2  and  N_4
REMARK    3  A    between atoms: C_2  and  C_26
REMARK    4  A    between atoms: C_7  and  N_9
REMARK    5  A    between atoms: N_9  and  S_10
REMARK    6  A    between atoms: S_10  and  C_13
REMARK                            x       y       z     vdW  Elec       q    Type
REMARK                         _______ _______ _______ _____ _____    ______ ____
ROOT
ATOM      1  N   UNL     1       9.964  -0.873  23.723  0.00  0.00    -0.289 N 
ATOM      2  C   UNL     1       9.282  -2.055  23.987  0.00  0.00    +0.235 C 
ATOM      3  O   UNL     1       9.075  -2.522  25.098  0.00  0.00    -0.274 OA
ATOM      4  C   UNL     1       8.765  -2.641  22.667  0.00  0.00    +0.164 C 
ATOM      5  C   UNL     1       9.039  -1.517  21.669  0.00  0.00    +0.049 C 
ATOM      6  C   UNL     1      10.084  -0.638  22.308  0.00  0.00    +0.110 C 
ENDROOT
BRANCH   1   7
ATOM      7  C   UNL     1      10.023   0.249  24.681  0.00  0.00    +0.159 C 
ATOM      8  C   UNL     1      11.468   0.733  24.860  0.00  0.00    +0.038 C 
BRANCH   7   9
ATOM      9  C   UNL     1       9.085   1.451  24.390  0.00  0.00    +0.236 C 
ATOM     10  N   UNL     1       7.768   1.396  24.805  0.00  0.00    -0.296 N 
ATOM     11  C   UNL     1       7.172   0.417  25.713  0.00  0.00    +0.136 C 
ATOM     12  C   UNL     1       5.847  -0.094  25.141  0.00  0.00    +0.179 C 
ATOM     13  O   UNL     1       4.954   0.995  24.861  0.00  0.00    -0.377 OA
ATOM     14  C   UNL     1       5.541   1.899  23.908  0.00  0.00    +0.179 C 
ATOM     15  C   UNL     1       6.857   2.480  24.437  0.00  0.00    +0.136 C 
ATOM     16  O   UNL     1       9.544   2.493  23.906  0.00  0.00    -0.274 OA
ENDBRANCH   7   9
ENDBRANCH   1   7
BRANCH   4  17
ATOM     17  N   UNL     1       7.318  -2.870  22.812  0.00  0.00    -0.178 NA
ATOM     18  H   UNL     1       6.713  -2.050  22.863  0.00  0.00    +0.149 HD
BRANCH  17  19
ATOM     19  S   UNL     1       6.563  -4.237  22.237  0.00  0.00    +0.059 S 
ATOM     20  O   UNL     1       7.557  -5.105  21.644  0.00  0.00    -0.153 OA
ATOM     21  O   UNL     1       5.415  -3.776  21.485  0.00  0.00    -0.153 OA
BRANCH  19  22
ATOM     22  C   UNL     1       5.959  -5.015  23.708  0.00  0.00    +0.106 A 
ATOM     23  C   UNL     1       5.071  -6.090  23.611  0.00  0.00    +0.029 A 
ATOM     24  C   UNL     1       4.566  -6.670  24.775  0.00  0.00    +0.010 A 
ATOM     25  C   UNL     1       4.935  -6.181  26.037  0.00  0.00    -0.016 A 
ATOM     26  C   UNL     1       5.817  -5.073  26.127  0.00  0.00    -0.016 A 
ATOM     27  C   UNL     1       6.172  -4.579  27.393  0.00  0.00    +0.010 A 
ATOM     28  C   UNL     1       5.676  -5.175  28.555  0.00  0.00    +0.020 A 
ATOM     29  C   UNL     1       4.819  -6.268  28.459  0.00  0.00    +0.042 A 
ATOM     30 CL   UNL     1       4.219  -7.011  29.890  0.00  0.00    -0.084 Cl
ATOM     31  C   UNL     1       4.445  -6.767  27.212  0.00  0.00    +0.028 A 
ATOM     32  C   UNL     1       6.322  -4.497  24.953  0.00  0.00    +0.037 A 
ENDBRANCH  19  22
ENDBRANCH  17  19
ENDBRANCH   4  17
TORSDOF 5
ENDMDL
MODEL 8
REMARK VINA RESULT:      -7.3      1.966      3.376
REMARK  Name = 
REMARK  6 active torsions:
REMARK  status: ('A' for Active; 'I' for Inactive)
REMARK    1  A    between atoms: C_2  and  C_3
REMARK    2  A    between atoms: C_2  and  N_4
REMARK    3  A    between atoms: C_2  and  C_26
REMARK    4  A    between atoms: C_7  and  N_9
REMARK    5  A    between atoms: N_9  and  S_10
REMARK    6  A    between atoms: S_10  and  C_13
REMARK                            x       y       z     vdW  Elec       q    Type
REMARK                         _______ _______ _______ _____ _____    ______ ____
ROOT
ATOM      1  N   UNL     1       9.505   2.245  24.297  0.00  0.00    -0.289 N 
ATOM      2  C   UNL     1       8.739   1.243  24.881  0.00  0.00    +0.235 C 
ATOM      3  O   UNL     1       7.632   1.395  25.378  0.00  0.00    -0.274 OA
ATOM      4  C   UNL     1       9.470  -0.098  24.733  0.00  0.00    +0.164 C 
ATOM      5  C   UNL     1      10.619   0.248  23.788  0.00  0.00    +0.049 C 
ATOM      6  C   UNL     1      10.782   1.745  23.860  0.00  0.00    +0.110 C 
ENDROOT
BRANCH   1   7
ATOM      7  C   UNL     1       8.915   3.448  23.677  0.00  0.00    +0.159 C 
ATOM      8  C   UNL     1       7.538   3.132  23.082  0.00  0.00    +0.038 C 
BRANCH   7   9
ATOM      9  C   UNL     1       8.837   4.713  24.573  0.00  0.00    +0.236 C 
ATOM     10  N   UNL     1       9.859   5.642  24.521  0.00  0.00    -0.296 N 
ATOM     11  C   UNL     1      10.937   5.710  23.536  0.00  0.00    +0.136 C 
ATOM     12  C   UNL     1      12.281   5.925  24.237  0.00  0.00    +0.179 C 
ATOM     13  O   UNL     1      12.242   7.090  25.075  0.00  0.00    -0.377 OA
ATOM     14  C   UNL     1      11.221   6.959  26.080  0.00  0.00    +0.179 C 
ATOM     15  C   UNL     1       9.839   6.779  25.442  0.00  0.00    +0.136 C 
ATOM     16  O   UNL     1       7.814   4.947  25.230  0.00  0.00    -0.274 OA
ENDBRANCH   7   9
ENDBRANCH   1   7
BRANCH   4  17
ATOM     17  N   UNL     1       8.540  -1.049  24.100  0.00  0.00    -0.178 NA
ATOM     18  H   UNL     1       7.621  -0.700  23.828  0.00  0.00    +0.149 HD
BRANCH  17  19
ATOM     19  S   UNL     1       9.062  -2.358  23.215  0.00  0.00    +0.059 S 
ATOM     20  O   UNL     1      10.162  -2.986  23.913  0.00  0.00    -0.153 OA
ATOM     21  O   UNL     1       9.197  -1.892  21.851  0.00  0.00    -0.153 OA
BRANCH  19  22
ATOM     22  C   UNL     1       7.675  -3.458  23.266  0.00  0.00    +0.106 A 
ATOM     23  C   UNL     1       6.817  -3.546  22.166  0.00  0.00    +0.029 A 
ATOM     24  C   UNL     1       5.703  -4.383  22.230  0.00  0.00    +0.010 A 
ATOM     25  C   UNL     1       5.433  -5.128  23.387  0.00  0.00    -0.016 A 
ATOM     26  C   UNL     1       6.294  -5.015  24.509  0.00  0.00    -0.016 A 
ATOM     27  C   UNL     1       6.010  -5.753  25.670  0.00  0.00    +0.010 A 
ATOM     28  C   UNL     1       4.902  -6.602  25.721  0.00  0.00    +0.020 A 
ATOM     29  C   UNL     1       4.068  -6.717  24.613  0.00  0.00    +0.042 A 
ATOM     30 CL   UNL     1       2.711  -7.772  24.671  0.00  0.00    -0.084 Cl
ATOM     31  C   UNL     1       4.325  -5.984  23.455  0.00  0.00    +0.028 A 
ATOM     32  C   UNL     1       7.413  -4.173  24.436  0.00  0.00    +0.037 A 
ENDBRANCH  19  22
ENDBRANCH  17  19
ENDBRANCH   4  17
TORSDOF 5
ENDMDL
MODEL 9
REMARK VINA RESULT:      -7.2      3.991      8.645
REMARK  Name = 
REMARK  6 active torsions:
REMARK  status: ('A' for Active; 'I' for Inactive)
REMARK    1  A    between atoms: C_2  and  C_3
REMARK    2  A    between atoms: C_2  and  N_4
REMARK    3  A    between atoms: C_2  and  C_26
REMARK    4  A    between atoms: C_7  and  N_9
REMARK    5  A    between atoms: N_9  and  S_10
REMARK    6  A    between atoms: S_10  and  C_13
REMARK                            x       y       z     vdW  Elec       q    Type
REMARK                         _______ _______ _______ _____ _____    ______ ____
ROOT
ATOM      1  N   UNL     1       7.268  -5.230  25.772  0.00  0.00    -0.289 N 
ATOM      2  C   UNL     1       7.749  -4.710  24.575  0.00  0.00    +0.235 C 
ATOM      3  O   UNL     1       7.376  -5.038  23.458  0.00  0.00    -0.274 OA
ATOM      4  C   UNL     1       8.766  -3.603  24.883  0.00  0.00    +0.164 C 
ATOM      5  C   UNL     1       8.613  -3.415  26.391  0.00  0.00    +0.049 C 
ATOM      6  C   UNL     1       7.958  -4.672  26.904  0.00  0.00    +0.110 C 
ENDROOT
BRANCH   1   7
ATOM      7  C   UNL     1       5.908  -5.784  25.916  0.00  0.00    +0.159 C 
ATOM      8  C   UNL     1       5.663  -6.255  27.355  0.00  0.00    +0.038 C 
BRANCH   7   9
ATOM      9  C   UNL     1       4.742  -4.875  25.441  0.00  0.00    +0.236 C 
ATOM     10  N   UNL     1       3.550  -5.455  25.051  0.00  0.00    -0.296 N 
ATOM     11  C   UNL     1       3.142  -6.845  25.245  0.00  0.00    +0.136 C 
ATOM     12  C   UNL     1       2.550  -7.407  23.950  0.00  0.00    +0.179 C 
ATOM     13  O   UNL     1       1.467  -6.588  23.483  0.00  0.00    -0.377 OA
ATOM     14  C   UNL     1       1.918  -5.246  23.231  0.00  0.00    +0.179 C 
ATOM     15  C   UNL     1       2.490  -4.608  24.502  0.00  0.00    +0.136 C 
ATOM     16  O   UNL     1       4.839  -3.645  25.530  0.00  0.00    -0.274 OA
ENDBRANCH   7   9
ENDBRANCH   1   7
BRANCH   4  17
ATOM     17  N   UNL     1       8.347  -2.392  24.158  0.00  0.00    -0.178 NA
ATOM     18  H   UNL     1       7.873  -1.663  24.693  0.00  0.00    +0.149 HD
BRANCH  17  19
ATOM     19  S   UNL     1       9.138  -1.839  22.803  0.00  0.00    +0.059 S 
ATOM     20  O   UNL     1       8.295  -2.055  21.648  0.00  0.00    -0.153 OA
ATOM     21  O   UNL     1      10.480  -2.379  22.873  0.00  0.00    -0.153 OA
BRANCH  19  22
ATOM     22  C   UNL     1       9.251  -0.094  23.086  0.00  0.00    +0.106 A 
ATOM     23  C   UNL     1      10.245   0.410  23.929  0.00  0.00    +0.029 A 
ATOM     24  C   UNL     1      10.301   1.780  24.182  0.00  0.00    +0.010 A 
ATOM     25  C   UNL     1       9.368   2.653  23.603  0.00  0.00    -0.016 A 
ATOM     26  C   UNL     1       8.346   2.131  22.767  0.00  0.00    -0.016 A 
ATOM     27  C   UNL     1       7.406   3.009  22.202  0.00  0.00    +0.010 A 
ATOM     28  C   UNL     1       7.479   4.383  22.445  0.00  0.00    +0.020 A 
ATOM     29  C   UNL     1       8.489   4.889  23.257  0.00  0.00    +0.042 A 
ATOM     30 CL   UNL     1       8.587   6.582  23.545  0.00  0.00    -0.084 Cl
ATOM     31  C   UNL     1       9.426   4.034  23.837  0.00  0.00    +0.028 A 
ATOM     32  C   UNL     1       8.298   0.753  22.518  0.00  0.00    +0.037 A 
ENDBRANCH  19  22
ENDBRANCH  17  19
ENDBRANCH   4  17
TORSDOF 5
ENDMDL
