MODEL 1
REMARK VINA RESULT:      -3.4      0.000      0.000
REMARK  Name = 
REMARK  5 active torsions:
REMARK  status: ('A' for Active; 'I' for Inactive)
REMARK    1  A    between atoms: C_1  and  C_2
REMARK    2  A    between atoms: C_2  and  C_3
REMARK    3  A    between atoms: C_2  and  C_4
REMARK    4  A    between atoms: C_4  and  C_5
REMARK    5  A    between atoms: C_5  and  O_6
REMARK                            x       y       z     vdW  Elec       q    Type
REMARK                         _______ _______ _______ _____ _____    ______ ____
ROOT
ATOM      1  C   UNL     1      12.225   5.944  24.093  0.00  0.00    +0.031 C 
ENDROOT
BRANCH   1   3
ATOM      2  C   UNL     1      10.003   4.718  23.855  0.00  0.00    +0.007 C 
ATOM      3  C   UNL     1      10.697   6.076  23.961  0.00  0.00    -0.015 C 
ATOM      4  C   UNL     1      10.136   6.849  25.156  0.00  0.00    +0.007 C 
ENDBRANCH   1   3
BRANCH   1   5
ATOM      5  C   UNL     1      12.882   5.207  22.931  0.00  0.00    +0.156 C 
BRANCH   5   6
ATOM      6  O   UNL     1      14.281   5.092  23.164  0.00  0.00    -0.395 OA
ATOM      7  H   UNL     1      14.590   5.944  23.517  0.00  0.00    +0.209 HD
ENDBRANCH   5   6
ENDBRANCH   1   5
TORSDOF 3
ENDMDL
MODEL 2
REMARK VINA RESULT:      -3.1      5.575      6.365
REMARK  Name = 
REMARK  5 active torsions:
REMARK  status: ('A' for Active; 'I' for Inactive)
REMARK    1  A    between atoms: C_1  and  C_2
REMARK    2  A    between atoms: C_2  and  C_3
REMARK    3  A    between atoms: C_2  and  C_4
REMARK    4  A    between atoms: C_4  and  C_5
REMARK    5  A    between atoms: C_5  and  O_6
REMARK                            x       y       z     vdW  Elec       q    Type
REMARK                         _______ _______ _______ _____ _____    ______ ____
ROOT
ATOM      1  C   UNL     1       9.892  -0.095  22.003  0.00  0.00    +0.031 C 
ENDROOT
BRANCH   1   3
ATOM      2  C   UNL     1       9.990  -2.124  23.542  0.00  0.00    +0.007 C 
ATOM      3  C   UNL     1       9.658  -0.636  23.424  0.00  0.00    -0.015 C 
ATOM      4  C   UNL     1      10.495   0.160  24.428  0.00  0.00    +0.007 C 
ENDBRANCH   1   3
BRANCH   1   5
ATOM      5  C   UNL     1       9.207   1.240  21.733  0.00  0.00    +0.156 C 
BRANCH   5   6
ATOM      6  O   UNL     1      10.187   2.256  21.553  0.00  0.00    -0.395 OA
ATOM      7  H   UNL     1      11.053   1.820  21.495  0.00  0.00    +0.209 HD
ENDBRANCH   5   6
ENDBRANCH   1   5
TORSDOF 3
ENDMDL
MODEL 3
REMARK VINA RESULT:      -3.1      4.921      5.838
REMARK  Name = 
REMARK  5 active torsions:
REMARK  status: ('A' for Active; 'I' for Inactive)
REMARK    1  A    between atoms: C_1  and  C_2
REMARK    2  A    between atoms: C_2  and  C_3
REMARK    3  A    between atoms: C_2  and  C_4
REMARK    4  A    between atoms: C_4  and  C_5
REMARK    5  A    between atoms: C_5  and  O_6
REMARK                            x       y       z     vdW  Elec       q    Type
REMARK                         _______ _______ _______ _____ _____    ______ ____
ROOT
ATOM      1  C   UNL     1       9.897   0.846  21.999  0.00  0.00    +0.031 C 
ENDROOT
BRANCH   1   3
ATOM      2  C   UNL     1      10.803   0.604  24.369  0.00  0.00    +0.007 C 
ATOM      3  C   UNL     1       9.986   1.465  23.406  0.00  0.00    -0.015 C 
ATOM      4  C   UNL     1      10.598   2.865  23.320  0.00  0.00    +0.007 C 
ENDBRANCH   1   3
BRANCH   1   5
ATOM      5  C   UNL     1       9.291  -0.553  21.980  0.00  0.00    +0.156 C 
BRANCH   5   6
ATOM      6  O   UNL     1      10.243  -1.482  21.473  0.00  0.00    -0.395 OA
ATOM      7  H   UNL     1      11.045  -1.407  22.018  0.00  0.00    +0.209 HD
ENDBRANCH   5   6
ENDBRANCH   1   5
TORSDOF 3
ENDMDL
MODEL 4
REMARK VINA RESULT:      -3.0      4.575      5.347
REMARK  Name = 
REMARK  5 active torsions:
REMARK  status: ('A' for Active; 'I' for Inactive)
REMARK    1  A    between atoms: C_1  and  C_2
REMARK    2  A    between atoms: C_2  and  C_3
REMARK    3  A    between atoms: C_2  and  C_4
REMARK    4  A    between atoms: C_4  and  C_5
REMARK    5  A    between atoms: C_5  and  O_6
REMARK                            x       y       z     vdW  Elec       q    Type
REMARK                         _______ _______ _______ _____ _____    ______ ____
ROOT
ATOM      1  C   UNL     1      10.369   2.126  23.273  0.00  0.00    +0.031 C 
ENDROOT
BRANCH   1   3
ATOM      2  C   UNL     1       9.827   0.093  21.833  0.00  0.00    +0.007 C 
ATOM      3  C   UNL     1       9.774   1.617  21.948  0.00  0.00    -0.015 C 
ATOM      4  C   UNL     1       8.326   2.094  21.811  0.00  0.00    +0.007 C 
ENDBRANCH   1   3
BRANCH   1   5
ATOM      5  C   UNL     1      10.762   1.012  24.238  0.00  0.00    +0.156 C 
BRANCH   5   6
ATOM      6  O   UNL     1       9.819   0.942  25.301  0.00  0.00    -0.395 OA
ATOM      7  H   UNL     1      10.306   0.712  26.110  0.00  0.00    +0.209 HD
ENDBRANCH   5   6
ENDBRANCH   1   5
TORSDOF 3
ENDMDL
MODEL 5
REMARK VINA RESULT:      -3.0      5.295      6.229
REMARK  Name = 
REMARK  5 active torsions:
REMARK  status: ('A' for Active; 'I' for Inactive)
REMARK    1  A    between atoms: C_1  and  C_2
REMARK    2  A    between atoms: C_2  and  C_3
REMARK    3  A    between atoms: C_2  and  C_4
REMARK    4  A    between atoms: C_4  and  C_5
REMARK    5  A    between atoms: C_5  and  O_6
REMARK                            x       y       z     vdW  Elec       q    Type
REMARK                         _______ _______ _______ _____ _____    ______ ____
ROOT
ATOM      1  C   UNL     1       9.614  -0.016  23.167  0.00  0.00    +0.031 C 
ENDROOT
BRANCH   1   3
ATOM      2  C   UNL     1       8.456   1.458  21.441  0.00  0.00    +0.007 C 
ATOM      3  C   UNL     1       9.785   1.064  22.085  0.00  0.00    -0.015 C 
ATOM      4  C   UNL     1      10.452   2.302  22.687  0.00  0.00    +0.007 C 
ENDBRANCH   1   3
BRANCH   1   5
ATOM      5  C   UNL     1      10.228  -1.362  22.795  0.00  0.00    +0.156 C 
BRANCH   5   6
ATOM      6  O   UNL     1      10.160  -1.549  21.386  0.00  0.00    -0.395 OA
ATOM      7  H   UNL     1       9.471  -0.954  21.045  0.00  0.00    +0.209 HD
ENDBRANCH   5   6
ENDBRANCH   1   5
TORSDOF 3
ENDMDL
MODEL 6
REMARK VINA RESULT:      -2.9      5.319      6.044
REMARK  Name = 
REMARK  5 active torsions:
REMARK  status: ('A' for Active; 'I' for Inactive)
REMARK    1  A    between atoms: C_1  and  C_2
REMARK    2  A    between atoms: C_2  and  C_3
REMARK    3  A    between atoms: C_2  and  C_4
REMARK    4  A    between atoms: C_4  and  C_5
REMARK    5  A    between atoms: C_5  and  O_6
REMARK                            x       y       z     vdW  Elec       q    Type
REMARK                         _______ _______ _______ _____ _____    ______ ____
ROOT
ATOM      1  C   UNL     1       8.872   0.890  23.093  0.00  0.00    +0.031 C 
ENDROOT
BRANCH   1   3
ATOM      2  C   UNL     1      10.723   0.407  24.777  0.00  0.00    +0.007 C 
ATOM      3  C   UNL     1      10.276   0.302  23.319  0.00  0.00    -0.015 C 
ATOM      4  C   UNL     1      10.304  -1.162  22.876  0.00  0.00    +0.007 C 
ENDBRANCH   1   3
BRANCH   1   5
ATOM      5  C   UNL     1       8.776   1.804  21.876  0.00  0.00    +0.156 C 
BRANCH   5   6
ATOM      6  O   UNL     1      10.076   2.247  21.504  0.00  0.00    -0.395 OA
ATOM      7  H   UNL     1      10.012   3.191  21.284  0.00  0.00    +0.209 HD
ENDBRANCH   5   6
ENDBRANCH   1   5
TORSDOF 3
ENDMDL
MODEL 7
REMARK VINA RESULT:      -2.8      9.113     10.240
REMARK  Name = 
REMARK  5 active torsions:
REMARK  status: ('A' for Active; 'I' for Inactive)
REMARK    1  A    between atoms: C_1  and  C_2
REMARK    2  A    between atoms: C_2  and  C_3
REMARK    3  A    between atoms: C_2  and  C_4
REMARK    4  A    between atoms: C_4  and  C_5
REMARK    5  A    between atoms: C_5  and  O_6
REMARK                            x       y       z     vdW  Elec       q    Type
REMARK                         _______ _______ _______ _____ _____    ______ ____
ROOT
ATOM      1  C   UNL     1       8.506  -4.565  24.369  0.00  0.00    +0.031 C 
ENDROOT
BRANCH   1   3
ATOM      2  C   UNL     1       9.871  -2.492  23.791  0.00  0.00    +0.007 C 
ATOM      3  C   UNL     1       8.475  -3.107  23.877  0.00  0.00    -0.015 C 
ATOM      4  C   UNL     1       7.796  -3.036  22.507  0.00  0.00    +0.007 C 
ENDBRANCH   1   3
BRANCH   1   5
ATOM      5  C   UNL     1       9.295  -4.762  25.659  0.00  0.00    +0.156 C 
BRANCH   5   6
ATOM      6  O   UNL     1      10.435  -5.574  25.406  0.00  0.00    -0.395 OA
ATOM      7  H   UNL     1      11.223  -5.018  25.524  0.00  0.00    +0.209 HD
ENDBRANCH   5   6
ENDBRANCH   1   5
TORSDOF 3
ENDMDL
MODEL 8
REMARK VINA RESULT:      -2.8      4.156      5.309
REMARK  Name = 
REMARK  5 active torsions:
REMARK  status: ('A' for Active; 'I' for Inactive)
REMARK    1  A    between atoms: C_1  and  C_2
REMARK    2  A    between atoms: C_2  and  C_3
REMARK    3  A    between atoms: C_2  and  C_4
REMARK    4  A    between atoms: C_4  and  C_5
REMARK    5  A    between atoms: C_5  and  O_6
REMARK                            x       y       z     vdW  Elec       q    Type
REMARK                         _______ _______ _______ _____ _____    ______ ____
ROOT
ATOM      1  C   UNL     1      10.171   1.886  22.211  0.00  0.00    +0.031 C 
ENDROOT
BRANCH   1   3
ATOM      2  C   UNL     1       9.402  -0.435  21.489  0.00  0.00    +0.007 C 
ATOM      3  C   UNL     1       9.066   1.056  21.534  0.00  0.00    -0.015 C 
ATOM      4  C   UNL     1       7.738   1.262  22.267  0.00  0.00    +0.007 C 
ENDBRANCH   1   3
BRANCH   1   5
ATOM      5  C   UNL     1       9.660   2.809  23.312  0.00  0.00    +0.156 C 
BRANCH   5   6
ATOM      6  O   UNL     1      10.276   4.086  23.193  0.00  0.00    -0.395 OA
ATOM      7  H   UNL     1      11.222   3.940  23.023  0.00  0.00    +0.209 HD
ENDBRANCH   5   6
ENDBRANCH   1   5
TORSDOF 3
ENDMDL
MODEL 9
REMARK VINA RESULT:      -2.7     10.715     11.493
REMARK  Name = 
REMARK  5 active torsions:
REMARK  status: ('A' for Active; 'I' for Inactive)
REMARK    1  A    between atoms: C_1  and  C_2
REMARK    2  A    between atoms: C_2  and  C_3
REMARK    3  A    between atoms: C_2  and  C_4
REMARK    4  A    between atoms: C_4  and  C_5
REMARK    5  A    between atoms: C_5  and  O_6
REMARK                            x       y       z     vdW  Elec       q    Type
REMARK                         _______ _______ _______ _____ _____    ______ ____
ROOT
ATOM      1  C   UNL     1       8.524  -4.259  24.363  0.00  0.00    +0.031 C 
ENDROOT
BRANCH   1   3
ATOM      2  C   UNL     1       7.376  -5.645  22.559  0.00  0.00    +0.007 C 
ATOM      3  C   UNL     1       7.188  -4.672  23.722  0.00  0.00    -0.015 C 
ATOM      4  C   UNL     1       6.277  -5.301  24.779  0.00  0.00    +0.007 C 
ENDBRANCH   1   3
BRANCH   1   5
ATOM      5  C   UNL     1       8.925  -5.118  25.558  0.00  0.00    +0.156 C 
BRANCH   5   6
ATOM      6  O   UNL     1      10.173  -5.750  25.298  0.00  0.00    -0.395 OA
ATOM      7  H   UNL     1      10.015  -6.708  25.259  0.00  0.00    +0.209 HD
ENDBRANCH   5   6
ENDBRANCH   1   5
TORSDOF 3
ENDMDL
