MODEL 1
REMARK VINA RESULT:      -5.9      0.000      0.000
REMARK  Name = 
REMARK  9 active torsions:
REMARK  status: ('A' for Active; 'I' for Inactive)
REMARK    1  A    between atoms: C_1  and  C_2
REMARK    2  A    between atoms: C_2  and  C_3
REMARK    3  A    between atoms: C_2  and  N_4
REMARK    4  A    between atoms: N_4  and  C_5
REMARK    5  A    between atoms: C_5  and  C_6
REMARK    6  A    between atoms: C_6  and  O_7
REMARK    7  A    between atoms: C_6  and  C_8
REMARK    8  A    between atoms: C_8  and  O_9
REMARK    9  A    between atoms: O_9  and  C_10
REMARK                            x       y       z     vdW  Elec       q    Type
REMARK                         _______ _______ _______ _____ _____    ______ ____
ROOT
ATOM      1  O   UNL     1       9.115  -3.986  23.837  0.00  0.00    -0.489 OA
ENDROOT
BRANCH   1   2
ATOM      2  C   UNL     1       7.903  -4.556  24.181  0.00  0.00    +0.130 A 
ATOM      3  C   UNL     1       7.089  -5.117  23.166  0.00  0.00    +0.041 A 
ATOM      4  C   UNL     1       7.200  -5.243  21.749  0.00  0.00    +0.031 A 
ATOM      5  C   UNL     1       6.078  -5.892  21.288  0.00  0.00    +0.084 A 
ATOM      6  N   UNL     1       5.286  -6.175  22.366  0.00  0.00    -0.361 N 
ATOM      7  H   UNL     1       4.393  -6.648  22.329  0.00  0.00    +0.165 HD
ATOM      8  C   UNL     1       5.873  -5.712  23.521  0.00  0.00    +0.050 A 
ATOM      9  C   UNL     1       5.415  -5.779  24.841  0.00  0.00    +0.026 A 
ATOM     10  C   UNL     1       6.203  -5.191  25.825  0.00  0.00    +0.006 A 
ATOM     11  C   UNL     1       7.413  -4.583  25.503  0.00  0.00    +0.046 A 
ENDBRANCH   1   2
BRANCH   1  12
ATOM     12  C   UNL     1       9.089  -2.554  23.843  0.00  0.00    +0.261 C 
BRANCH  12  13
ATOM     13  C   UNL     1       9.082  -1.957  22.425  0.00  0.00    +0.166 C 
BRANCH  13  14
ATOM     14  O   UNL     1      10.401  -1.798  21.887  0.00  0.00    -0.387 OA
ATOM     15  H   UNL     1      10.325  -1.393  21.007  0.00  0.00    +0.210 HD
ENDBRANCH  13  14
BRANCH  13  16
ATOM     16  C   UNL     1       8.397  -0.573  22.503  0.00  0.00    +0.115 C 
BRANCH  16  17
ATOM     17  N   UNL     1       8.678   0.099  23.773  0.00  0.00    -0.311 NA
ATOM     18  H   UNL     1       7.783   0.392  24.176  0.00  0.00    +0.122 HD
BRANCH  17  20
ATOM     19  C   UNL     1      10.900   0.896  24.325  0.00  0.00    +0.023 C 
ATOM     20  C   UNL     1       9.580   1.249  23.639  0.00  0.00    +0.048 C 
ATOM     21  C   UNL     1       9.845   1.611  22.175  0.00  0.00    +0.023 C 
ENDBRANCH  17  20
ENDBRANCH  16  17
ENDBRANCH  13  16
ENDBRANCH  12  13
ENDBRANCH   1  12
TORSDOF 7
ENDMDL
MODEL 2
REMARK VINA RESULT:      -5.8      1.758      6.362
REMARK  Name = 
REMARK  9 active torsions:
REMARK  status: ('A' for Active; 'I' for Inactive)
REMARK    1  A    between atoms: C_1  and  C_2
REMARK    2  A    between atoms: C_2  and  C_3
REMARK    3  A    between atoms: C_2  and  N_4
REMARK    4  A    between atoms: N_4  and  C_5
REMARK    5  A    between atoms: C_5  and  C_6
REMARK    6  A    between atoms: C_6  and  O_7
REMARK    7  A    between atoms: C_6  and  C_8
REMARK    8  A    between atoms: C_8  and  O_9
REMARK    9  A    between atoms: O_9  and  C_10
REMARK                            x       y       z     vdW  Elec       q    Type
REMARK                         _______ _______ _______ _____ _____    ______ ____
ROOT
ATOM      1  O   UNL     1       8.792  -2.195  24.518  0.00  0.00    -0.489 OA
ENDROOT
BRANCH   1   2
ATOM      2  C   UNL     1       9.000  -1.205  23.575  0.00  0.00    +0.130 A 
ATOM      3  C   UNL     1       8.877   0.154  23.958  0.00  0.00    +0.041 A 
ATOM      4  C   UNL     1       8.549   0.825  25.174  0.00  0.00    +0.031 A 
ATOM      5  C   UNL     1       8.585   2.180  24.938  0.00  0.00    +0.084 A 
ATOM      6  N   UNL     1       8.931   2.367  23.629  0.00  0.00    -0.361 N 
ATOM      7  H   UNL     1       9.033   3.263  23.172  0.00  0.00    +0.165 HD
ATOM      8  C   UNL     1       9.110   1.152  23.007  0.00  0.00    +0.050 A 
ATOM      9  C   UNL     1       9.459   0.875  21.681  0.00  0.00    +0.026 A 
ATOM     10  C   UNL     1       9.539  -0.462  21.305  0.00  0.00    +0.006 A 
ATOM     11  C   UNL     1       9.303  -1.479  22.225  0.00  0.00    +0.046 A 
ENDBRANCH   1   2
BRANCH   1  12
ATOM     12  C   UNL     1       9.727  -3.275  24.421  0.00  0.00    +0.261 C 
BRANCH  12  13
ATOM     13  C   UNL     1       9.308  -4.497  25.257  0.00  0.00    +0.166 C 
BRANCH  13  14
ATOM     14  O   UNL     1      10.318  -5.514  25.290  0.00  0.00    -0.387 OA
ATOM     15  H   UNL     1      10.035  -6.205  25.912  0.00  0.00    +0.210 HD
ENDBRANCH  13  14
BRANCH  13  16
ATOM     16  C   UNL     1       8.024  -5.079  24.624  0.00  0.00    +0.115 C 
BRANCH  16  17
ATOM     17  N   UNL     1       8.002  -4.894  23.172  0.00  0.00    -0.311 NA
ATOM     18  H   UNL     1       8.442  -3.991  22.966  0.00  0.00    +0.122 HD
BRANCH  17  20
ATOM     19  C   UNL     1       6.196  -3.516  22.325  0.00  0.00    +0.023 C 
ATOM     20  C   UNL     1       6.655  -4.950  22.595  0.00  0.00    +0.048 C 
ATOM     21  C   UNL     1       6.615  -5.753  21.292  0.00  0.00    +0.023 C 
ENDBRANCH  17  20
ENDBRANCH  16  17
ENDBRANCH  13  16
ENDBRANCH  12  13
ENDBRANCH   1  12
TORSDOF 7
ENDMDL
MODEL 3
REMARK VINA RESULT:      -5.6      1.475      1.944
REMARK  Name = 
REMARK  9 active torsions:
REMARK  status: ('A' for Active; 'I' for Inactive)
REMARK    1  A    between atoms: C_1  and  C_2
REMARK    2  A    between atoms: C_2  and  C_3
REMARK    3  A    between atoms: C_2  and  N_4
REMARK    4  A    between atoms: N_4  and  C_5
REMARK    5  A    between atoms: C_5  and  C_6
REMARK    6  A    between atoms: C_6  and  O_7
REMARK    7  A    between atoms: C_6  and  C_8
REMARK    8  A    between atoms: C_8  and  O_9
REMARK    9  A    between atoms: O_9  and  C_10
REMARK                            x       y       z     vdW  Elec       q    Type
REMARK                         _______ _______ _______ _____ _____    ______ ____
ROOT
ATOM      1  O   UNL     1       9.985  -3.022  23.850  0.00  0.00    -0.489 OA
ENDROOT
BRANCH   1   2
ATOM      2  C   UNL     1       9.027  -3.763  24.519  0.00  0.00    +0.130 A 
ATOM      3  C   UNL     1       7.911  -4.261  23.803  0.00  0.00    +0.041 A 
ATOM      4  C   UNL     1       7.472  -4.175  22.448  0.00  0.00    +0.031 A 
ATOM      5  C   UNL     1       6.290  -4.870  22.336  0.00  0.00    +0.084 A 
ATOM      6  N   UNL     1       5.990  -5.386  23.566  0.00  0.00    -0.361 N 
ATOM      7  H   UNL     1       5.175  -5.942  23.785  0.00  0.00    +0.165 HD
ATOM      8  C   UNL     1       6.956  -5.028  24.479  0.00  0.00    +0.050 A 
ATOM      9  C   UNL     1       7.047  -5.328  25.842  0.00  0.00    +0.026 A 
ATOM     10  C   UNL     1       8.126  -4.802  26.545  0.00  0.00    +0.006 A 
ATOM     11  C   UNL     1       9.088  -4.027  25.903  0.00  0.00    +0.046 A 
ENDBRANCH   1   2
BRANCH   1  12
ATOM     12  C   UNL     1       9.741  -1.612  23.892  0.00  0.00    +0.261 C 
BRANCH  12  13
ATOM     13  C   UNL     1       9.533  -1.007  22.492  0.00  0.00    +0.166 C 
BRANCH  13  14
ATOM     14  O   UNL     1      10.221  -1.737  21.468  0.00  0.00    -0.387 OA
ATOM     15  H   UNL     1      10.524  -2.579  21.846  0.00  0.00    +0.210 HD
ENDBRANCH  13  14
BRANCH  13  16
ATOM     16  C   UNL     1      10.067   0.444  22.525  0.00  0.00    +0.115 C 
BRANCH  16  17
ATOM     17  N   UNL     1       9.420   1.283  21.516  0.00  0.00    -0.311 NA
ATOM     18  H   UNL     1      10.152   1.650  20.899  0.00  0.00    +0.122 HD
BRANCH  17  20
ATOM     19  C   UNL     1       7.159   1.967  22.062  0.00  0.00    +0.023 C 
ATOM     20  C   UNL     1       8.632   2.381  22.086  0.00  0.00    +0.048 C 
ATOM     21  C   UNL     1       9.048   2.710  23.522  0.00  0.00    +0.023 C 
ENDBRANCH  17  20
ENDBRANCH  16  17
ENDBRANCH  13  16
ENDBRANCH  12  13
ENDBRANCH   1  12
TORSDOF 7
ENDMDL
MODEL 4
REMARK VINA RESULT:      -5.6      1.446      2.517
REMARK  Name = 
REMARK  9 active torsions:
REMARK  status: ('A' for Active; 'I' for Inactive)
REMARK    1  A    between atoms: C_1  and  C_2
REMARK    2  A    between atoms: C_2  and  C_3
REMARK    3  A    between atoms: C_2  and  N_4
REMARK    4  A    between atoms: N_4  and  C_5
REMARK    5  A    between atoms: C_5  and  C_6
REMARK    6  A    between atoms: C_6  and  O_7
REMARK    7  A    between atoms: C_6  and  C_8
REMARK    8  A    between atoms: C_8  and  O_9
REMARK    9  A    between atoms: O_9  and  C_10
REMARK                            x       y       z     vdW  Elec       q    Type
REMARK                         _______ _______ _______ _____ _____    ______ ____
ROOT
ATOM      1  O   UNL     1       9.105  -3.398  23.547  0.00  0.00    -0.489 OA
ENDROOT
BRANCH   1   2
ATOM      2  C   UNL     1       7.987  -4.198  23.701  0.00  0.00    +0.130 A 
ATOM      3  C   UNL     1       7.680  -4.719  24.982  0.00  0.00    +0.041 A 
ATOM      4  C   UNL     1       8.290  -4.637  26.269  0.00  0.00    +0.031 A 
ATOM      5  C   UNL     1       7.526  -5.363  27.153  0.00  0.00    +0.084 A 
ATOM      6  N   UNL     1       6.466  -5.881  26.461  0.00  0.00    -0.361 N 
ATOM      7  H   UNL     1       5.738  -6.461  26.854  0.00  0.00    +0.165 HD
ATOM      8  C   UNL     1       6.536  -5.510  25.138  0.00  0.00    +0.050 A 
ATOM      9  C   UNL     1       5.673  -5.818  24.081  0.00  0.00    +0.026 A 
ATOM     10  C   UNL     1       6.004  -5.333  22.820  0.00  0.00    +0.006 A 
ATOM     11  C   UNL     1       7.141  -4.552  22.630  0.00  0.00    +0.046 A 
ENDBRANCH   1   2
BRANCH   1  12
ATOM     12  C   UNL     1       8.793  -2.004  23.435  0.00  0.00    +0.261 C 
BRANCH  12  13
ATOM     13  C   UNL     1       9.126  -1.434  22.045  0.00  0.00    +0.166 C 
BRANCH  13  14
ATOM     14  O   UNL     1      10.494  -1.650  21.674  0.00  0.00    -0.387 OA
ATOM     15  H   UNL     1      11.054  -1.083  22.231  0.00  0.00    +0.210 HD
ENDBRANCH  13  14
BRANCH  13  16
ATOM     16  C   UNL     1       8.847   0.087  22.085  0.00  0.00    +0.115 C 
BRANCH  16  17
ATOM     17  N   UNL     1      10.077   0.859  22.269  0.00  0.00    -0.311 NA
ATOM     18  H   UNL     1      10.868   0.213  22.180  0.00  0.00    +0.122 HD
BRANCH  17  20
ATOM     19  C   UNL     1      11.070   0.786  24.479  0.00  0.00    +0.023 C 
ATOM     20  C   UNL     1      10.136   1.567  23.553  0.00  0.00    +0.048 C 
ATOM     21  C   UNL     1      10.647   3.002  23.401  0.00  0.00    +0.023 C 
ENDBRANCH  17  20
ENDBRANCH  16  17
ENDBRANCH  13  16
ENDBRANCH  12  13
ENDBRANCH   1  12
TORSDOF 7
ENDMDL
MODEL 5
REMARK VINA RESULT:      -5.6      1.791      2.945
REMARK  Name = 
REMARK  9 active torsions:
REMARK  status: ('A' for Active; 'I' for Inactive)
REMARK    1  A    between atoms: C_1  and  C_2
REMARK    2  A    between atoms: C_2  and  C_3
REMARK    3  A    between atoms: C_2  and  N_4
REMARK    4  A    between atoms: N_4  and  C_5
REMARK    5  A    between atoms: C_5  and  C_6
REMARK    6  A    between atoms: C_6  and  O_7
REMARK    7  A    between atoms: C_6  and  C_8
REMARK    8  A    between atoms: C_8  and  O_9
REMARK    9  A    between atoms: O_9  and  C_10
REMARK                            x       y       z     vdW  Elec       q    Type
REMARK                         _______ _______ _______ _____ _____    ______ ____
ROOT
ATOM      1  O   UNL     1       9.262  -2.588  23.682  0.00  0.00    -0.489 OA
ENDROOT
BRANCH   1   2
ATOM      2  C   UNL     1       8.238  -3.517  23.708  0.00  0.00    +0.130 A 
ATOM      3  C   UNL     1       7.976  -4.228  24.904  0.00  0.00    +0.041 A 
ATOM      4  C   UNL     1       8.560  -4.245  26.207  0.00  0.00    +0.031 A 
ATOM      5  C   UNL     1       7.871  -5.157  26.973  0.00  0.00    +0.084 A 
ATOM      6  N   UNL     1       6.882  -5.693  26.195  0.00  0.00    -0.361 N 
ATOM      7  H   UNL     1       6.218  -6.394  26.494  0.00  0.00    +0.165 HD
ATOM      8  C   UNL     1       6.925  -5.151  24.931  0.00  0.00    +0.050 A 
ATOM      9  C   UNL     1       6.113  -5.412  23.823  0.00  0.00    +0.026 A 
ATOM     10  C   UNL     1       6.402  -4.738  22.641  0.00  0.00    +0.006 A 
ATOM     11  C   UNL     1       7.448  -3.821  22.579  0.00  0.00    +0.046 A 
ENDBRANCH   1   2
BRANCH   1  12
ATOM     12  C   UNL     1       8.830  -1.279  23.295  0.00  0.00    +0.261 C 
BRANCH  12  13
ATOM     13  C   UNL     1       9.391  -0.852  21.927  0.00  0.00    +0.166 C 
BRANCH  13  14
ATOM     14  O   UNL     1      10.523  -1.635  21.527  0.00  0.00    -0.387 OA
ATOM     15  H   UNL     1      10.507  -2.470  22.024  0.00  0.00    +0.210 HD
ENDBRANCH  13  14
BRANCH  13  16
ATOM     16  C   UNL     1       9.815   0.631  22.037  0.00  0.00    +0.115 C 
BRANCH  16  17
ATOM     17  N   UNL     1       8.964   1.500  21.223  0.00  0.00    -0.311 NA
ATOM     18  H   UNL     1       9.564   1.976  20.542  0.00  0.00    +0.122 HD
BRANCH  17  20
ATOM     19  C   UNL     1       6.830   1.881  22.309  0.00  0.00    +0.023 C 
ATOM     20  C   UNL     1       8.206   2.479  22.010  0.00  0.00    +0.048 C 
ATOM     21  C   UNL     1       8.906   2.835  23.324  0.00  0.00    +0.023 C 
ENDBRANCH  17  20
ENDBRANCH  16  17
ENDBRANCH  13  16
ENDBRANCH  12  13
ENDBRANCH   1  12
TORSDOF 7
ENDMDL
MODEL 6
REMARK VINA RESULT:      -5.5      2.006      6.352
REMARK  Name = 
REMARK  9 active torsions:
REMARK  status: ('A' for Active; 'I' for Inactive)
REMARK    1  A    between atoms: C_1  and  C_2
REMARK    2  A    between atoms: C_2  and  C_3
REMARK    3  A    between atoms: C_2  and  N_4
REMARK    4  A    between atoms: N_4  and  C_5
REMARK    5  A    between atoms: C_5  and  C_6
REMARK    6  A    between atoms: C_6  and  O_7
REMARK    7  A    between atoms: C_6  and  C_8
REMARK    8  A    between atoms: C_8  and  O_9
REMARK    9  A    between atoms: O_9  and  C_10
REMARK                            x       y       z     vdW  Elec       q    Type
REMARK                         _______ _______ _______ _____ _____    ______ ____
ROOT
ATOM      1  O   UNL     1       8.121  -1.507  23.717  0.00  0.00    -0.489 OA
ENDROOT
BRANCH   1   2
ATOM      2  C   UNL     1       8.944  -0.396  23.767  0.00  0.00    +0.130 A 
ATOM      3  C   UNL     1       8.553   0.786  23.092  0.00  0.00    +0.041 A 
ATOM      4  C   UNL     1       7.434   1.157  22.289  0.00  0.00    +0.031 A 
ATOM      5  C   UNL     1       7.601   2.465  21.898  0.00  0.00    +0.084 A 
ATOM      6  N   UNL     1       8.775   2.915  22.436  0.00  0.00    -0.361 N 
ATOM      7  H   UNL     1       9.158   3.843  22.315  0.00  0.00    +0.165 HD
ATOM      8  C   UNL     1       9.378   1.914  23.164  0.00  0.00    +0.050 A 
ATOM      9  C   UNL     1      10.583   1.932  23.872  0.00  0.00    +0.026 A 
ATOM     10  C   UNL     1      10.978   0.754  24.499  0.00  0.00    +0.006 A 
ATOM     11  C   UNL     1      10.184  -0.388  24.438  0.00  0.00    +0.046 A 
ENDBRANCH   1   2
BRANCH   1  12
ATOM     12  C   UNL     1       8.433  -2.394  22.636  0.00  0.00    +0.261 C 
BRANCH  12  13
ATOM     13  C   UNL     1       7.268  -3.340  22.293  0.00  0.00    +0.166 C 
BRANCH  13  14
ATOM     14  O   UNL     1       5.992  -2.797  22.657  0.00  0.00    -0.387 OA
ATOM     15  H   UNL     1       6.138  -1.938  23.087  0.00  0.00    +0.210 HD
ENDBRANCH  13  14
BRANCH  13  16
ATOM     16  C   UNL     1       7.496  -4.660  23.065  0.00  0.00    +0.115 C 
BRANCH  16  17
ATOM     17  N   UNL     1       8.602  -4.548  24.017  0.00  0.00    -0.311 NA
ATOM     18  H   UNL     1       9.383  -5.106  23.656  0.00  0.00    +0.122 HD
BRANCH  17  20
ATOM     19  C   UNL     1       8.664  -3.867  26.342  0.00  0.00    +0.023 C 
ATOM     20  C   UNL     1       8.252  -4.978  25.375  0.00  0.00    +0.048 C 
ATOM     21  C   UNL     1       6.754  -5.258  25.527  0.00  0.00    +0.023 C 
ENDBRANCH  17  20
ENDBRANCH  16  17
ENDBRANCH  13  16
ENDBRANCH  12  13
ENDBRANCH   1  12
TORSDOF 7
ENDMDL
MODEL 7
REMARK VINA RESULT:      -5.4      1.714      2.679
REMARK  Name = 
REMARK  9 active torsions:
REMARK  status: ('A' for Active; 'I' for Inactive)
REMARK    1  A    between atoms: C_1  and  C_2
REMARK    2  A    between atoms: C_2  and  C_3
REMARK    3  A    between atoms: C_2  and  N_4
REMARK    4  A    between atoms: N_4  and  C_5
REMARK    5  A    between atoms: C_5  and  C_6
REMARK    6  A    between atoms: C_6  and  O_7
REMARK    7  A    between atoms: C_6  and  C_8
REMARK    8  A    between atoms: C_8  and  O_9
REMARK    9  A    between atoms: O_9  and  C_10
REMARK                            x       y       z     vdW  Elec       q    Type
REMARK                         _______ _______ _______ _____ _____    ______ ____
ROOT
ATOM      1  O   UNL     1       7.189  -2.472  23.788  0.00  0.00    -0.489 OA
ENDROOT
BRANCH   1   2
ATOM      2  C   UNL     1       6.498  -3.657  23.962  0.00  0.00    +0.130 A 
ATOM      3  C   UNL     1       6.683  -4.399  25.154  0.00  0.00    +0.041 A 
ATOM      4  C   UNL     1       7.483  -4.231  26.324  0.00  0.00    +0.031 A 
ATOM      5  C   UNL     1       7.243  -5.293  27.164  0.00  0.00    +0.084 A 
ATOM      6  N   UNL     1       6.321  -6.103  26.560  0.00  0.00    -0.361 N 
ATOM      7  H   UNL     1       5.955  -6.963  26.946  0.00  0.00    +0.165 HD
ATOM      8  C   UNL     1       5.966  -5.587  25.335  0.00  0.00    +0.050 A 
ATOM      9  C   UNL     1       5.068  -6.085  24.386  0.00  0.00    +0.026 A 
ATOM     10  C   UNL     1       4.922  -5.370  23.201  0.00  0.00    +0.006 A 
ATOM     11  C   UNL     1       5.629  -4.190  22.987  0.00  0.00    +0.046 A 
ENDBRANCH   1   2
BRANCH   1  12
ATOM     12  C   UNL     1       8.243  -2.567  22.823  0.00  0.00    +0.261 C 
BRANCH  12  13
ATOM     13  C   UNL     1       9.633  -2.330  23.440  0.00  0.00    +0.166 C 
BRANCH  13  14
ATOM     14  O   UNL     1      10.117  -3.471  24.161  0.00  0.00    -0.387 OA
ATOM     15  H   UNL     1       9.833  -4.272  23.690  0.00  0.00    +0.210 HD
ENDBRANCH  13  14
BRANCH  13  16
ATOM     16  C   UNL     1       9.517  -1.131  24.409  0.00  0.00    +0.115 C 
BRANCH  16  17
ATOM     17  N   UNL     1       8.729  -0.041  23.831  0.00  0.00    -0.311 NA
ATOM     18  H   UNL     1       8.237  -0.411  23.011  0.00  0.00    +0.122 HD
BRANCH  17  20
ATOM     19  C   UNL     1      10.818   1.100  24.290  0.00  0.00    +0.023 C 
ATOM     20  C   UNL     1       9.534   1.129  23.460  0.00  0.00    +0.048 C 
ATOM     21  C   UNL     1       9.887   1.142  21.970  0.00  0.00    +0.023 C 
ENDBRANCH  17  20
ENDBRANCH  16  17
ENDBRANCH  13  16
ENDBRANCH  12  13
ENDBRANCH   1  12
TORSDOF 7
ENDMDL
MODEL 8
REMARK VINA RESULT:      -5.4      1.903      6.708
REMARK  Name = 
REMARK  9 active torsions:
REMARK  status: ('A' for Active; 'I' for Inactive)
REMARK    1  A    between atoms: C_1  and  C_2
REMARK    2  A    between atoms: C_2  and  C_3
REMARK    3  A    between atoms: C_2  and  N_4
REMARK    4  A    between atoms: N_4  and  C_5
REMARK    5  A    between atoms: C_5  and  C_6
REMARK    6  A    between atoms: C_6  and  O_7
REMARK    7  A    between atoms: C_6  and  C_8
REMARK    8  A    between atoms: C_8  and  O_9
REMARK    9  A    between atoms: O_9  and  C_10
REMARK                            x       y       z     vdW  Elec       q    Type
REMARK                         _______ _______ _______ _____ _____    ______ ____
ROOT
ATOM      1  O   UNL     1       8.292  -1.126  23.431  0.00  0.00    -0.489 OA
ENDROOT
BRANCH   1   2
ATOM      2  C   UNL     1       9.009   0.056  23.496  0.00  0.00    +0.130 A 
ATOM      3  C   UNL     1       8.459   1.232  22.931  0.00  0.00    +0.041 A 
ATOM      4  C   UNL     1       7.252   1.539  22.234  0.00  0.00    +0.031 A 
ATOM      5  C   UNL     1       7.267   2.878  21.920  0.00  0.00    +0.084 A 
ATOM      6  N   UNL     1       8.431   3.407  22.403  0.00  0.00    -0.361 N 
ATOM      7  H   UNL     1       8.715   4.374  22.317  0.00  0.00    +0.165 HD
ATOM      8  C   UNL     1       9.178   2.429  23.019  0.00  0.00    +0.050 A 
ATOM      9  C   UNL     1      10.427   2.523  23.640  0.00  0.00    +0.026 A 
ATOM     10  C   UNL     1      10.977   1.354  24.158  0.00  0.00    +0.006 A 
ATOM     11  C   UNL     1      10.291   0.146  24.078  0.00  0.00    +0.046 A 
ENDBRANCH   1   2
BRANCH   1  12
ATOM     12  C   UNL     1       9.112  -2.272  23.173  0.00  0.00    +0.261 C 
BRANCH  12  13
ATOM     13  C   UNL     1       8.827  -3.432  24.142  0.00  0.00    +0.166 C 
BRANCH  13  14
ATOM     14  O   UNL     1      10.014  -4.146  24.511  0.00  0.00    -0.387 OA
ATOM     15  H   UNL     1      10.170  -4.009  25.460  0.00  0.00    +0.210 HD
ENDBRANCH  13  14
BRANCH  13  16
ATOM     16  C   UNL     1       7.851  -4.402  23.437  0.00  0.00    +0.115 C 
BRANCH  16  17
ATOM     17  N   UNL     1       7.294  -3.818  22.216  0.00  0.00    -0.311 NA
ATOM     18  H   UNL     1       7.200  -2.809  22.367  0.00  0.00    +0.122 HD
BRANCH  17  20
ATOM     19  C   UNL     1       6.197  -5.908  21.664  0.00  0.00    +0.023 C 
ATOM     20  C   UNL     1       6.005  -4.399  21.825  0.00  0.00    +0.048 C 
ATOM     21  C   UNL     1       4.908  -4.131  22.860  0.00  0.00    +0.023 C 
ENDBRANCH  17  20
ENDBRANCH  16  17
ENDBRANCH  13  16
ENDBRANCH  12  13
ENDBRANCH   1  12
TORSDOF 7
ENDMDL
MODEL 9
REMARK VINA RESULT:      -5.4      2.006      5.751
REMARK  Name = 
REMARK  9 active torsions:
REMARK  status: ('A' for Active; 'I' for Inactive)
REMARK    1  A    between atoms: C_1  and  C_2
REMARK    2  A    between atoms: C_2  and  C_3
REMARK    3  A    between atoms: C_2  and  N_4
REMARK    4  A    between atoms: N_4  and  C_5
REMARK    5  A    between atoms: C_5  and  C_6
REMARK    6  A    between atoms: C_6  and  O_7
REMARK    7  A    between atoms: C_6  and  C_8
REMARK    8  A    between atoms: C_8  and  O_9
REMARK    9  A    between atoms: O_9  and  C_10
REMARK                            x       y       z     vdW  Elec       q    Type
REMARK                         _______ _______ _______ _____ _____    ______ ____
ROOT
ATOM      1  O   UNL     1       8.613  -3.189  26.002  0.00  0.00    -0.489 OA
ENDROOT
BRANCH   1   2
ATOM      2  C   UNL     1       8.605  -1.859  25.622  0.00  0.00    +0.130 A 
ATOM      3  C   UNL     1       9.263  -1.475  24.428  0.00  0.00    +0.041 A 
ATOM      4  C   UNL     1      10.012  -2.168  23.431  0.00  0.00    +0.031 A 
ATOM      5  C   UNL     1      10.414  -1.254  22.484  0.00  0.00    +0.084 A 
ATOM      6  N   UNL     1       9.933  -0.029  22.857  0.00  0.00    -0.361 N 
ATOM      7  H   UNL     1      10.075   0.834  22.350  0.00  0.00    +0.165 HD
ATOM      8  C   UNL     1       9.234  -0.132  24.037  0.00  0.00    +0.050 A 
ATOM      9  C   UNL     1       8.584   0.862  24.776  0.00  0.00    +0.026 A 
ATOM     10  C   UNL     1       7.975   0.482  25.967  0.00  0.00    +0.006 A 
ATOM     11  C   UNL     1       7.994  -0.845  26.389  0.00  0.00    +0.046 A 
ENDBRANCH   1   2
BRANCH   1  12
ATOM     12  C   UNL     1       7.429  -3.585  26.705  0.00  0.00    +0.261 C 
BRANCH  12  13
ATOM     13  C   UNL     1       7.085  -5.069  26.494  0.00  0.00    +0.166 C 
BRANCH  13  14
ATOM     14  O   UNL     1       8.199  -5.935  26.750  0.00  0.00    -0.387 OA
ATOM     15  H   UNL     1       8.489  -5.795  27.667  0.00  0.00    +0.210 HD
ENDBRANCH  13  14
BRANCH  13  16
ATOM     16  C   UNL     1       6.637  -5.243  25.024  0.00  0.00    +0.115 C 
BRANCH  16  17
ATOM     17  N   UNL     1       7.770  -5.166  24.100  0.00  0.00    -0.311 NA
ATOM     18  H   UNL     1       8.511  -4.626  24.558  0.00  0.00    +0.122 HD
BRANCH  17  20
ATOM     19  C   UNL     1       7.031  -5.700  21.854  0.00  0.00    +0.023 C 
ATOM     20  C   UNL     1       7.428  -4.569  22.804  0.00  0.00    +0.048 C 
ATOM     21  C   UNL     1       6.276  -3.565  22.913  0.00  0.00    +0.023 C 
ENDBRANCH  17  20
ENDBRANCH  16  17
ENDBRANCH  13  16
ENDBRANCH  12  13
ENDBRANCH   1  12
TORSDOF 7
ENDMDL
