MODEL 1
REMARK VINA RESULT:      -6.0      0.000      0.000
REMARK  Name = 
REMARK  5 active torsions:
REMARK  status: ('A' for Active; 'I' for Inactive)
REMARK    1  A    between atoms: N_1  and  CA_2
REMARK    2  A    between atoms: CA_2  and  CB_4
REMARK    3  A    between atoms: CA_2  and  C_14
REMARK    4  A    between atoms: CB_4  and  CG_5
REMARK    5  A    between atoms: C_14  and  O_15
REMARK                            x       y       z     vdW  Elec       q    Type
REMARK                         _______ _______ _______ _____ _____    ______ ____
ROOT
ATOM      1  CG  TRP A   1       9.743  -1.717  23.149  0.00  0.00    -0.020 A 
ATOM      2  CD2 TRP A   1      10.044  -0.324  23.300  0.00  0.00    +0.003 A 
ATOM      3  CE2 TRP A   1       9.776   0.297  22.080  0.00  0.00    +0.047 A 
ATOM      4  CZ2 TRP A   1       9.942   1.673  21.876  0.00  0.00    +0.026 A 
ATOM      5  CH2 TRP A   1      10.399   2.436  22.954  0.00  0.00    +0.002 A 
ATOM      6  CZ3 TRP A   1      10.678   1.846  24.183  0.00  0.00    +0.001 A 
ATOM      7  NE1 TRP A   1       9.339  -0.679  21.216  0.00  0.00    -0.360 N 
ATOM      8  HE1 TRP A   1       9.056  -0.510  20.259  0.00  0.00    +0.165 HD
ATOM      9  CE3 TRP A   1      10.505   0.469  24.371  0.00  0.00    +0.010 A 
ATOM     10  CD1 TRP A   1       9.315  -1.895  21.846  0.00  0.00    +0.087 A 
ENDROOT
BRANCH   1  11
ATOM     11  CB  TRP A   1       9.835  -2.772  24.209  0.00  0.00    +0.067 C 
BRANCH  11  12
ATOM     12  CA  TRP A   1       8.699  -3.803  24.153  0.00  0.00    +0.165 C 
BRANCH  12  13
ATOM     13  N   TRP A   1       7.366  -3.239  24.559  0.00  0.00    -0.318 NA
ATOM     14  H1  TRP A   1       6.851  -3.015  23.701  0.00  0.00    +0.119 HD
ATOM     15  H2  TRP A   1       6.830  -4.029  24.941  0.00  0.00    +0.119 HD
ENDBRANCH  12  13
BRANCH  12  16
ATOM     16  C   TRP A   1       9.036  -4.964  25.102  0.00  0.00    +0.322 C 
ATOM     17  OXT TRP A   1       8.249  -5.517  25.854  0.00  0.00    -0.249 OA
BRANCH  16  18
ATOM     18  O   TRP A   1      10.347  -5.310  25.011  0.00  0.00    -0.480 OA
ATOM     19  H   TRP A   1      10.440  -5.756  24.131  0.00  0.00    +0.295 HD
ENDBRANCH  16  18
ENDBRANCH  12  16
ENDBRANCH  11  12
ENDBRANCH   1  11
TORSDOF 5
ENDMDL
MODEL 2
REMARK VINA RESULT:      -5.9      2.094      2.800
REMARK  Name = 
REMARK  5 active torsions:
REMARK  status: ('A' for Active; 'I' for Inactive)
REMARK    1  A    between atoms: N_1  and  CA_2
REMARK    2  A    between atoms: CA_2  and  CB_4
REMARK    3  A    between atoms: CA_2  and  C_14
REMARK    4  A    between atoms: CB_4  and  CG_5
REMARK    5  A    between atoms: C_14  and  O_15
REMARK                            x       y       z     vdW  Elec       q    Type
REMARK                         _______ _______ _______ _____ _____    ______ ____
ROOT
ATOM      1  CG  TRP A   1       8.909  -2.136  25.082  0.00  0.00    -0.020 A 
ATOM      2  CD2 TRP A   1       9.343  -1.066  24.235  0.00  0.00    +0.003 A 
ATOM      3  CE2 TRP A   1       9.405   0.088  25.017  0.00  0.00    +0.047 A 
ATOM      4  CZ2 TRP A   1       9.816   1.327  24.511  0.00  0.00    +0.026 A 
ATOM      5  CH2 TRP A   1      10.171   1.389  23.160  0.00  0.00    +0.002 A 
ATOM      6  CZ3 TRP A   1      10.117   0.257  22.352  0.00  0.00    +0.001 A 
ATOM      7  NE1 TRP A   1       9.015  -0.263  26.288  0.00  0.00    -0.360 N 
ATOM      8  HE1 TRP A   1       8.981   0.376  27.072  0.00  0.00    +0.165 HD
ATOM      9  CE3 TRP A   1       9.705  -0.976  22.875  0.00  0.00    +0.010 A 
ATOM     10  CD1 TRP A   1       8.713  -1.597  26.340  0.00  0.00    +0.087 A 
ENDROOT
BRANCH   1  11
ATOM     11  CB  TRP A   1       8.738  -3.573  24.691  0.00  0.00    +0.067 C 
BRANCH  11  12
ATOM     12  CA  TRP A   1       9.114  -4.563  25.802  0.00  0.00    +0.165 C 
BRANCH  12  13
ATOM     13  N   TRP A   1      10.145  -5.570  25.375  0.00  0.00    -0.318 NA
ATOM     14  H1  TRP A   1       9.647  -6.417  25.083  0.00  0.00    +0.119 HD
ATOM     15  H2  TRP A   1      10.530  -5.220  24.488  0.00  0.00    +0.119 HD
ENDBRANCH  12  13
BRANCH  12  16
ATOM     16  C   TRP A   1       7.852  -5.326  26.234  0.00  0.00    +0.322 C 
ATOM     17  OXT TRP A   1       6.836  -5.452  25.568  0.00  0.00    -0.249 OA
BRANCH  16  18
ATOM     18  O   TRP A   1       7.997  -5.856  27.477  0.00  0.00    -0.480 OA
ATOM     19  H   TRP A   1       7.936  -6.837  27.354  0.00  0.00    +0.295 HD
ENDBRANCH  16  18
ENDBRANCH  12  16
ENDBRANCH  11  12
ENDBRANCH   1  11
TORSDOF 5
ENDMDL
MODEL 3
REMARK VINA RESULT:      -5.8      1.736      2.405
REMARK  Name = 
REMARK  5 active torsions:
REMARK  status: ('A' for Active; 'I' for Inactive)
REMARK    1  A    between atoms: N_1  and  CA_2
REMARK    2  A    between atoms: CA_2  and  CB_4
REMARK    3  A    between atoms: CA_2  and  C_14
REMARK    4  A    between atoms: CB_4  and  CG_5
REMARK    5  A    between atoms: C_14  and  O_15
REMARK                            x       y       z     vdW  Elec       q    Type
REMARK                         _______ _______ _______ _____ _____    ______ ____
ROOT
ATOM      1  CG  TRP A   1       8.675  -1.499  24.885  0.00  0.00    -0.020 A 
ATOM      2  CD2 TRP A   1       9.027  -0.704  23.746  0.00  0.00    +0.003 A 
ATOM      3  CE2 TRP A   1       9.670   0.440  24.217  0.00  0.00    +0.047 A 
ATOM      4  CZ2 TRP A   1      10.171   1.435  23.366  0.00  0.00    +0.026 A 
ATOM      5  CH2 TRP A   1      10.003   1.253  21.991  0.00  0.00    +0.002 A 
ATOM      6  CZ3 TRP A   1       9.362   0.124  21.489  0.00  0.00    +0.001 A 
ATOM      7  NE1 TRP A   1       9.702   0.353  25.589  0.00  0.00    -0.360 N 
ATOM      8  HE1 TRP A   1      10.127   1.042  26.196  0.00  0.00    +0.165 HD
ATOM      9  CE3 TRP A   1       8.869  -0.862  22.354  0.00  0.00    +0.010 A 
ATOM     10  CD1 TRP A   1       9.106  -0.808  26.004  0.00  0.00    +0.087 A 
ENDROOT
BRANCH   1  11
ATOM     11  CB  TRP A   1       8.006  -2.839  24.868  0.00  0.00    +0.067 C 
BRANCH  11  12
ATOM     12  CA  TRP A   1       8.939  -3.989  24.464  0.00  0.00    +0.165 C 
BRANCH  12  13
ATOM     13  N   TRP A   1       8.268  -5.021  23.601  0.00  0.00    -0.318 NA
ATOM     14  H1  TRP A   1       7.429  -4.590  23.200  0.00  0.00    +0.119 HD
ATOM     15  H2  TRP A   1       8.874  -5.138  22.779  0.00  0.00    +0.119 HD
ENDBRANCH  12  13
BRANCH  12  16
ATOM     16  C   TRP A   1       9.446  -4.687  25.736  0.00  0.00    +0.322 C 
ATOM     17  OXT TRP A   1       9.033  -4.486  26.868  0.00  0.00    -0.249 OA
BRANCH  16  18
ATOM     18  O   TRP A   1      10.436  -5.573  25.451  0.00  0.00    -0.480 OA
ATOM     19  H   TRP A   1      11.281  -5.069  25.569  0.00  0.00    +0.295 HD
ENDBRANCH  16  18
ENDBRANCH  12  16
ENDBRANCH  11  12
ENDBRANCH   1  11
TORSDOF 5
ENDMDL
MODEL 4
REMARK VINA RESULT:      -5.6      1.908      2.719
REMARK  Name = 
REMARK  5 active torsions:
REMARK  status: ('A' for Active; 'I' for Inactive)
REMARK    1  A    between atoms: N_1  and  CA_2
REMARK    2  A    between atoms: CA_2  and  CB_4
REMARK    3  A    between atoms: CA_2  and  C_14
REMARK    4  A    between atoms: CB_4  and  CG_5
REMARK    5  A    between atoms: C_14  and  O_15
REMARK                            x       y       z     vdW  Elec       q    Type
REMARK                         _______ _______ _______ _____ _____    ______ ____
ROOT
ATOM      1  CG  TRP A   1       7.699  -3.241  23.597  0.00  0.00    -0.020 A 
ATOM      2  CD2 TRP A   1       8.528  -2.148  23.185  0.00  0.00    +0.003 A 
ATOM      3  CE2 TRP A   1       7.687  -1.085  22.857  0.00  0.00    +0.047 A 
ATOM      4  CZ2 TRP A   1       8.167   0.160  22.430  0.00  0.00    +0.026 A 
ATOM      5  CH2 TRP A   1       9.552   0.320  22.332  0.00  0.00    +0.002 A 
ATOM      6  CZ3 TRP A   1      10.418  -0.723  22.648  0.00  0.00    +0.001 A 
ATOM      7  NE1 TRP A   1       6.396  -1.515  23.052  0.00  0.00    -0.360 N 
ATOM      8  HE1 TRP A   1       5.574  -0.942  22.907  0.00  0.00    +0.165 HD
ATOM      9  CE3 TRP A   1       9.922  -1.961  23.076  0.00  0.00    +0.010 A 
ATOM     10  CD1 TRP A   1       6.389  -2.811  23.496  0.00  0.00    +0.087 A 
ENDROOT
BRANCH   1  11
ATOM     11  CB  TRP A   1       8.162  -4.582  24.083  0.00  0.00    +0.067 C 
BRANCH  11  12
ATOM     12  CA  TRP A   1       9.027  -4.513  25.349  0.00  0.00    +0.165 C 
BRANCH  12  13
ATOM     13  N   TRP A   1      10.138  -5.526  25.364  0.00  0.00    -0.318 NA
ATOM     14  H1  TRP A   1      10.295  -5.825  24.396  0.00  0.00    +0.119 HD
ATOM     15  H2  TRP A   1      10.995  -5.002  25.578  0.00  0.00    +0.119 HD
ENDBRANCH  12  13
BRANCH  12  16
ATOM     16  C   TRP A   1       8.134  -4.765  26.574  0.00  0.00    +0.322 C 
ATOM     17  OXT TRP A   1       7.454  -3.925  27.142  0.00  0.00    -0.249 OA
BRANCH  16  18
ATOM     18  O   TRP A   1       8.191  -6.065  26.967  0.00  0.00    -0.480 OA
ATOM     19  H   TRP A   1       7.788  -6.084  27.871  0.00  0.00    +0.295 HD
ENDBRANCH  16  18
ENDBRANCH  12  16
ENDBRANCH  11  12
ENDBRANCH   1  11
TORSDOF 5
ENDMDL
MODEL 5
REMARK VINA RESULT:      -5.5      3.279      5.896
REMARK  Name = 
REMARK  5 active torsions:
REMARK  status: ('A' for Active; 'I' for Inactive)
REMARK    1  A    between atoms: N_1  and  CA_2
REMARK    2  A    between atoms: CA_2  and  CB_4
REMARK    3  A    between atoms: CA_2  and  C_14
REMARK    4  A    between atoms: CB_4  and  CG_5
REMARK    5  A    between atoms: C_14  and  O_15
REMARK                            x       y       z     vdW  Elec       q    Type
REMARK                         _______ _______ _______ _____ _____    ______ ____
ROOT
ATOM      1  CG  TRP A   1       8.356  -1.741  23.401  0.00  0.00    -0.020 A 
ATOM      2  CD2 TRP A   1       7.731  -2.952  22.959  0.00  0.00    +0.003 A 
ATOM      3  CE2 TRP A   1       8.256  -3.996  23.721  0.00  0.00    +0.047 A 
ATOM      4  CZ2 TRP A   1       7.849  -5.327  23.567  0.00  0.00    +0.026 A 
ATOM      5  CH2 TRP A   1       6.878  -5.599  22.600  0.00  0.00    +0.002 A 
ATOM      6  CZ3 TRP A   1       6.337  -4.581  21.820  0.00  0.00    +0.001 A 
ATOM      7  NE1 TRP A   1       9.171  -3.445  24.587  0.00  0.00    -0.360 N 
ATOM      8  HE1 TRP A   1       9.697  -3.971  25.273  0.00  0.00    +0.165 HD
ATOM      9  CE3 TRP A   1       6.754  -3.254  21.989  0.00  0.00    +0.010 A 
ATOM     10  CD1 TRP A   1       9.242  -2.090  24.404  0.00  0.00    +0.087 A 
ENDROOT
BRANCH   1  11
ATOM     11  CB  TRP A   1       8.076  -0.356  22.901  0.00  0.00    +0.067 C 
BRANCH  11  12
ATOM     12  CA  TRP A   1       9.022   0.098  21.781  0.00  0.00    +0.165 C 
BRANCH  12  13
ATOM     13  N   TRP A   1       9.869  -1.016  21.232  0.00  0.00    -0.318 NA
ATOM     14  H1  TRP A   1      10.616  -1.198  21.911  0.00  0.00    +0.119 HD
ATOM     15  H2  TRP A   1       9.294  -1.866  21.299  0.00  0.00    +0.119 HD
ENDBRANCH  12  13
BRANCH  12  16
ATOM     16  C   TRP A   1       9.960   1.183  22.334  0.00  0.00    +0.322 C 
ATOM     17  OXT TRP A   1      10.575   1.119  23.387  0.00  0.00    -0.249 OA
BRANCH  16  18
ATOM     18  O   TRP A   1      10.024   2.252  21.497  0.00  0.00    -0.480 OA
ATOM     19  H   TRP A   1       9.087   2.435  21.233  0.00  0.00    +0.295 HD
ENDBRANCH  16  18
ENDBRANCH  12  16
ENDBRANCH  11  12
ENDBRANCH   1  11
TORSDOF 5
ENDMDL
MODEL 6
REMARK VINA RESULT:      -5.3      1.638      2.114
REMARK  Name = 
REMARK  5 active torsions:
REMARK  status: ('A' for Active; 'I' for Inactive)
REMARK    1  A    between atoms: N_1  and  CA_2
REMARK    2  A    between atoms: CA_2  and  CB_4
REMARK    3  A    between atoms: CA_2  and  C_14
REMARK    4  A    between atoms: CB_4  and  CG_5
REMARK    5  A    between atoms: C_14  and  O_15
REMARK                            x       y       z     vdW  Elec       q    Type
REMARK                         _______ _______ _______ _____ _____    ______ ____
ROOT
ATOM      1  CG  TRP A   1       8.027  -2.685  24.220  0.00  0.00    -0.020 A 
ATOM      2  CD2 TRP A   1       8.878  -1.532  24.204  0.00  0.00    +0.003 A 
ATOM      3  CE2 TRP A   1       9.228  -1.289  22.876  0.00  0.00    +0.047 A 
ATOM      4  CZ2 TRP A   1      10.043  -0.217  22.490  0.00  0.00    +0.026 A 
ATOM      5  CH2 TRP A   1      10.516   0.631  23.495  0.00  0.00    +0.002 A 
ATOM      6  CZ3 TRP A   1      10.188   0.413  24.830  0.00  0.00    +0.001 A 
ATOM      7  NE1 TRP A   1       8.623  -2.260  22.113  0.00  0.00    -0.360 N 
ATOM      8  HE1 TRP A   1       8.691  -2.319  21.105  0.00  0.00    +0.165 HD
ATOM      9  CE3 TRP A   1       9.371  -0.663  25.199  0.00  0.00    +0.010 A 
ATOM     10  CD1 TRP A   1       7.899  -3.106  22.909  0.00  0.00    +0.087 A 
ENDROOT
BRANCH   1  11
ATOM     11  CB  TRP A   1       7.369  -3.294  25.421  0.00  0.00    +0.067 C 
BRANCH  11  12
ATOM     12  CA  TRP A   1       7.485  -4.824  25.477  0.00  0.00    +0.165 C 
BRANCH  12  13
ATOM     13  N   TRP A   1       6.171  -5.525  25.272  0.00  0.00    -0.318 NA
ATOM     14  H1  TRP A   1       5.978  -6.071  26.119  0.00  0.00    +0.119 HD
ATOM     15  H2  TRP A   1       5.451  -4.793  25.310  0.00  0.00    +0.119 HD
ENDBRANCH  12  13
BRANCH  12  16
ATOM     16  C   TRP A   1       8.032  -5.229  26.855  0.00  0.00    +0.322 C 
ATOM     17  OXT TRP A   1       7.415  -5.841  27.712  0.00  0.00    -0.249 OA
BRANCH  16  18
ATOM     18  O   TRP A   1       9.316  -4.812  27.017  0.00  0.00    -0.480 OA
ATOM     19  H   TRP A   1       9.501  -4.902  27.986  0.00  0.00    +0.295 HD
ENDBRANCH  16  18
ENDBRANCH  12  16
ENDBRANCH  11  12
ENDBRANCH   1  11
TORSDOF 5
ENDMDL
MODEL 7
REMARK VINA RESULT:      -5.2      5.484      7.243
REMARK  Name = 
REMARK  5 active torsions:
REMARK  status: ('A' for Active; 'I' for Inactive)
REMARK    1  A    between atoms: N_1  and  CA_2
REMARK    2  A    between atoms: CA_2  and  CB_4
REMARK    3  A    between atoms: CA_2  and  C_14
REMARK    4  A    between atoms: CB_4  and  CG_5
REMARK    5  A    between atoms: C_14  and  O_15
REMARK                            x       y       z     vdW  Elec       q    Type
REMARK                         _______ _______ _______ _____ _____    ______ ____
ROOT
ATOM      1  CG  TRP A   1       8.367   2.757  23.037  0.00  0.00    -0.020 A 
ATOM      2  CD2 TRP A   1       8.972   1.495  22.733  0.00  0.00    +0.003 A 
ATOM      3  CE2 TRP A   1       9.548   1.013  23.908  0.00  0.00    +0.047 A 
ATOM      4  CZ2 TRP A   1      10.213  -0.218  23.979  0.00  0.00    +0.026 A 
ATOM      5  CH2 TRP A   1      10.293  -0.978  22.808  0.00  0.00    +0.002 A 
ATOM      6  CZ3 TRP A   1       9.732  -0.524  21.619  0.00  0.00    +0.001 A 
ATOM      7  NE1 TRP A   1       9.313   1.948  24.888  0.00  0.00    -0.360 N 
ATOM      8  HE1 TRP A   1       9.605   1.852  25.852  0.00  0.00    +0.165 HD
ATOM      9  CE3 TRP A   1       9.069   0.709  21.566  0.00  0.00    +0.010 A 
ATOM     10  CD1 TRP A   1       8.604   3.002  24.377  0.00  0.00    +0.087 A 
ENDROOT
BRANCH   1  11
ATOM     11  CB  TRP A   1       7.591   3.627  22.095  0.00  0.00    +0.067 C 
BRANCH  11  12
ATOM     12  CA  TRP A   1       6.931   4.835  22.774  0.00  0.00    +0.165 C 
BRANCH  12  13
ATOM     13  N   TRP A   1       5.475   4.985  22.432  0.00  0.00    -0.318 NA
ATOM     14  H1  TRP A   1       4.959   4.276  22.964  0.00  0.00    +0.119 HD
ATOM     15  H2  TRP A   1       5.170   5.861  22.874  0.00  0.00    +0.119 HD
ENDBRANCH  12  13
BRANCH  12  16
ATOM     16  C   TRP A   1       7.660   6.113  22.329  0.00  0.00    +0.322 C 
ATOM     17  OXT TRP A   1       8.641   6.596  22.872  0.00  0.00    -0.249 OA
BRANCH  16  18
ATOM     18  O   TRP A   1       7.069   6.662  21.235  0.00  0.00    -0.480 OA
ATOM     19  H   TRP A   1       6.864   7.597  21.489  0.00  0.00    +0.295 HD
ENDBRANCH  16  18
ENDBRANCH  12  16
ENDBRANCH  11  12
ENDBRANCH   1  11
TORSDOF 5
ENDMDL
MODEL 8
REMARK VINA RESULT:      -5.2      3.078      5.565
REMARK  Name = 
REMARK  5 active torsions:
REMARK  status: ('A' for Active; 'I' for Inactive)
REMARK    1  A    between atoms: N_1  and  CA_2
REMARK    2  A    between atoms: CA_2  and  CB_4
REMARK    3  A    between atoms: CA_2  and  C_14
REMARK    4  A    between atoms: CB_4  and  CG_5
REMARK    5  A    between atoms: C_14  and  O_15
REMARK                            x       y       z     vdW  Elec       q    Type
REMARK                         _______ _______ _______ _____ _____    ______ ____
ROOT
ATOM      1  CG  TRP A   1       8.391  -2.951  24.308  0.00  0.00    -0.020 A 
ATOM      2  CD2 TRP A   1       7.582  -3.528  23.275  0.00  0.00    +0.003 A 
ATOM      3  CE2 TRP A   1       7.733  -4.912  23.349  0.00  0.00    +0.047 A 
ATOM      4  CZ2 TRP A   1       7.063  -5.796  22.493  0.00  0.00    +0.026 A 
ATOM      5  CH2 TRP A   1       6.216  -5.245  21.528  0.00  0.00    +0.002 A 
ATOM      6  CZ3 TRP A   1       6.046  -3.867  21.426  0.00  0.00    +0.001 A 
ATOM      7  NE1 TRP A   1       8.606  -5.170  24.380  0.00  0.00    -0.360 N 
ATOM      8  HE1 TRP A   1       8.886  -6.098  24.673  0.00  0.00    +0.165 HD
ATOM      9  CE3 TRP A   1       6.723  -2.997  22.291  0.00  0.00    +0.010 A 
ATOM     10  CD1 TRP A   1       9.009  -4.000  24.964  0.00  0.00    +0.087 A 
ENDROOT
BRANCH   1  11
ATOM     11  CB  TRP A   1       8.512  -1.495  24.641  0.00  0.00    +0.067 C 
BRANCH  11  12
ATOM     12  CA  TRP A   1       9.941  -0.949  24.504  0.00  0.00    +0.165 C 
BRANCH  12  13
ATOM     13  N   TRP A   1      10.129   0.390  25.162  0.00  0.00    -0.318 NA
ATOM     14  H1  TRP A   1      10.822   0.908  24.612  0.00  0.00    +0.119 HD
ATOM     15  H2  TRP A   1       9.264   0.915  24.983  0.00  0.00    +0.119 HD
ENDBRANCH  12  13
BRANCH  12  16
ATOM     16  C   TRP A   1      10.272  -0.798  23.011  0.00  0.00    +0.322 C 
ATOM     17  OXT TRP A   1      10.617  -1.702  22.265  0.00  0.00    -0.249 OA
BRANCH  16  18
ATOM     18  O   TRP A   1      10.139   0.492  22.604  0.00  0.00    -0.480 OA
ATOM     19  H   TRP A   1      10.753   0.589  21.833  0.00  0.00    +0.295 HD
ENDBRANCH  16  18
ENDBRANCH  12  16
ENDBRANCH  11  12
ENDBRANCH   1  11
TORSDOF 5
ENDMDL
MODEL 9
REMARK VINA RESULT:      -5.1      2.941      4.085
REMARK  Name = 
REMARK  5 active torsions:
REMARK  status: ('A' for Active; 'I' for Inactive)
REMARK    1  A    between atoms: N_1  and  CA_2
REMARK    2  A    between atoms: CA_2  and  CB_4
REMARK    3  A    between atoms: CA_2  and  C_14
REMARK    4  A    between atoms: CB_4  and  CG_5
REMARK    5  A    between atoms: C_14  and  O_15
REMARK                            x       y       z     vdW  Elec       q    Type
REMARK                         _______ _______ _______ _____ _____    ______ ____
ROOT
ATOM      1  CG  TRP A   1       8.921   1.867  22.278  0.00  0.00    -0.020 A 
ATOM      2  CD2 TRP A   1       8.969   3.145  22.924  0.00  0.00    +0.003 A 
ATOM      3  CE2 TRP A   1       7.763   3.794  22.657  0.00  0.00    +0.047 A 
ATOM      4  CZ2 TRP A   1       7.459   5.067  23.155  0.00  0.00    +0.026 A 
ATOM      5  CH2 TRP A   1       8.422   5.698  23.947  0.00  0.00    +0.002 A 
ATOM      6  CZ3 TRP A   1       9.637   5.080  24.229  0.00  0.00    +0.001 A 
ATOM      7  NE1 TRP A   1       7.013   2.949  21.873  0.00  0.00    -0.360 N 
ATOM      8  HE1 TRP A   1       6.080   3.156  21.540  0.00  0.00    +0.165 HD
ATOM      9  CE3 TRP A   1       9.923   3.805  23.724  0.00  0.00    +0.010 A 
ATOM     10  CD1 TRP A   1       7.699   1.787  21.637  0.00  0.00    +0.087 A 
ENDROOT
BRANCH   1  11
ATOM     11  CB  TRP A   1       9.976   0.803  22.322  0.00  0.00    +0.067 C 
BRANCH  11  12
ATOM     12  CA  TRP A   1       9.738  -0.256  23.408  0.00  0.00    +0.165 C 
BRANCH  12  13
ATOM     13  N   TRP A   1      10.532  -0.009  24.661  0.00  0.00    -0.318 NA
ATOM     14  H1  TRP A   1      11.030  -0.877  24.886  0.00  0.00    +0.119 HD
ATOM     15  H2  TRP A   1      11.296   0.623  24.390  0.00  0.00    +0.119 HD
ENDBRANCH  12  13
BRANCH  12  16
ATOM     16  C   TRP A   1      10.137  -1.632  22.853  0.00  0.00    +0.322 C 
ATOM     17  OXT TRP A   1      10.325  -2.639  23.518  0.00  0.00    -0.249 OA
BRANCH  16  18
ATOM     18  O   TRP A   1      10.267  -1.600  21.500  0.00  0.00    -0.480 OA
ATOM     19  H   TRP A   1       9.382  -1.869  21.146  0.00  0.00    +0.295 HD
ENDBRANCH  16  18
ENDBRANCH  12  16
ENDBRANCH  11  12
ENDBRANCH   1  11
TORSDOF 5
ENDMDL
