MODEL 1
REMARK VINA RESULT:      -5.2      0.000      0.000
REMARK  Name = 
REMARK  14 active torsions:
REMARK  status: ('A' for Active; 'I' for Inactive)
REMARK    1  A    between atoms: C_2  and  O_3
REMARK    2  A    between atoms: N_5  and  C_6
REMARK    3  A    between atoms: C_6  and  C_7
REMARK    4  A    between atoms: C_7  and  C_8
REMARK    5  A    between atoms: C_8  and  C_9
REMARK    6  A    between atoms: C_9  and  C_10
REMARK    7  A    between atoms: C_10  and  C_11
REMARK    8  A    between atoms: C_11  and  C_12
REMARK    9  A    between atoms: C_12  and  C_13
REMARK   10  A    between atoms: C_13  and  C_14
REMARK   11  A    between atoms: C_15  and  C_17
REMARK   12  A    between atoms: C_17  and  O_18
REMARK   13  A    between atoms: C_19  and  O_21
REMARK   14  A    between atoms: C_22  and  O_24
REMARK                            x       y       z     vdW  Elec       q    Type
REMARK                         _______ _______ _______ _____ _____    ______ ____
ROOT
ATOM      1  C   UNL     1       8.024  -3.782  26.411  0.00  0.00    +0.159 C 
ATOM      2  C   UNL     1       7.403  -4.812  25.453  0.00  0.00    +0.174 C 
ATOM      3  C   UNL     1       8.197  -4.950  24.136  0.00  0.00    +0.165 C 
ATOM      4  C   UNL     1       8.580  -3.587  23.494  0.00  0.00    +0.113 C 
ATOM      5  N   UNL     1       9.269  -2.733  24.510  0.00  0.00    -0.292 NA
ATOM      6  C   UNL     1       8.409  -2.480  25.685  0.00  0.00    +0.118 C 
ENDROOT
BRANCH   1   7
ATOM      7  O   UNL     1       9.181  -4.305  27.071  0.00  0.00    -0.388 OA
ATOM      8  H   UNL     1       9.908  -3.678  26.910  0.00  0.00    +0.210 HD
ENDBRANCH   1   7
BRANCH   2   9
ATOM      9  O   UNL     1       6.025  -4.510  25.196  0.00  0.00    -0.387 OA
ATOM     10  H   UNL     1       5.846  -4.549  24.244  0.00  0.00    +0.210 HD
ENDBRANCH   2   9
BRANCH   3  11
ATOM     11  O   UNL     1       9.414  -5.685  24.382  0.00  0.00    -0.388 OA
ATOM     12  H   UNL     1       9.194  -6.395  25.012  0.00  0.00    +0.210 HD
ENDBRANCH   3  11
BRANCH   4  13
ATOM     13  C   UNL     1       7.416  -2.921  22.719  0.00  0.00    +0.177 C 
BRANCH  13  14
ATOM     14  O   UNL     1       6.485  -3.872  22.223  0.00  0.00    -0.393 OA
ATOM     15  H   UNL     1       6.282  -4.502  22.937  0.00  0.00    +0.209 HD
ENDBRANCH  13  14
ENDBRANCH   4  13
BRANCH   5  16
ATOM     16  C   UNL     1       9.767  -1.477  23.915  0.00  0.00    +0.085 C 
BRANCH  16  17
ATOM     17  C   UNL     1       9.900  -0.303  24.893  0.00  0.00    +0.015 C 
BRANCH  17  18
ATOM     18  C   UNL     1      10.904   0.752  24.431  0.00  0.00    +0.001 C 
BRANCH  18  19
ATOM     19  C   UNL     1      10.184   1.903  23.731  0.00  0.00    +0.000 C 
BRANCH  19  20
ATOM     20  C   UNL     1      10.229   1.737  22.214  0.00  0.00    +0.000 C 
BRANCH  20  21
ATOM     21  C   UNL     1       8.837   1.443  21.658  0.00  0.00    -0.000 C 
BRANCH  21  22
ATOM     22  C   UNL     1       7.861   2.562  22.010  0.00  0.00    -0.000 C 
BRANCH  22  23
ATOM     23  C   UNL     1       6.538   2.002  22.524  0.00  0.00    -0.003 C 
ATOM     24  C   UNL     1       6.748   0.695  23.268  0.00  0.00    +0.004 C 
ENDBRANCH  22  23
ENDBRANCH  21  22
ENDBRANCH  20  21
ENDBRANCH  19  20
ENDBRANCH  18  19
ENDBRANCH  17  18
ENDBRANCH  16  17
ENDBRANCH   5  16
TORSDOF 13
ENDMDL
MODEL 2
REMARK VINA RESULT:      -5.1      1.240      2.379
REMARK  Name = 
REMARK  14 active torsions:
REMARK  status: ('A' for Active; 'I' for Inactive)
REMARK    1  A    between atoms: C_2  and  O_3
REMARK    2  A    between atoms: N_5  and  C_6
REMARK    3  A    between atoms: C_6  and  C_7
REMARK    4  A    between atoms: C_7  and  C_8
REMARK    5  A    between atoms: C_8  and  C_9
REMARK    6  A    between atoms: C_9  and  C_10
REMARK    7  A    between atoms: C_10  and  C_11
REMARK    8  A    between atoms: C_11  and  C_12
REMARK    9  A    between atoms: C_12  and  C_13
REMARK   10  A    between atoms: C_13  and  C_14
REMARK   11  A    between atoms: C_15  and  C_17
REMARK   12  A    between atoms: C_17  and  O_18
REMARK   13  A    between atoms: C_19  and  O_21
REMARK   14  A    between atoms: C_22  and  O_24
REMARK                            x       y       z     vdW  Elec       q    Type
REMARK                         _______ _______ _______ _____ _____    ______ ____
ROOT
ATOM      1  C   UNL     1       7.340  -3.302  25.924  0.00  0.00    +0.159 C 
ATOM      2  C   UNL     1       7.341  -4.801  25.581  0.00  0.00    +0.174 C 
ATOM      3  C   UNL     1       8.191  -5.123  24.333  0.00  0.00    +0.165 C 
ATOM      4  C   UNL     1       7.930  -4.165  23.137  0.00  0.00    +0.113 C 
ATOM      5  N   UNL     1       8.068  -2.748  23.594  0.00  0.00    -0.292 NA
ATOM      6  C   UNL     1       7.115  -2.427  24.677  0.00  0.00    +0.118 C 
ENDROOT
BRANCH   1   7
ATOM      7  O   UNL     1       8.562  -2.905  26.555  0.00  0.00    -0.388 OA
ATOM      8  H   UNL     1       9.022  -2.311  25.936  0.00  0.00    +0.210 HD
ENDBRANCH   1   7
BRANCH   2   9
ATOM      9  O   UNL     1       6.003  -5.296  25.435  0.00  0.00    -0.387 OA
ATOM     10  H   UNL     1       5.415  -4.586  25.137  0.00  0.00    +0.210 HD
ENDBRANCH   2   9
BRANCH   3  11
ATOM     11  O   UNL     1       9.591  -5.044  24.671  0.00  0.00    -0.388 OA
ATOM     12  H   UNL     1       9.958  -4.283  24.185  0.00  0.00    +0.210 HD
ENDBRANCH   3  11
BRANCH   4  13
ATOM     13  C   UNL     1       6.643  -4.503  22.344  0.00  0.00    +0.177 C 
BRANCH  13  14
ATOM     14  O   UNL     1       6.292  -5.876  22.447  0.00  0.00    -0.393 OA
ATOM     15  H   UNL     1       6.995  -6.335  22.942  0.00  0.00    +0.209 HD
ENDBRANCH  13  14
ENDBRANCH   4  13
BRANCH   5  16
ATOM     16  C   UNL     1       7.956  -1.800  22.467  0.00  0.00    +0.085 C 
BRANCH  16  17
ATOM     17  C   UNL     1       9.280  -1.454  21.775  0.00  0.00    +0.015 C 
BRANCH  17  18
ATOM     18  C   UNL     1       9.321  -0.024  21.238  0.00  0.00    +0.001 C 
BRANCH  18  19
ATOM     19  C   UNL     1       8.258   0.834  21.921  0.00  0.00    +0.000 C 
BRANCH  19  20
ATOM     20  C   UNL     1       8.784   2.237  22.206  0.00  0.00    +0.000 C 
BRANCH  20  21
ATOM     21  C   UNL     1      10.284   2.208  22.493  0.00  0.00    -0.000 C 
BRANCH  21  22
ATOM     22  C   UNL     1      10.552   2.175  23.995  0.00  0.00    -0.000 C 
BRANCH  22  23
ATOM     23  C   UNL     1      11.048   0.801  24.438  0.00  0.00    -0.003 C 
ATOM     24  C   UNL     1       9.953   0.028  25.153  0.00  0.00    +0.004 C 
ENDBRANCH  22  23
ENDBRANCH  21  22
ENDBRANCH  20  21
ENDBRANCH  19  20
ENDBRANCH  18  19
ENDBRANCH  17  18
ENDBRANCH  16  17
ENDBRANCH   5  16
TORSDOF 13
ENDMDL
MODEL 3
REMARK VINA RESULT:      -5.1      1.200      2.941
REMARK  Name = 
REMARK  14 active torsions:
REMARK  status: ('A' for Active; 'I' for Inactive)
REMARK    1  A    between atoms: C_2  and  O_3
REMARK    2  A    between atoms: N_5  and  C_6
REMARK    3  A    between atoms: C_6  and  C_7
REMARK    4  A    between atoms: C_7  and  C_8
REMARK    5  A    between atoms: C_8  and  C_9
REMARK    6  A    between atoms: C_9  and  C_10
REMARK    7  A    between atoms: C_10  and  C_11
REMARK    8  A    between atoms: C_11  and  C_12
REMARK    9  A    between atoms: C_12  and  C_13
REMARK   10  A    between atoms: C_13  and  C_14
REMARK   11  A    between atoms: C_15  and  C_17
REMARK   12  A    between atoms: C_17  and  O_18
REMARK   13  A    between atoms: C_19  and  O_21
REMARK   14  A    between atoms: C_22  and  O_24
REMARK                            x       y       z     vdW  Elec       q    Type
REMARK                         _______ _______ _______ _____ _____    ______ ____
ROOT
ATOM      1  C   UNL     1       6.914  -3.649  22.179  0.00  0.00    +0.159 C 
ATOM      2  C   UNL     1       6.523  -5.041  22.700  0.00  0.00    +0.174 C 
ATOM      3  C   UNL     1       6.285  -5.057  24.226  0.00  0.00    +0.165 C 
ATOM      4  C   UNL     1       7.393  -4.328  25.037  0.00  0.00    +0.113 C 
ATOM      5  N   UNL     1       7.589  -2.951  24.485  0.00  0.00    -0.292 NA
ATOM      6  C   UNL     1       7.985  -2.984  23.062  0.00  0.00    +0.118 C 
ENDROOT
BRANCH   1   7
ATOM      7  O   UNL     1       5.779  -2.780  22.091  0.00  0.00    -0.388 OA
ATOM      8  H   UNL     1       6.071  -1.977  21.624  0.00  0.00    +0.210 HD
ENDBRANCH   1   7
BRANCH   2   9
ATOM      9  O   UNL     1       7.494  -6.025  22.319  0.00  0.00    -0.387 OA
ATOM     10  H   UNL     1       7.070  -6.735  21.815  0.00  0.00    +0.210 HD
ENDBRANCH   2   9
BRANCH   3  11
ATOM     11  O   UNL     1       5.024  -4.423  24.523  0.00  0.00    -0.388 OA
ATOM     12  H   UNL     1       5.224  -3.613  25.025  0.00  0.00    +0.210 HD
ENDBRANCH   3  11
BRANCH   4  13
ATOM     13  C   UNL     1       8.675  -5.174  25.230  0.00  0.00    +0.177 C 
BRANCH  13  14
ATOM     14  O   UNL     1       8.659  -5.906  26.448  0.00  0.00    -0.393 OA
ATOM     15  H   UNL     1       8.355  -5.313  27.157  0.00  0.00    +0.209 HD
ENDBRANCH  13  14
ENDBRANCH   4  13
BRANCH   5  16
ATOM     16  C   UNL     1       8.541  -2.171  25.301  0.00  0.00    +0.085 C 
BRANCH  16  17
ATOM     17  C   UNL     1       9.575  -1.368  24.503  0.00  0.00    +0.015 C 
BRANCH  17  18
ATOM     18  C   UNL     1       9.879  -0.003  25.116  0.00  0.00    +0.001 C 
BRANCH  18  19
ATOM     19  C   UNL     1      10.939   0.729  24.294  0.00  0.00    +0.000 C 
BRANCH  19  20
ATOM     20  C   UNL     1      10.323   1.878  23.502  0.00  0.00    +0.000 C 
BRANCH  20  21
ATOM     21  C   UNL     1       9.961   1.432  22.087  0.00  0.00    -0.000 C 
BRANCH  21  22
ATOM     22  C   UNL     1       8.575   1.936  21.693  0.00  0.00    -0.000 C 
BRANCH  22  23
ATOM     23  C   UNL     1       7.614   1.893  22.878  0.00  0.00    -0.003 C 
ATOM     24  C   UNL     1       6.859   0.575  22.924  0.00  0.00    +0.004 C 
ENDBRANCH  22  23
ENDBRANCH  21  22
ENDBRANCH  20  21
ENDBRANCH  19  20
ENDBRANCH  18  19
ENDBRANCH  17  18
ENDBRANCH  16  17
ENDBRANCH   5  16
TORSDOF 13
ENDMDL
MODEL 4
REMARK VINA RESULT:      -5.0      2.107      3.296
REMARK  Name = 
REMARK  14 active torsions:
REMARK  status: ('A' for Active; 'I' for Inactive)
REMARK    1  A    between atoms: C_2  and  O_3
REMARK    2  A    between atoms: N_5  and  C_6
REMARK    3  A    between atoms: C_6  and  C_7
REMARK    4  A    between atoms: C_7  and  C_8
REMARK    5  A    between atoms: C_8  and  C_9
REMARK    6  A    between atoms: C_9  and  C_10
REMARK    7  A    between atoms: C_10  and  C_11
REMARK    8  A    between atoms: C_11  and  C_12
REMARK    9  A    between atoms: C_12  and  C_13
REMARK   10  A    between atoms: C_13  and  C_14
REMARK   11  A    between atoms: C_15  and  C_17
REMARK   12  A    between atoms: C_17  and  O_18
REMARK   13  A    between atoms: C_19  and  O_21
REMARK   14  A    between atoms: C_22  and  O_24
REMARK                            x       y       z     vdW  Elec       q    Type
REMARK                         _______ _______ _______ _____ _____    ______ ____
ROOT
ATOM      1  C   UNL     1       4.601  -3.367  24.189  0.00  0.00    +0.159 C 
ATOM      2  C   UNL     1       4.371  -4.878  24.019  0.00  0.00    +0.174 C 
ATOM      3  C   UNL     1       5.642  -5.707  24.304  0.00  0.00    +0.165 C 
ATOM      4  C   UNL     1       6.919  -5.145  23.618  0.00  0.00    +0.113 C 
ATOM      5  N   UNL     1       7.071  -3.697  23.959  0.00  0.00    -0.292 NA
ATOM      6  C   UNL     1       5.905  -2.905  23.515  0.00  0.00    +0.118 C 
ENDROOT
BRANCH   1   7
ATOM      7  O   UNL     1       4.633  -2.991  25.570  0.00  0.00    -0.388 OA
ATOM      8  H   UNL     1       3.711  -2.841  25.845  0.00  0.00    +0.210 HD
ENDBRANCH   1   7
BRANCH   2   9
ATOM      9  O   UNL     1       3.842  -5.174  22.719  0.00  0.00    -0.387 OA
ATOM     10  H   UNL     1       3.572  -6.103  22.672  0.00  0.00    +0.210 HD
ENDBRANCH   2   9
BRANCH   3  11
ATOM     11  O   UNL     1       5.880  -5.749  25.726  0.00  0.00    -0.388 OA
ATOM     12  H   UNL     1       5.132  -5.294  26.153  0.00  0.00    +0.210 HD
ENDBRANCH   3  11
BRANCH   4  13
ATOM     13  C   UNL     1       7.023  -5.506  22.116  0.00  0.00    +0.177 C 
BRANCH  13  14
ATOM     14  O   UNL     1       6.319  -6.699  21.798  0.00  0.00    -0.393 OA
ATOM     15  H   UNL     1       6.057  -7.130  22.631  0.00  0.00    +0.209 HD
ENDBRANCH  13  14
ENDBRANCH   4  13
BRANCH   5  16
ATOM     16  C   UNL     1       8.339  -3.147  23.437  0.00  0.00    +0.085 C 
BRANCH  16  17
ATOM     17  C   UNL     1       8.188  -1.925  22.523  0.00  0.00    +0.015 C 
BRANCH  17  18
ATOM     18  C   UNL     1       9.521  -1.420  21.973  0.00  0.00    +0.001 C 
BRANCH  18  19
ATOM     19  C   UNL     1       9.302  -0.201  21.078  0.00  0.00    +0.000 C 
BRANCH  19  20
ATOM     20  C   UNL     1       8.891   1.017  21.900  0.00  0.00    +0.000 C 
BRANCH  20  21
ATOM     21  C   UNL     1      10.107   1.871  22.253  0.00  0.00    -0.000 C 
BRANCH  21  22
ATOM     22  C   UNL     1      10.228   2.050  23.764  0.00  0.00    -0.000 C 
BRANCH  22  23
ATOM     23  C   UNL     1      10.941   0.863  24.407  0.00  0.00    -0.003 C 
ATOM     24  C   UNL     1       9.998   0.076  25.301  0.00  0.00    +0.004 C 
ENDBRANCH  22  23
ENDBRANCH  21  22
ENDBRANCH  20  21
ENDBRANCH  19  20
ENDBRANCH  18  19
ENDBRANCH  17  18
ENDBRANCH  16  17
ENDBRANCH   5  16
TORSDOF 13
ENDMDL
MODEL 5
REMARK VINA RESULT:      -5.0      2.990      6.032
REMARK  Name = 
REMARK  14 active torsions:
REMARK  status: ('A' for Active; 'I' for Inactive)
REMARK    1  A    between atoms: C_2  and  O_3
REMARK    2  A    between atoms: N_5  and  C_6
REMARK    3  A    between atoms: C_6  and  C_7
REMARK    4  A    between atoms: C_7  and  C_8
REMARK    5  A    between atoms: C_8  and  C_9
REMARK    6  A    between atoms: C_9  and  C_10
REMARK    7  A    between atoms: C_10  and  C_11
REMARK    8  A    between atoms: C_11  and  C_12
REMARK    9  A    between atoms: C_12  and  C_13
REMARK   10  A    between atoms: C_13  and  C_14
REMARK   11  A    between atoms: C_15  and  C_17
REMARK   12  A    between atoms: C_17  and  O_18
REMARK   13  A    between atoms: C_19  and  O_21
REMARK   14  A    between atoms: C_22  and  O_24
REMARK                            x       y       z     vdW  Elec       q    Type
REMARK                         _______ _______ _______ _____ _____    ______ ____
ROOT
ATOM      1  C   UNL     1       8.893   2.728  23.597  0.00  0.00    +0.159 C 
ATOM      2  C   UNL     1       8.655   2.158  22.188  0.00  0.00    +0.174 C 
ATOM      3  C   UNL     1       7.956   0.782  22.216  0.00  0.00    +0.165 C 
ATOM      4  C   UNL     1       8.574  -0.210  23.241  0.00  0.00    +0.113 C 
ATOM      5  N   UNL     1       8.644   0.442  24.586  0.00  0.00    -0.292 NA
ATOM      6  C   UNL     1       9.468   1.669  24.555  0.00  0.00    +0.118 C 
ENDROOT
BRANCH   1   7
ATOM      7  O   UNL     1       7.690   3.261  24.160  0.00  0.00    -0.388 OA
ATOM      8  H   UNL     1       7.375   3.954  23.554  0.00  0.00    +0.210 HD
ENDBRANCH   1   7
BRANCH   2   9
ATOM      9  O   UNL     1       9.879   2.101  21.443  0.00  0.00    -0.387 OA
ATOM     10  H   UNL     1      10.422   2.880  21.632  0.00  0.00    +0.210 HD
ENDBRANCH   2   9
BRANCH   3  11
ATOM     11  O   UNL     1       6.563   0.956  22.547  0.00  0.00    -0.388 OA
ATOM     12  H   UNL     1       6.466   1.857  22.905  0.00  0.00    +0.210 HD
ENDBRANCH   3  11
BRANCH   4  13
ATOM     13  C   UNL     1       9.876  -0.884  22.741  0.00  0.00    +0.177 C 
BRANCH  13  14
ATOM     14  O   UNL     1       9.922  -0.981  21.324  0.00  0.00    -0.393 OA
ATOM     15  H   UNL     1      10.629  -0.394  21.001  0.00  0.00    +0.209 HD
ENDBRANCH  13  14
ENDBRANCH   4  13
BRANCH   5  16
ATOM     16  C   UNL     1       9.106  -0.502  25.623  0.00  0.00    +0.085 C 
BRANCH  16  17
ATOM     17  C   UNL     1       8.067  -1.539  26.066  0.00  0.00    +0.015 C 
BRANCH  17  18
ATOM     18  C   UNL     1       8.604  -2.969  26.058  0.00  0.00    +0.001 C 
BRANCH  18  19
ATOM     19  C   UNL     1       7.547  -3.940  26.580  0.00  0.00    +0.000 C 
BRANCH  19  20
ATOM     20  C   UNL     1       7.489  -5.201  25.723  0.00  0.00    +0.000 C 
BRANCH  20  21
ATOM     21  C   UNL     1       6.576  -4.997  24.515  0.00  0.00    -0.000 C 
BRANCH  21  22
ATOM     22  C   UNL     1       7.375  -5.036  23.215  0.00  0.00    -0.000 C 
BRANCH  22  23
ATOM     23  C   UNL     1       7.357  -3.680  22.514  0.00  0.00    -0.003 C 
ATOM     24  C   UNL     1       6.083  -2.916  22.831  0.00  0.00    +0.004 C 
ENDBRANCH  22  23
ENDBRANCH  21  22
ENDBRANCH  20  21
ENDBRANCH  19  20
ENDBRANCH  18  19
ENDBRANCH  17  18
ENDBRANCH  16  17
ENDBRANCH   5  16
TORSDOF 13
ENDMDL
MODEL 6
REMARK VINA RESULT:      -5.0      2.095      3.746
REMARK  Name = 
REMARK  14 active torsions:
REMARK  status: ('A' for Active; 'I' for Inactive)
REMARK    1  A    between atoms: C_2  and  O_3
REMARK    2  A    between atoms: N_5  and  C_6
REMARK    3  A    between atoms: C_6  and  C_7
REMARK    4  A    between atoms: C_7  and  C_8
REMARK    5  A    between atoms: C_8  and  C_9
REMARK    6  A    between atoms: C_9  and  C_10
REMARK    7  A    between atoms: C_10  and  C_11
REMARK    8  A    between atoms: C_11  and  C_12
REMARK    9  A    between atoms: C_12  and  C_13
REMARK   10  A    between atoms: C_13  and  C_14
REMARK   11  A    between atoms: C_15  and  C_17
REMARK   12  A    between atoms: C_17  and  O_18
REMARK   13  A    between atoms: C_19  and  O_21
REMARK   14  A    between atoms: C_22  and  O_24
REMARK                            x       y       z     vdW  Elec       q    Type
REMARK                         _______ _______ _______ _____ _____    ______ ____
ROOT
ATOM      1  C   UNL     1       5.949  -5.208  22.198  0.00  0.00    +0.159 C 
ATOM      2  C   UNL     1       4.871  -5.518  23.250  0.00  0.00    +0.174 C 
ATOM      3  C   UNL     1       4.955  -4.585  24.477  0.00  0.00    +0.165 C 
ATOM      4  C   UNL     1       6.398  -4.412  25.030  0.00  0.00    +0.113 C 
ATOM      5  N   UNL     1       7.313  -4.007  23.918  0.00  0.00    -0.292 NA
ATOM      6  C   UNL     1       7.336  -5.013  22.836  0.00  0.00    +0.118 C 
ENDROOT
BRANCH   1   7
ATOM      7  O   UNL     1       5.621  -4.043  21.434  0.00  0.00    -0.388 OA
ATOM      8  H   UNL     1       5.364  -4.348  20.546  0.00  0.00    +0.210 HD
ENDBRANCH   1   7
BRANCH   2   9
ATOM      9  O   UNL     1       4.919  -6.896  23.644  0.00  0.00    -0.387 OA
ATOM     10  H   UNL     1       4.170  -7.379  23.265  0.00  0.00    +0.210 HD
ENDBRANCH   2   9
BRANCH   3  11
ATOM     11  O   UNL     1       4.453  -3.280  24.124  0.00  0.00    -0.388 OA
ATOM     12  H   UNL     1       3.504  -3.270  24.347  0.00  0.00    +0.210 HD
ENDBRANCH   3  11
BRANCH   4  13
ATOM     13  C   UNL     1       6.870  -5.600  25.904  0.00  0.00    +0.177 C 
BRANCH  13  14
ATOM     14  O   UNL     1       5.784  -6.363  26.410  0.00  0.00    -0.393 OA
ATOM     15  H   UNL     1       4.966  -6.049  25.985  0.00  0.00    +0.209 HD
ENDBRANCH  13  14
ENDBRANCH   4  13
BRANCH   5  16
ATOM     16  C   UNL     1       8.670  -3.706  24.416  0.00  0.00    +0.085 C 
BRANCH  16  17
ATOM     17  C   UNL     1       9.112  -2.246  24.251  0.00  0.00    +0.015 C 
BRANCH  17  18
ATOM     18  C   UNL     1       8.244  -1.463  23.269  0.00  0.00    +0.001 C 
BRANCH  18  19
ATOM     19  C   UNL     1       8.827  -1.542  21.859  0.00  0.00    +0.000 C 
BRANCH  19  20
ATOM     20  C   UNL     1       9.790  -0.387  21.598  0.00  0.00    +0.000 C 
BRANCH  20  21
ATOM     21  C   UNL     1       9.101   0.957  21.820  0.00  0.00    -0.000 C 
BRANCH  21  22
ATOM     22  C   UNL     1      10.110   2.025  22.236  0.00  0.00    -0.000 C 
BRANCH  22  23
ATOM     23  C   UNL     1      10.453   1.915  23.719  0.00  0.00    -0.003 C 
ATOM     24  C   UNL     1       9.198   1.935  24.575  0.00  0.00    +0.004 C 
ENDBRANCH  22  23
ENDBRANCH  21  22
ENDBRANCH  20  21
ENDBRANCH  19  20
ENDBRANCH  18  19
ENDBRANCH  17  18
ENDBRANCH  16  17
ENDBRANCH   5  16
TORSDOF 13
ENDMDL
MODEL 7
REMARK VINA RESULT:      -4.9      3.230      5.993
REMARK  Name = 
REMARK  14 active torsions:
REMARK  status: ('A' for Active; 'I' for Inactive)
REMARK    1  A    between atoms: C_2  and  O_3
REMARK    2  A    between atoms: N_5  and  C_6
REMARK    3  A    between atoms: C_6  and  C_7
REMARK    4  A    between atoms: C_7  and  C_8
REMARK    5  A    between atoms: C_8  and  C_9
REMARK    6  A    between atoms: C_9  and  C_10
REMARK    7  A    between atoms: C_10  and  C_11
REMARK    8  A    between atoms: C_11  and  C_12
REMARK    9  A    between atoms: C_12  and  C_13
REMARK   10  A    between atoms: C_13  and  C_14
REMARK   11  A    between atoms: C_15  and  C_17
REMARK   12  A    between atoms: C_17  and  O_18
REMARK   13  A    between atoms: C_19  and  O_21
REMARK   14  A    between atoms: C_22  and  O_24
REMARK                            x       y       z     vdW  Elec       q    Type
REMARK                         _______ _______ _______ _____ _____    ______ ____
ROOT
ATOM      1  C   UNL     1       9.396  -0.504  21.652  0.00  0.00    +0.159 C 
ATOM      2  C   UNL     1       9.962   0.885  21.992  0.00  0.00    +0.174 C 
ATOM      3  C   UNL     1      10.048   1.134  23.513  0.00  0.00    +0.165 C 
ATOM      4  C   UNL     1       8.759   0.731  24.284  0.00  0.00    +0.113 C 
ATOM      5  N   UNL     1       8.390  -0.676  23.937  0.00  0.00    -0.292 NA
ATOM      6  C   UNL     1       8.147  -0.836  22.488  0.00  0.00    +0.118 C 
ENDROOT
BRANCH   1   7
ATOM      7  O   UNL     1      10.372  -1.533  21.846  0.00  0.00    -0.388 OA
ATOM      8  H   UNL     1      10.229  -1.896  22.737  0.00  0.00    +0.210 HD
ENDBRANCH   1   7
BRANCH   2   9
ATOM      9  O   UNL     1       9.211   1.919  21.342  0.00  0.00    -0.387 OA
ATOM     10  H   UNL     1       8.625   2.357  21.977  0.00  0.00    +0.210 HD
ENDBRANCH   2   9
BRANCH   3  11
ATOM     11  O   UNL     1      11.150   0.382  24.062  0.00  0.00    -0.388 OA
ATOM     12  H   UNL     1      11.320  -0.359  23.453  0.00  0.00    +0.210 HD
ENDBRANCH   3  11
BRANCH   4  13
ATOM     13  C   UNL     1       7.624   1.780  24.180  0.00  0.00    +0.177 C 
BRANCH  13  14
ATOM     14  O   UNL     1       8.118   3.084  23.910  0.00  0.00    -0.393 OA
ATOM     15  H   UNL     1       8.844   3.008  23.265  0.00  0.00    +0.209 HD
ENDBRANCH  13  14
ENDBRANCH   4  13
BRANCH   5  16
ATOM     16  C   UNL     1       7.246  -1.151  24.741  0.00  0.00    +0.085 C 
BRANCH  16  17
ATOM     17  C   UNL     1       7.605  -1.673  26.137  0.00  0.00    +0.015 C 
BRANCH  17  18
ATOM     18  C   UNL     1       8.437  -2.954  26.103  0.00  0.00    +0.001 C 
BRANCH  18  19
ATOM     19  C   UNL     1       7.616  -4.110  25.536  0.00  0.00    +0.000 C 
BRANCH  19  20
ATOM     20  C   UNL     1       8.334  -4.770  24.362  0.00  0.00    +0.000 C 
BRANCH  20  21
ATOM     21  C   UNL     1       7.601  -4.495  23.051  0.00  0.00    -0.000 C 
BRANCH  21  22
ATOM     22  C   UNL     1       6.090  -4.470  23.265  0.00  0.00    -0.000 C 
BRANCH  22  23
ATOM     23  C   UNL     1       5.392  -5.523  22.408  0.00  0.00    -0.003 C 
ATOM     24  C   UNL     1       6.164  -5.786  21.126  0.00  0.00    +0.004 C 
ENDBRANCH  22  23
ENDBRANCH  21  22
ENDBRANCH  20  21
ENDBRANCH  19  20
ENDBRANCH  18  19
ENDBRANCH  17  18
ENDBRANCH  16  17
ENDBRANCH   5  16
TORSDOF 13
ENDMDL
MODEL 8
REMARK VINA RESULT:      -4.9      3.222      6.069
REMARK  Name = 
REMARK  14 active torsions:
REMARK  status: ('A' for Active; 'I' for Inactive)
REMARK    1  A    between atoms: C_2  and  O_3
REMARK    2  A    between atoms: N_5  and  C_6
REMARK    3  A    between atoms: C_6  and  C_7
REMARK    4  A    between atoms: C_7  and  C_8
REMARK    5  A    between atoms: C_8  and  C_9
REMARK    6  A    between atoms: C_9  and  C_10
REMARK    7  A    between atoms: C_10  and  C_11
REMARK    8  A    between atoms: C_11  and  C_12
REMARK    9  A    between atoms: C_12  and  C_13
REMARK   10  A    between atoms: C_13  and  C_14
REMARK   11  A    between atoms: C_15  and  C_17
REMARK   12  A    between atoms: C_17  and  O_18
REMARK   13  A    between atoms: C_19  and  O_21
REMARK   14  A    between atoms: C_22  and  O_24
REMARK                            x       y       z     vdW  Elec       q    Type
REMARK                         _______ _______ _______ _____ _____    ______ ____
ROOT
ATOM      1  C   UNL     1       9.216   1.607  24.637  0.00  0.00    +0.159 C 
ATOM      2  C   UNL     1      10.398   1.454  23.665  0.00  0.00    +0.174 C 
ATOM      3  C   UNL     1       9.945   1.105  22.231  0.00  0.00    +0.165 C 
ATOM      4  C   UNL     1       8.882  -0.028  22.172  0.00  0.00    +0.113 C 
ATOM      5  N   UNL     1       7.745   0.308  23.084  0.00  0.00    -0.292 NA
ATOM      6  C   UNL     1       8.194   0.466  24.483  0.00  0.00    +0.118 C 
ENDROOT
BRANCH   1   7
ATOM      7  O   UNL     1       8.545   2.859  24.458  0.00  0.00    -0.388 OA
ATOM      8  H   UNL     1       8.273   3.165  25.342  0.00  0.00    +0.210 HD
ENDBRANCH   1   7
BRANCH   2   9
ATOM      9  O   UNL     1      11.345   0.496  24.156  0.00  0.00    -0.387 OA
ATOM     10  H   UNL     1      11.593   0.708  25.068  0.00  0.00    +0.210 HD
ENDBRANCH   2   9
BRANCH   3  11
ATOM     11  O   UNL     1       9.384   2.277  21.605  0.00  0.00    -0.388 OA
ATOM     12  H   UNL     1       8.447   2.318  21.867  0.00  0.00    +0.210 HD
ENDBRANCH   3  11
BRANCH   4  13
ATOM     13  C   UNL     1       9.483  -1.447  22.326  0.00  0.00    +0.177 C 
BRANCH  13  14
ATOM     14  O   UNL     1      10.823  -1.518  21.860  0.00  0.00    -0.393 OA
ATOM     15  H   UNL     1      11.245  -2.299  22.261  0.00  0.00    +0.209 HD
ENDBRANCH  13  14
ENDBRANCH   4  13
BRANCH   5  16
ATOM     16  C   UNL     1       6.648  -0.674  22.967  0.00  0.00    +0.085 C 
BRANCH  16  17
ATOM     17  C   UNL     1       6.273  -1.385  24.273  0.00  0.00    +0.015 C 
BRANCH  17  18
ATOM     18  C   UNL     1       5.668  -2.770  24.050  0.00  0.00    +0.001 C 
BRANCH  18  19
ATOM     19  C   UNL     1       5.973  -3.266  22.638  0.00  0.00    +0.000 C 
BRANCH  19  20
ATOM     20  C   UNL     1       7.124  -4.267  22.644  0.00  0.00    +0.000 C 
BRANCH  20  21
ATOM     21  C   UNL     1       7.108  -5.108  23.919  0.00  0.00    -0.000 C 
BRANCH  21  22
ATOM     22  C   UNL     1       8.516  -5.266  24.486  0.00  0.00    -0.000 C 
BRANCH  22  23
ATOM     23  C   UNL     1       9.068  -3.931  24.977  0.00  0.00    -0.003 C 
ATOM     24  C   UNL     1       8.520  -3.582  26.350  0.00  0.00    +0.004 C 
ENDBRANCH  22  23
ENDBRANCH  21  22
ENDBRANCH  20  21
ENDBRANCH  19  20
ENDBRANCH  18  19
ENDBRANCH  17  18
ENDBRANCH  16  17
ENDBRANCH   5  16
TORSDOF 13
ENDMDL
MODEL 9
REMARK VINA RESULT:      -4.9      3.313      6.522
REMARK  Name = 
REMARK  14 active torsions:
REMARK  status: ('A' for Active; 'I' for Inactive)
REMARK    1  A    between atoms: C_2  and  O_3
REMARK    2  A    between atoms: N_5  and  C_6
REMARK    3  A    between atoms: C_6  and  C_7
REMARK    4  A    between atoms: C_7  and  C_8
REMARK    5  A    between atoms: C_8  and  C_9
REMARK    6  A    between atoms: C_9  and  C_10
REMARK    7  A    between atoms: C_10  and  C_11
REMARK    8  A    between atoms: C_11  and  C_12
REMARK    9  A    between atoms: C_12  and  C_13
REMARK   10  A    between atoms: C_13  and  C_14
REMARK   11  A    between atoms: C_15  and  C_17
REMARK   12  A    between atoms: C_17  and  O_18
REMARK   13  A    between atoms: C_19  and  O_21
REMARK   14  A    between atoms: C_22  and  O_24
REMARK                            x       y       z     vdW  Elec       q    Type
REMARK                         _______ _______ _______ _____ _____    ______ ____
ROOT
ATOM      1  C   UNL     1       7.035   1.311  23.489  0.00  0.00    +0.159 C 
ATOM      2  C   UNL     1       8.278   2.186  23.723  0.00  0.00    +0.174 C 
ATOM      3  C   UNL     1       9.452   1.809  22.794  0.00  0.00    +0.165 C 
ATOM      4  C   UNL     1       9.719   0.280  22.716  0.00  0.00    +0.113 C 
ATOM      5  N   UNL     1       8.447  -0.431  22.376  0.00  0.00    -0.292 NA
ATOM      6  C   UNL     1       7.396  -0.182  23.384  0.00  0.00    +0.118 C 
ENDROOT
BRANCH   1   7
ATOM      7  O   UNL     1       6.330   1.702  22.306  0.00  0.00    -0.388 OA
ATOM      8  H   UNL     1       5.402   1.844  22.563  0.00  0.00    +0.210 HD
ENDBRANCH   1   7
BRANCH   2   9
ATOM      9  O   UNL     1       8.677   2.153  25.099  0.00  0.00    -0.387 OA
ATOM     10  H   UNL     1       9.205   2.938  25.313  0.00  0.00    +0.210 HD
ENDBRANCH   2   9
BRANCH   3  11
ATOM     11  O   UNL     1       9.181   2.284  21.459  0.00  0.00    -0.388 OA
ATOM     12  H   UNL     1       9.091   3.252  21.514  0.00  0.00    +0.210 HD
ENDBRANCH   3  11
BRANCH   4  13
ATOM     13  C   UNL     1      10.505  -0.273  23.931  0.00  0.00    +0.177 C 
BRANCH  13  14
ATOM     14  O   UNL     1      11.250   0.738  24.595  0.00  0.00    -0.393 OA
ATOM     15  H   UNL     1      12.037   0.940  24.059  0.00  0.00    +0.209 HD
ENDBRANCH  13  14
ENDBRANCH   4  13
BRANCH   5  16
ATOM     16  C   UNL     1       8.673  -1.875  22.164  0.00  0.00    +0.085 C 
BRANCH  16  17
ATOM     17  C   UNL     1       7.694  -2.799  22.898  0.00  0.00    +0.015 C 
BRANCH  17  18
ATOM     18  C   UNL     1       8.379  -3.718  23.908  0.00  0.00    +0.001 C 
BRANCH  18  19
ATOM     19  C   UNL     1       7.555  -3.812  25.191  0.00  0.00    +0.000 C 
BRANCH  19  20
ATOM     20  C   UNL     1       6.898  -5.183  25.322  0.00  0.00    +0.000 C 
BRANCH  20  21
ATOM     21  C   UNL     1       5.458  -5.147  24.815  0.00  0.00    -0.000 C 
BRANCH  21  22
ATOM     22  C   UNL     1       5.231  -6.208  23.742  0.00  0.00    -0.000 C 
BRANCH  22  23
ATOM     23  C   UNL     1       5.335  -5.610  22.341  0.00  0.00    -0.003 C 
ATOM     24  C   UNL     1       6.584  -6.097  21.629  0.00  0.00    +0.004 C 
ENDBRANCH  22  23
ENDBRANCH  21  22
ENDBRANCH  20  21
ENDBRANCH  19  20
ENDBRANCH  18  19
ENDBRANCH  17  18
ENDBRANCH  16  17
ENDBRANCH   5  16
TORSDOF 13
ENDMDL
