MODEL 1
REMARK VINA RESULT:      -3.7      0.000      0.000
REMARK  Name = 
REMARK  6 active torsions:
REMARK  status: ('A' for Active; 'I' for Inactive)
REMARK    1  A    between atoms: CG2_1  and  CB_2
REMARK    2  A    between atoms: CB_2  and  OG1_4
REMARK    3  A    between atoms: CB_2  and  CA_5
REMARK    4  A    between atoms: CA_5  and  N_7
REMARK    5  A    between atoms: CA_5  and  C_8
REMARK    6  A    between atoms: C_8  and  O_9
REMARK                            x       y       z     vdW  Elec       q    Type
REMARK                         _______ _______ _______ _____ _____    ______ ____
ROOT
ATOM      1  CA  THR A   1       8.782  -4.032  26.499  0.00  0.00    +0.189 C 
ENDROOT
BRANCH   1   2
ATOM      2  N   THR A   1       8.457  -2.594  26.353  0.00  0.00    -0.316 NA
ATOM      3  H1  THR A   1       7.465  -2.483  26.158  0.00  0.00    +0.119 HD
ATOM      4  H2  THR A   1       8.635  -2.138  27.254  0.00  0.00    +0.119 HD
ENDBRANCH   1   2
BRANCH   1   6
ATOM      5  CG2 THR A   1       6.702  -5.258  25.600  0.00  0.00    +0.040 C 
ATOM      6  CB  THR A   1       7.523  -4.863  26.822  0.00  0.00    +0.139 C 
BRANCH   6   7
ATOM      7  OG1 THR A   1       7.915  -6.052  27.531  0.00  0.00    -0.390 OA
ATOM      8  HG1 THR A   1       8.878  -6.155  27.391  0.00  0.00    +0.210 HD
ENDBRANCH   6   7
ENDBRANCH   1   6
BRANCH   1   9
ATOM      9  C   THR A   1       9.527  -4.551  25.247  0.00  0.00    +0.324 C 
ATOM     10  OXT THR A   1       9.690  -3.902  24.222  0.00  0.00    -0.249 OA
BRANCH   9  11
ATOM     11  O   THR A   1      10.107  -5.764  25.421  0.00  0.00    -0.479 OA
ATOM     12  H   THR A   1      11.094  -5.700  25.383  0.00  0.00    +0.295 HD
ENDBRANCH   9  11
ENDBRANCH   1   9
TORSDOF 5
ENDMDL
MODEL 2
REMARK VINA RESULT:      -3.7      1.905      3.285
REMARK  Name = 
REMARK  6 active torsions:
REMARK  status: ('A' for Active; 'I' for Inactive)
REMARK    1  A    between atoms: CG2_1  and  CB_2
REMARK    2  A    between atoms: CB_2  and  OG1_4
REMARK    3  A    between atoms: CB_2  and  CA_5
REMARK    4  A    between atoms: CA_5  and  N_7
REMARK    5  A    between atoms: CA_5  and  C_8
REMARK    6  A    between atoms: C_8  and  O_9
REMARK                            x       y       z     vdW  Elec       q    Type
REMARK                         _______ _______ _______ _____ _____    ______ ____
ROOT
ATOM      1  CA  THR A   1       8.980  -4.650  25.694  0.00  0.00    +0.189 C 
ENDROOT
BRANCH   1   2
ATOM      2  N   THR A   1      10.001  -5.640  25.280  0.00  0.00    -0.316 NA
ATOM      3  H1  THR A   1      10.843  -5.522  25.838  0.00  0.00    +0.119 HD
ATOM      4  H2  THR A   1       9.635  -6.576  25.489  0.00  0.00    +0.119 HD
ENDBRANCH   1   2
BRANCH   1   6
ATOM      5  CG2 THR A   1       9.752  -2.827  24.045  0.00  0.00    +0.040 C 
ATOM      6  CB  THR A   1       8.607  -3.709  24.530  0.00  0.00    +0.139 C 
BRANCH   6   7
ATOM      7  OG1 THR A   1       8.119  -4.496  23.429  0.00  0.00    -0.390 OA
ATOM      8  HG1 THR A   1       8.449  -5.407  23.570  0.00  0.00    +0.210 HD
ENDBRANCH   6   7
ENDBRANCH   1   6
BRANCH   1   9
ATOM      9  C   THR A   1       7.747  -5.361  26.297  0.00  0.00    +0.324 C 
ATOM     10  OXT THR A   1       6.691  -5.535  25.705  0.00  0.00    -0.249 OA
BRANCH   9  11
ATOM     11  O   THR A   1       7.973  -5.902  27.521  0.00  0.00    -0.479 OA
ATOM     12  H   THR A   1       8.654  -5.388  28.021  0.00  0.00    +0.295 HD
ENDBRANCH   9  11
ENDBRANCH   1   9
TORSDOF 5
ENDMDL
MODEL 3
REMARK VINA RESULT:      -3.6      4.921      6.270
REMARK  Name = 
REMARK  6 active torsions:
REMARK  status: ('A' for Active; 'I' for Inactive)
REMARK    1  A    between atoms: CG2_1  and  CB_2
REMARK    2  A    between atoms: CB_2  and  OG1_4
REMARK    3  A    between atoms: CB_2  and  CA_5
REMARK    4  A    between atoms: CA_5  and  N_7
REMARK    5  A    between atoms: CA_5  and  C_8
REMARK    6  A    between atoms: C_8  and  O_9
REMARK                            x       y       z     vdW  Elec       q    Type
REMARK                         _______ _______ _______ _____ _____    ______ ____
ROOT
ATOM      1  CA  THR A   1      10.365   0.142  23.081  0.00  0.00    +0.189 C 
ENDROOT
BRANCH   1   2
ATOM      2  N   THR A   1       9.842   0.302  24.458  0.00  0.00    -0.316 NA
ATOM      3  H1  THR A   1      10.393  -0.258  25.103  0.00  0.00    +0.119 HD
ATOM      4  H2  THR A   1       9.971   1.283  24.730  0.00  0.00    +0.119 HD
ENDBRANCH   1   2
BRANCH   1   6
ATOM      5  CG2 THR A   1       9.654  -2.283  23.584  0.00  0.00    +0.040 C 
ATOM      6  CB  THR A   1      10.450  -1.346  22.683  0.00  0.00    +0.139 C 
BRANCH   6   7
ATOM      7  OG1 THR A   1       9.993  -1.496  21.327  0.00  0.00    -0.390 OA
ATOM      8  HG1 THR A   1       9.997  -0.600  20.931  0.00  0.00    +0.210 HD
ENDBRANCH   6   7
ENDBRANCH   1   6
BRANCH   1   9
ATOM      9  C   THR A   1       9.528   0.973  22.081  0.00  0.00    +0.324 C 
ATOM     10  OXT THR A   1       8.346   0.772  21.834  0.00  0.00    -0.249 OA
BRANCH   9  11
ATOM     11  O   THR A   1      10.186   2.049  21.580  0.00  0.00    -0.479 OA
ATOM     12  H   THR A   1      10.321   1.964  20.604  0.00  0.00    +0.295 HD
ENDBRANCH   9  11
ENDBRANCH   1   9
TORSDOF 5
ENDMDL
MODEL 4
REMARK VINA RESULT:      -3.6      5.444      6.701
REMARK  Name = 
REMARK  6 active torsions:
REMARK  status: ('A' for Active; 'I' for Inactive)
REMARK    1  A    between atoms: CG2_1  and  CB_2
REMARK    2  A    between atoms: CB_2  and  OG1_4
REMARK    3  A    between atoms: CB_2  and  CA_5
REMARK    4  A    between atoms: CA_5  and  N_7
REMARK    5  A    between atoms: CA_5  and  C_8
REMARK    6  A    between atoms: C_8  and  O_9
REMARK                            x       y       z     vdW  Elec       q    Type
REMARK                         _______ _______ _______ _____ _____    ______ ____
ROOT
ATOM      1  CA  THR A   1      10.206  -0.223  22.082  0.00  0.00    +0.189 C 
ENDROOT
BRANCH   1   2
ATOM      2  N   THR A   1       9.830  -1.569  21.591  0.00  0.00    -0.316 NA
ATOM      3  H1  THR A   1       9.047  -1.495  20.945  0.00  0.00    +0.119 HD
ATOM      4  H2  THR A   1      10.622  -1.942  21.055  0.00  0.00    +0.119 HD
ENDBRANCH   1   2
BRANCH   1   6
ATOM      5  CG2 THR A   1       7.944   0.985  22.332  0.00  0.00    +0.040 C 
ATOM      6  CB  THR A   1       9.245   0.858  21.548  0.00  0.00    +0.139 C 
BRANCH   6   7
ATOM      7  OG1 THR A   1       9.921   2.128  21.549  0.00  0.00    -0.390 OA
ATOM      8  HG1 THR A   1       9.670   2.579  20.717  0.00  0.00    +0.210 HD
ENDBRANCH   6   7
ENDBRANCH   1   6
BRANCH   1   9
ATOM      9  C   THR A   1      10.303  -0.217  23.625  0.00  0.00    +0.324 C 
ATOM     10  OXT THR A   1       9.947  -1.141  24.345  0.00  0.00    -0.249 OA
BRANCH   9  11
ATOM     11  O   THR A   1      10.944   0.869  24.127  0.00  0.00    -0.479 OA
ATOM     12  H   THR A   1      11.321   1.430  23.405  0.00  0.00    +0.295 HD
ENDBRANCH   9  11
ENDBRANCH   1   9
TORSDOF 5
ENDMDL
MODEL 5
REMARK VINA RESULT:      -3.6      5.375      6.630
REMARK  Name = 
REMARK  6 active torsions:
REMARK  status: ('A' for Active; 'I' for Inactive)
REMARK    1  A    between atoms: CG2_1  and  CB_2
REMARK    2  A    between atoms: CB_2  and  OG1_4
REMARK    3  A    between atoms: CB_2  and  CA_5
REMARK    4  A    between atoms: CA_5  and  N_7
REMARK    5  A    between atoms: CA_5  and  C_8
REMARK    6  A    between atoms: C_8  and  O_9
REMARK                            x       y       z     vdW  Elec       q    Type
REMARK                         _______ _______ _______ _____ _____    ______ ____
ROOT
ATOM      1  CA  THR A   1       9.701   0.280  23.000  0.00  0.00    +0.189 C 
ENDROOT
BRANCH   1   2
ATOM      2  N   THR A   1      10.737   0.905  23.855  0.00  0.00    -0.316 NA
ATOM      3  H1  THR A   1      10.534   0.721  24.835  0.00  0.00    +0.119 HD
ATOM      4  H2  THR A   1      11.633   0.451  23.647  0.00  0.00    +0.119 HD
ENDBRANCH   1   2
BRANCH   1   6
ATOM      5  CG2 THR A   1       8.038   1.641  21.579  0.00  0.00    +0.040 C 
ATOM      6  CB  THR A   1       9.458   1.104  21.719  0.00  0.00    +0.139 C 
BRANCH   6   7
ATOM      7  OG1 THR A   1      10.383   2.205  21.688  0.00  0.00    -0.390 OA
ATOM      8  HG1 THR A   1      11.034   2.003  20.984  0.00  0.00    +0.210 HD
ENDBRANCH   6   7
ENDBRANCH   1   6
BRANCH   1   9
ATOM      9  C   THR A   1      10.065  -1.192  22.696  0.00  0.00    +0.324 C 
ATOM     10  OXT THR A   1      10.161  -2.070  23.543  0.00  0.00    -0.249 OA
BRANCH   9  11
ATOM     11  O   THR A   1      10.149  -1.470  21.371  0.00  0.00    -0.479 OA
ATOM     12  H   THR A   1       9.660  -0.802  20.830  0.00  0.00    +0.295 HD
ENDBRANCH   9  11
ENDBRANCH   1   9
TORSDOF 5
ENDMDL
MODEL 6
REMARK VINA RESULT:      -3.5      6.076      6.554
REMARK  Name = 
REMARK  6 active torsions:
REMARK  status: ('A' for Active; 'I' for Inactive)
REMARK    1  A    between atoms: CG2_1  and  CB_2
REMARK    2  A    between atoms: CB_2  and  OG1_4
REMARK    3  A    between atoms: CB_2  and  CA_5
REMARK    4  A    between atoms: CA_5  and  N_7
REMARK    5  A    between atoms: CA_5  and  C_8
REMARK    6  A    between atoms: C_8  and  O_9
REMARK                            x       y       z     vdW  Elec       q    Type
REMARK                         _______ _______ _______ _____ _____    ______ ____
ROOT
ATOM      1  CA  THR A   1      10.089   0.896  22.134  0.00  0.00    +0.189 C 
ENDROOT
BRANCH   1   2
ATOM      2  N   THR A   1       9.261   1.949  21.502  0.00  0.00    -0.316 NA
ATOM      3  H1  THR A   1       9.638   2.866  21.726  0.00  0.00    +0.119 HD
ATOM      4  H2  THR A   1       9.334   1.838  20.485  0.00  0.00    +0.119 HD
ENDBRANCH   1   2
BRANCH   1   6
ATOM      5  CG2 THR A   1       9.490   2.263  24.234  0.00  0.00    +0.040 C 
ATOM      6  CB  THR A   1      10.438   1.256  23.593  0.00  0.00    +0.139 C 
BRANCH   6   7
ATOM      7  OG1 THR A   1      10.451   0.053  24.382  0.00  0.00    -0.390 OA
ATOM      8  HG1 THR A   1       9.723  -0.508  24.046  0.00  0.00    +0.210 HD
ENDBRANCH   6   7
ENDBRANCH   1   6
BRANCH   1   9
ATOM      9  C   THR A   1       9.399  -0.483  22.014  0.00  0.00    +0.324 C 
ATOM     10  OXT THR A   1       8.219  -0.689  22.263  0.00  0.00    -0.249 OA
BRANCH   9  11
ATOM     11  O   THR A   1      10.192  -1.446  21.480  0.00  0.00    -0.479 OA
ATOM     12  H   THR A   1      10.719  -1.906  22.179  0.00  0.00    +0.295 HD
ENDBRANCH   9  11
ENDBRANCH   1   9
TORSDOF 5
ENDMDL
MODEL 7
REMARK VINA RESULT:      -3.5      7.062      7.980
REMARK  Name = 
REMARK  6 active torsions:
REMARK  status: ('A' for Active; 'I' for Inactive)
REMARK    1  A    between atoms: CG2_1  and  CB_2
REMARK    2  A    between atoms: CB_2  and  OG1_4
REMARK    3  A    between atoms: CB_2  and  CA_5
REMARK    4  A    between atoms: CA_5  and  N_7
REMARK    5  A    between atoms: CA_5  and  C_8
REMARK    6  A    between atoms: C_8  and  O_9
REMARK                            x       y       z     vdW  Elec       q    Type
REMARK                         _______ _______ _______ _____ _____    ______ ____
ROOT
ATOM      1  CA  THR A   1      10.491   1.857  23.687  0.00  0.00    +0.189 C 
ENDROOT
BRANCH   1   2
ATOM      2  N   THR A   1       9.751   1.391  24.884  0.00  0.00    -0.316 NA
ATOM      3  H1  THR A   1       9.314   0.493  24.691  0.00  0.00    +0.119 HD
ATOM      4  H2  THR A   1      10.434   1.234  25.634  0.00  0.00    +0.119 HD
ENDBRANCH   1   2
BRANCH   1   6
ATOM      5  CG2 THR A   1       8.829   0.197  22.627  0.00  0.00    +0.040 C 
ATOM      6  CB  THR A   1      10.031   1.112  22.418  0.00  0.00    +0.139 C 
BRANCH   6   7
ATOM      7  OG1 THR A   1       9.717   2.075  21.396  0.00  0.00    -0.390 OA
ATOM      8  HG1 THR A   1      10.459   2.055  20.757  0.00  0.00    +0.210 HD
ENDBRANCH   6   7
ENDBRANCH   1   6
BRANCH   1   9
ATOM      9  C   THR A   1      10.378   3.393  23.544  0.00  0.00    +0.324 C 
ATOM     10  OXT THR A   1       9.439   4.059  23.959  0.00  0.00    -0.249 OA
BRANCH   9  11
ATOM     11  O   THR A   1      11.486   3.975  23.021  0.00  0.00    -0.479 OA
ATOM     12  H   THR A   1      11.586   3.760  22.060  0.00  0.00    +0.295 HD
ENDBRANCH   9  11
ENDBRANCH   1   9
TORSDOF 5
ENDMDL
MODEL 8
REMARK VINA RESULT:      -3.5      1.893      2.103
REMARK  Name = 
REMARK  6 active torsions:
REMARK  status: ('A' for Active; 'I' for Inactive)
REMARK    1  A    between atoms: CG2_1  and  CB_2
REMARK    2  A    between atoms: CB_2  and  OG1_4
REMARK    3  A    between atoms: CB_2  and  CA_5
REMARK    4  A    between atoms: CA_5  and  N_7
REMARK    5  A    between atoms: CA_5  and  C_8
REMARK    6  A    between atoms: C_8  and  O_9
REMARK                            x       y       z     vdW  Elec       q    Type
REMARK                         _______ _______ _______ _____ _____    ______ ____
ROOT
ATOM      1  CA  THR A   1       8.802  -5.048  25.296  0.00  0.00    +0.189 C 
ENDROOT
BRANCH   1   2
ATOM      2  N   THR A   1      10.136  -5.687  25.378  0.00  0.00    -0.316 NA
ATOM      3  H1  THR A   1      10.852  -5.032  25.073  0.00  0.00    +0.119 HD
ATOM      4  H2  THR A   1      10.324  -5.896  26.365  0.00  0.00    +0.119 HD
ENDBRANCH   1   2
BRANCH   1   6
ATOM      5  CG2 THR A   1       7.066  -3.725  26.666  0.00  0.00    +0.040 C 
ATOM      6  CB  THR A   1       8.291  -4.633  26.691  0.00  0.00    +0.139 C 
BRANCH   6   7
ATOM      7  OG1 THR A   1       7.985  -5.816  27.450  0.00  0.00    -0.390 OA
ATOM      8  HG1 THR A   1       8.301  -6.576  26.920  0.00  0.00    +0.210 HD
ENDBRANCH   6   7
ENDBRANCH   1   6
BRANCH   1   9
ATOM      9  C   THR A   1       8.826  -3.866  24.300  0.00  0.00    +0.324 C 
ATOM     10  OXT THR A   1       9.633  -2.946  24.338  0.00  0.00    -0.249 OA
BRANCH   9  11
ATOM     11  O   THR A   1       7.942  -3.993  23.279  0.00  0.00    -0.479 OA
ATOM     12  H   THR A   1       8.291  -3.587  22.448  0.00  0.00    +0.295 HD
ENDBRANCH   9  11
ENDBRANCH   1   9
TORSDOF 5
ENDMDL
MODEL 9
REMARK VINA RESULT:      -3.4      3.851      5.258
REMARK  Name = 
REMARK  6 active torsions:
REMARK  status: ('A' for Active; 'I' for Inactive)
REMARK    1  A    between atoms: CG2_1  and  CB_2
REMARK    2  A    between atoms: CB_2  and  OG1_4
REMARK    3  A    between atoms: CB_2  and  CA_5
REMARK    4  A    between atoms: CA_5  and  N_7
REMARK    5  A    between atoms: CA_5  and  C_8
REMARK    6  A    between atoms: C_8  and  O_9
REMARK                            x       y       z     vdW  Elec       q    Type
REMARK                         _______ _______ _______ _____ _____    ______ ____
ROOT
ATOM      1  CA  THR A   1       8.498  -1.813  22.760  0.00  0.00    +0.189 C 
ENDROOT
BRANCH   1   2
ATOM      2  N   THR A   1       7.432  -0.898  23.227  0.00  0.00    -0.316 NA
ATOM      3  H1  THR A   1       6.621  -0.973  22.619  0.00  0.00    +0.119 HD
ATOM      4  H2  THR A   1       7.134  -1.210  24.158  0.00  0.00    +0.119 HD
ENDBRANCH   1   2
BRANCH   1   6
ATOM      5  CG2 THR A   1       9.211   0.321  21.504  0.00  0.00    +0.040 C 
ATOM      6  CB  THR A   1       9.292  -1.199  21.589  0.00  0.00    +0.139 C 
BRANCH   6   7
ATOM      7  OG1 THR A   1      10.672  -1.592  21.700  0.00  0.00    -0.390 OA
ATOM      8  HG1 THR A   1      11.034  -1.120  22.478  0.00  0.00    +0.210 HD
ENDBRANCH   6   7
ENDBRANCH   1   6
BRANCH   1   9
ATOM      9  C   THR A   1       9.410  -2.230  23.937  0.00  0.00    +0.324 C 
ATOM     10  OXT THR A   1       9.858  -3.358  24.100  0.00  0.00    -0.249 OA
BRANCH   9  11
ATOM     11  O   THR A   1       9.788  -1.195  24.729  0.00  0.00    -0.479 OA
ATOM     12  H   THR A   1      10.222  -1.516  25.558  0.00  0.00    +0.295 HD
ENDBRANCH   9  11
ENDBRANCH   1   9
TORSDOF 5
ENDMDL
