MODEL 1
REMARK VINA RESULT:      -7.0      0.000      0.000
REMARK  Name = 
REMARK  7 active torsions:
REMARK  status: ('A' for Active; 'I' for Inactive)
REMARK    1  A    between atoms: C_1  and  O_2
REMARK    2  A    between atoms: O_2  and  C_3
REMARK    3  A    between atoms: N_5  and  C_25
REMARK    4  A    between atoms: C_7  and  C_8
REMARK    5  A    between atoms: C_8  and  O_9
REMARK    6  A    between atoms: C_17  and  N_18
REMARK    7  A    between atoms: C_22  and  C_23
REMARK                            x       y       z     vdW  Elec       q    Type
REMARK                         _______ _______ _______ _____ _____    ______ ____
ROOT
ATOM      1  C   UNL     1       8.093  -1.155  24.894  0.00  0.00    +0.168 A 
ATOM      2  C   UNL     1       8.312  -0.011  24.048  0.00  0.00    +0.110 A 
ATOM      3  C   UNL     1       7.552   0.005  22.853  0.00  0.00    +0.149 A 
ATOM      4  F   UNL     1       7.620   1.038  21.996  0.00  0.00    -0.203 F 
ATOM      5  C   UNL     1       6.740  -1.052  22.453  0.00  0.00    +0.054 A 
ATOM      6  C   UNL     1       6.683  -2.211  23.216  0.00  0.00    +0.052 A 
ATOM      7  C   UNL     1       5.902  -3.359  22.686  0.00  0.00    +0.204 A 
ATOM      8  O   UNL     1       5.248  -3.272  21.644  0.00  0.00    -0.286 OA
ATOM      9  C   UNL     1       5.955  -4.639  23.403  0.00  0.00    +0.122 A 
ATOM     10  C   UNL     1       6.650  -4.642  24.551  0.00  0.00    +0.105 A 
ATOM     11  N   UNL     1       7.290  -3.566  25.142  0.00  0.00    -0.340 N 
ATOM     12  C   UNL     1       7.368  -2.309  24.449  0.00  0.00    +0.097 A 
ENDROOT
BRANCH   2  13
ATOM     13  N   UNL     1       9.194   1.026  24.386  0.00  0.00    -0.322 N 
ATOM     14  C   UNL     1       8.741   2.324  24.933  0.00  0.00    +0.123 C 
ATOM     15  C   UNL     1       8.727   3.401  23.816  0.00  0.00    +0.068 C 
ATOM     16  C   UNL     1       8.222   4.737  24.352  0.00  0.00    +0.025 C 
ATOM     17  N   UNL     1      10.083   3.599  23.250  0.00  0.00    -0.311 NA
ATOM     18  H   UNL     1      10.039   4.273  22.488  0.00  0.00    +0.122 HD
ATOM     19  C   UNL     1      10.585   2.315  22.730  0.00  0.00    +0.100 C 
ATOM     20  C   UNL     1      10.526   1.149  23.739  0.00  0.00    +0.120 C 
ENDBRANCH   2  13
BRANCH  11  21
ATOM     21  C   UNL     1       8.035  -3.830  26.396  0.00  0.00    +0.088 C 
ATOM     22  C   UNL     1       9.306  -4.646  26.509  0.00  0.00    +0.027 C 
ATOM     23  C   UNL     1       8.015  -5.218  26.991  0.00  0.00    +0.027 C 
ENDBRANCH  11  21
BRANCH   1  25
ATOM     24  C   UNL     1       7.935  -0.475  27.155  0.00  0.00    +0.277 C 
ATOM     25  O   UNL     1       8.654  -1.203  26.154  0.00  0.00    -0.491 OA
ENDBRANCH   1  25
BRANCH   9  26
ATOM     26  C   UNL     1       5.307  -5.885  22.949  0.00  0.00    +0.342 C 
ATOM     27  O   UNL     1       4.789  -6.689  23.716  0.00  0.00    -0.245 OA
BRANCH  26  28
ATOM     28  O   UNL     1       5.329  -6.075  21.619  0.00  0.00    -0.477 OA
ATOM     29  H   UNL     1       4.485  -6.425  21.248  0.00  0.00    +0.295 HD
ENDBRANCH  26  28
ENDBRANCH   9  26
TORSDOF 5
ENDMDL
MODEL 2
REMARK VINA RESULT:      -6.6      3.127      7.672
REMARK  Name = 
REMARK  7 active torsions:
REMARK  status: ('A' for Active; 'I' for Inactive)
REMARK    1  A    between atoms: C_1  and  O_2
REMARK    2  A    between atoms: O_2  and  C_3
REMARK    3  A    between atoms: N_5  and  C_25
REMARK    4  A    between atoms: C_7  and  C_8
REMARK    5  A    between atoms: C_8  and  O_9
REMARK    6  A    between atoms: C_17  and  N_18
REMARK    7  A    between atoms: C_22  and  C_23
REMARK                            x       y       z     vdW  Elec       q    Type
REMARK                         _______ _______ _______ _____ _____    ______ ____
ROOT
ATOM      1  C   UNL     1       8.075   0.603  25.229  0.00  0.00    +0.168 A 
ATOM      2  C   UNL     1       8.575  -0.582  24.582  0.00  0.00    +0.110 A 
ATOM      3  C   UNL     1       9.756  -0.396  23.823  0.00  0.00    +0.149 A 
ATOM      4  F   UNL     1      10.359  -1.428  23.207  0.00  0.00    -0.203 F 
ATOM      5  C   UNL     1      10.337   0.850  23.611  0.00  0.00    +0.054 A 
ATOM      6  C   UNL     1       9.731   1.994  24.114  0.00  0.00    +0.052 A 
ATOM      7  C   UNL     1      10.318   3.311  23.758  0.00  0.00    +0.204 A 
ATOM      8  O   UNL     1      11.360   3.401  23.105  0.00  0.00    -0.286 OA
ATOM      9  C   UNL     1       9.605   4.531  24.155  0.00  0.00    +0.122 A 
ATOM     10  C   UNL     1       8.503   4.353  24.901  0.00  0.00    +0.105 A 
ATOM     11  N   UNL     1       7.991   3.151  25.358  0.00  0.00    -0.340 N 
ATOM     12  C   UNL     1       8.575   1.911  24.924  0.00  0.00    +0.097 A 
ENDROOT
BRANCH   2  13
ATOM     13  N   UNL     1       7.956  -1.834  24.707  0.00  0.00    -0.322 N 
ATOM     14  C   UNL     1       8.492  -2.918  25.561  0.00  0.00    +0.123 C 
ATOM     15  C   UNL     1       9.250  -3.958  24.695  0.00  0.00    +0.068 C 
ATOM     16  C   UNL     1       9.846  -5.061  25.563  0.00  0.00    +0.025 C 
ATOM     17  N   UNL     1       8.347  -4.577  23.695  0.00  0.00    -0.311 NA
ATOM     18  H   UNL     1       8.877  -5.219  23.109  0.00  0.00    +0.122 HD
ATOM     19  C   UNL     1       7.761  -3.523  22.849  0.00  0.00    +0.100 C 
ATOM     20  C   UNL     1       7.085  -2.377  23.631  0.00  0.00    +0.120 C 
ENDBRANCH   2  13
BRANCH  11  21
ATOM     21  C   UNL     1       6.728   3.207  26.132  0.00  0.00    +0.088 C 
ATOM     22  C   UNL     1       5.349   3.442  25.552  0.00  0.00    +0.027 C 
ATOM     23  C   UNL     1       6.027   4.534  26.311  0.00  0.00    +0.027 C 
ENDBRANCH  11  21
BRANCH   1  25
ATOM     24  C   UNL     1       7.404   0.139  27.451  0.00  0.00    +0.277 C 
ATOM     25  O   UNL     1       7.026   0.514  26.122  0.00  0.00    -0.491 OA
ENDBRANCH   1  25
BRANCH   9  26
ATOM     26  C   UNL     1      10.017   5.903  23.794  0.00  0.00    +0.342 C 
ATOM     27  O   UNL     1       9.229   6.759  23.409  0.00  0.00    -0.245 OA
BRANCH  26  28
ATOM     28  O   UNL     1      11.333   6.143  23.922  0.00  0.00    -0.477 OA
ATOM     29  H   UNL     1      11.702   6.742  23.231  0.00  0.00    +0.295 HD
ENDBRANCH  26  28
ENDBRANCH   9  26
TORSDOF 5
ENDMDL
MODEL 3
REMARK VINA RESULT:      -6.4      2.267      3.448
REMARK  Name = 
REMARK  7 active torsions:
REMARK  status: ('A' for Active; 'I' for Inactive)
REMARK    1  A    between atoms: C_1  and  O_2
REMARK    2  A    between atoms: O_2  and  C_3
REMARK    3  A    between atoms: N_5  and  C_25
REMARK    4  A    between atoms: C_7  and  C_8
REMARK    5  A    between atoms: C_8  and  O_9
REMARK    6  A    between atoms: C_17  and  N_18
REMARK    7  A    between atoms: C_22  and  C_23
REMARK                            x       y       z     vdW  Elec       q    Type
REMARK                         _______ _______ _______ _____ _____    ______ ____
ROOT
ATOM      1  C   UNL     1       7.801  -1.543  23.298  0.00  0.00    +0.168 A 
ATOM      2  C   UNL     1       7.727  -0.139  23.608  0.00  0.00    +0.110 A 
ATOM      3  C   UNL     1       7.248   0.163  24.906  0.00  0.00    +0.149 A 
ATOM      4  F   UNL     1       7.177   1.432  25.345  0.00  0.00    -0.203 F 
ATOM      5  C   UNL     1       6.771  -0.803  25.786  0.00  0.00    +0.054 A 
ATOM      6  C   UNL     1       6.702  -2.132  25.387  0.00  0.00    +0.052 A 
ATOM      7  C   UNL     1       6.070  -3.107  26.312  0.00  0.00    +0.204 A 
ATOM      8  O   UNL     1       5.688  -2.779  27.438  0.00  0.00    -0.286 OA
ATOM      9  C   UNL     1       5.854  -4.483  25.848  0.00  0.00    +0.122 A 
ATOM     10  C   UNL     1       6.337  -4.774  24.629  0.00  0.00    +0.105 A 
ATOM     11  N   UNL     1       7.039  -3.930  23.786  0.00  0.00    -0.340 N 
ATOM     12  C   UNL     1       7.198  -2.544  24.129  0.00  0.00    +0.097 A 
ENDROOT
BRANCH   2  13
ATOM     13  N   UNL     1       8.119   0.860  22.704  0.00  0.00    -0.322 N 
ATOM     14  C   UNL     1       9.468   1.467  22.708  0.00  0.00    +0.123 C 
ATOM     15  C   UNL     1       9.433   2.848  23.416  0.00  0.00    +0.068 C 
ATOM     16  C   UNL     1      10.824   3.471  23.467  0.00  0.00    +0.025 C 
ATOM     17  N   UNL     1       8.520   3.782  22.714  0.00  0.00    -0.311 NA
ATOM     18  H   UNL     1       8.476   4.663  23.223  0.00  0.00    +0.122 HD
ATOM     19  C   UNL     1       7.171   3.192  22.654  0.00  0.00    +0.100 C 
ATOM     20  C   UNL     1       7.123   1.763  22.072  0.00  0.00    +0.120 C 
ENDBRANCH   2  13
BRANCH  11  21
ATOM     21  C   UNL     1       7.430  -4.472  22.463  0.00  0.00    +0.088 C 
ATOM     22  C   UNL     1       6.475  -4.911  21.373  0.00  0.00    +0.027 C 
ATOM     23  C   UNL     1       7.211  -5.937  22.167  0.00  0.00    +0.027 C 
ENDBRANCH  11  21
BRANCH   1  25
ATOM     24  C   UNL     1       9.829  -1.877  22.124  0.00  0.00    +0.277 C 
ATOM     25  O   UNL     1       8.400  -1.964  22.128  0.00  0.00    -0.491 OA
ENDBRANCH   1  25
BRANCH   9  26
ATOM     26  C   UNL     1       5.159  -5.533  26.617  0.00  0.00    +0.342 C 
ATOM     27  O   UNL     1       5.581  -6.680  26.719  0.00  0.00    -0.245 OA
BRANCH  26  28
ATOM     28  O   UNL     1       4.018  -5.134  27.204  0.00  0.00    -0.477 OA
ATOM     29  H   UNL     1       3.447  -5.873  27.521  0.00  0.00    +0.295 HD
ENDBRANCH  26  28
ENDBRANCH   9  26
TORSDOF 5
ENDMDL
MODEL 4
REMARK VINA RESULT:      -6.4      3.049      7.298
REMARK  Name = 
REMARK  7 active torsions:
REMARK  status: ('A' for Active; 'I' for Inactive)
REMARK    1  A    between atoms: C_1  and  O_2
REMARK    2  A    between atoms: O_2  and  C_3
REMARK    3  A    between atoms: N_5  and  C_25
REMARK    4  A    between atoms: C_7  and  C_8
REMARK    5  A    between atoms: C_8  and  O_9
REMARK    6  A    between atoms: C_17  and  N_18
REMARK    7  A    between atoms: C_22  and  C_23
REMARK                            x       y       z     vdW  Elec       q    Type
REMARK                         _______ _______ _______ _____ _____    ______ ____
ROOT
ATOM      1  C   UNL     1       5.984  -1.483  24.604  0.00  0.00    +0.168 A 
ATOM      2  C   UNL     1       6.033  -2.884  24.278  0.00  0.00    +0.110 A 
ATOM      3  C   UNL     1       7.280  -3.341  23.788  0.00  0.00    +0.149 A 
ATOM      4  F   UNL     1       7.482  -4.637  23.493  0.00  0.00    -0.203 F 
ATOM      5  C   UNL     1       8.352  -2.494  23.523  0.00  0.00    +0.054 A 
ATOM      6  C   UNL     1       8.211  -1.123  23.693  0.00  0.00    +0.052 A 
ATOM      7  C   UNL     1       9.339  -0.247  23.280  0.00  0.00    +0.204 A 
ATOM      8  O   UNL     1      10.406  -0.713  22.876  0.00  0.00    -0.286 OA
ATOM      9  C   UNL     1       9.150   1.208  23.312  0.00  0.00    +0.122 A 
ATOM     10  C   UNL     1       7.979   1.639  23.807  0.00  0.00    +0.105 A 
ATOM     11  N   UNL     1       6.951   0.862  24.315  0.00  0.00    -0.340 N 
ATOM     12  C   UNL     1       7.022  -0.570  24.222  0.00  0.00    +0.097 A 
ENDROOT
BRANCH   2  13
ATOM     13  N   UNL     1       4.938  -3.743  24.451  0.00  0.00    -0.322 N 
ATOM     14  C   UNL     1       4.711  -4.523  25.688  0.00  0.00    +0.123 C 
ATOM     15  C   UNL     1       5.169  -5.992  25.487  0.00  0.00    +0.068 C 
ATOM     16  C   UNL     1       4.982  -6.801  26.766  0.00  0.00    +0.025 C 
ATOM     17  N   UNL     1       4.403  -6.643  24.397  0.00  0.00    -0.311 NA
ATOM     18  H   UNL     1       4.754  -7.588  24.253  0.00  0.00    +0.122 HD
ATOM     19  C   UNL     1       4.572  -5.871  23.154  0.00  0.00    +0.100 C 
ATOM     20  C   UNL     1       4.254  -4.366  23.288  0.00  0.00    +0.120 C 
ENDBRANCH   2  13
BRANCH  11  21
ATOM     21  C   UNL     1       5.729   1.571  24.763  0.00  0.00    +0.088 C 
ATOM     22  C   UNL     1       4.882   2.492  23.911  0.00  0.00    +0.027 C 
ATOM     23  C   UNL     1       5.771   3.068  24.962  0.00  0.00    +0.027 C 
ENDBRANCH  11  21
BRANCH   1  25
ATOM     24  C   UNL     1       4.903  -1.056  26.666  0.00  0.00    +0.277 C 
ATOM     25  O   UNL     1       4.876  -0.957  25.238  0.00  0.00    -0.491 OA
ENDBRANCH   1  25
BRANCH   9  26
ATOM     26  C   UNL     1      10.143   2.196  22.847  0.00  0.00    +0.342 C 
ATOM     27  O   UNL     1      10.781   2.915  23.609  0.00  0.00    -0.245 OA
BRANCH  26  28
ATOM     28  O   UNL     1      10.297   2.249  21.514  0.00  0.00    -0.477 OA
ATOM     29  H   UNL     1      11.177   1.937  21.197  0.00  0.00    +0.295 HD
ENDBRANCH  26  28
ENDBRANCH   9  26
TORSDOF 5
ENDMDL
MODEL 5
REMARK VINA RESULT:      -6.3      3.158      7.304
REMARK  Name = 
REMARK  7 active torsions:
REMARK  status: ('A' for Active; 'I' for Inactive)
REMARK    1  A    between atoms: C_1  and  O_2
REMARK    2  A    between atoms: O_2  and  C_3
REMARK    3  A    between atoms: N_5  and  C_25
REMARK    4  A    between atoms: C_7  and  C_8
REMARK    5  A    between atoms: C_8  and  O_9
REMARK    6  A    between atoms: C_17  and  N_18
REMARK    7  A    between atoms: C_22  and  C_23
REMARK                            x       y       z     vdW  Elec       q    Type
REMARK                         _______ _______ _______ _____ _____    ______ ____
ROOT
ATOM      1  C   UNL     1       6.919  -2.907  24.097  0.00  0.00    +0.168 A 
ATOM      2  C   UNL     1       6.220  -3.557  25.175  0.00  0.00    +0.110 A 
ATOM      3  C   UNL     1       5.272  -2.748  25.847  0.00  0.00    +0.149 A 
ATOM      4  F   UNL     1       4.512  -3.243  26.839  0.00  0.00    -0.203 F 
ATOM      5  C   UNL     1       5.099  -1.394  25.579  0.00  0.00    +0.054 A 
ATOM      6  C   UNL     1       5.910  -0.762  24.645  0.00  0.00    +0.052 A 
ATOM      7  C   UNL     1       5.774   0.708  24.482  0.00  0.00    +0.204 A 
ATOM      8  O   UNL     1       4.914   1.351  25.088  0.00  0.00    -0.286 OA
ATOM      9  C   UNL     1       6.724   1.412  23.612  0.00  0.00    +0.122 A 
ATOM     10  C   UNL     1       7.601   0.639  22.952  0.00  0.00    +0.105 A 
ATOM     11  N   UNL     1       7.683  -0.742  22.981  0.00  0.00    -0.340 N 
ATOM     12  C   UNL     1       6.855  -1.490  23.887  0.00  0.00    +0.097 A 
ENDROOT
BRANCH   2  13
ATOM     13  N   UNL     1       6.441  -4.897  25.525  0.00  0.00    -0.322 N 
ATOM     14  C   UNL     1       5.572  -6.004  25.067  0.00  0.00    +0.123 C 
ATOM     15  C   UNL     1       4.587  -6.414  26.193  0.00  0.00    +0.068 C 
ATOM     16  C   UNL     1       3.654  -7.526  25.725  0.00  0.00    +0.025 C 
ATOM     17  N   UNL     1       5.318  -6.883  27.395  0.00  0.00    -0.311 NA
ATOM     18  H   UNL     1       4.653  -7.100  28.135  0.00  0.00    +0.122 HD
ATOM     19  C   UNL     1       6.226  -5.819  27.858  0.00  0.00    +0.100 C 
ATOM     20  C   UNL     1       7.167  -5.262  26.769  0.00  0.00    +0.120 C 
ENDBRANCH   2  13
BRANCH  11  21
ATOM     21  C   UNL     1       8.774  -1.370  22.197  0.00  0.00    +0.088 C 
ATOM     22  C   UNL     1      10.231  -1.424  22.604  0.00  0.00    +0.027 C 
ATOM     23  C   UNL     1       9.801  -0.491  21.522  0.00  0.00    +0.027 C 
ENDBRANCH  11  21
BRANCH   1  25
ATOM     24  C   UNL     1       7.079  -4.302  22.192  0.00  0.00    +0.277 C 
ATOM     25  O   UNL     1       7.748  -3.637  23.269  0.00  0.00    -0.491 OA
ENDBRANCH   1  25
BRANCH   9  26
ATOM     26  C   UNL     1       6.770   2.876  23.425  0.00  0.00    +0.342 C 
ATOM     27  O   UNL     1       6.758   3.411  22.322  0.00  0.00    -0.245 OA
BRANCH  26  28
ATOM     28  O   UNL     1       6.825   3.584  24.565  0.00  0.00    -0.477 OA
ATOM     29  H   UNL     1       6.054   4.183  24.705  0.00  0.00    +0.295 HD
ENDBRANCH  26  28
ENDBRANCH   9  26
TORSDOF 5
ENDMDL
MODEL 6
REMARK VINA RESULT:      -6.3      1.637      1.827
REMARK  Name = 
REMARK  7 active torsions:
REMARK  status: ('A' for Active; 'I' for Inactive)
REMARK    1  A    between atoms: C_1  and  O_2
REMARK    2  A    between atoms: O_2  and  C_3
REMARK    3  A    between atoms: N_5  and  C_25
REMARK    4  A    between atoms: C_7  and  C_8
REMARK    5  A    between atoms: C_8  and  O_9
REMARK    6  A    between atoms: C_17  and  N_18
REMARK    7  A    between atoms: C_22  and  C_23
REMARK                            x       y       z     vdW  Elec       q    Type
REMARK                         _______ _______ _______ _____ _____    ______ ____
ROOT
ATOM      1  C   UNL     1       6.868  -1.635  25.551  0.00  0.00    +0.168 A 
ATOM      2  C   UNL     1       7.648  -0.813  24.663  0.00  0.00    +0.110 A 
ATOM      3  C   UNL     1       7.435  -1.053  23.284  0.00  0.00    +0.149 A 
ATOM      4  F   UNL     1       8.059  -0.322  22.344  0.00  0.00    -0.203 F 
ATOM      5  C   UNL     1       6.627  -2.080  22.805  0.00  0.00    +0.054 A 
ATOM      6  C   UNL     1       6.022  -2.959  23.693  0.00  0.00    +0.052 A 
ATOM      7  C   UNL     1       5.272  -4.113  23.133  0.00  0.00    +0.204 A 
ATOM      8  O   UNL     1       5.111  -4.253  21.919  0.00  0.00    -0.286 OA
ATOM      9  C   UNL     1       4.755  -5.132  24.054  0.00  0.00    +0.122 A 
ATOM     10  C   UNL     1       4.931  -4.886  25.363  0.00  0.00    +0.105 A 
ATOM     11  N   UNL     1       5.515  -3.766  25.930  0.00  0.00    -0.340 N 
ATOM     12  C   UNL     1       6.134  -2.778  25.091  0.00  0.00    +0.097 A 
ENDROOT
BRANCH   2  13
ATOM     13  N   UNL     1       8.538   0.169  25.122  0.00  0.00    -0.322 N 
ATOM     14  C   UNL     1       8.229   1.616  25.090  0.00  0.00    +0.123 C 
ATOM     15  C   UNL     1       8.929   2.287  23.878  0.00  0.00    +0.068 C 
ATOM     16  C   UNL     1       8.588   3.772  23.805  0.00  0.00    +0.025 C 
ATOM     17  N   UNL     1      10.402   2.142  23.968  0.00  0.00    -0.311 NA
ATOM     18  H   UNL     1      10.835   2.547  23.140  0.00  0.00    +0.122 HD
ATOM     19  C   UNL     1      10.747   0.712  24.043  0.00  0.00    +0.100 C 
ATOM     20  C   UNL     1      10.005  -0.069  25.148  0.00  0.00    +0.120 C 
ENDBRANCH   2  13
BRANCH  11  21
ATOM     21  C   UNL     1       5.637  -3.745  27.407  0.00  0.00    +0.088 C 
ATOM     22  C   UNL     1       6.024  -4.923  28.276  0.00  0.00    +0.027 C 
ATOM     23  C   UNL     1       4.605  -4.462  28.247  0.00  0.00    +0.027 C 
ENDBRANCH  11  21
BRANCH   1  25
ATOM     24  C   UNL     1       5.974  -0.350  27.326  0.00  0.00    +0.277 C 
ATOM     25  O   UNL     1       6.871  -1.385  26.908  0.00  0.00    -0.491 OA
ENDBRANCH   1  25
BRANCH   9  26
ATOM     26  C   UNL     1       4.073  -6.374  23.640  0.00  0.00    +0.342 C 
ATOM     27  O   UNL     1       4.197  -7.438  24.236  0.00  0.00    -0.245 OA
BRANCH  26  28
ATOM     28  O   UNL     1       3.298  -6.249  22.550  0.00  0.00    -0.477 OA
ATOM     29  H   UNL     1       2.701  -5.464  22.567  0.00  0.00    +0.295 HD
ENDBRANCH  26  28
ENDBRANCH   9  26
TORSDOF 5
ENDMDL
MODEL 7
REMARK VINA RESULT:      -6.2      2.909      7.150
REMARK  Name = 
REMARK  7 active torsions:
REMARK  status: ('A' for Active; 'I' for Inactive)
REMARK    1  A    between atoms: C_1  and  O_2
REMARK    2  A    between atoms: O_2  and  C_3
REMARK    3  A    between atoms: N_5  and  C_25
REMARK    4  A    between atoms: C_7  and  C_8
REMARK    5  A    between atoms: C_8  and  O_9
REMARK    6  A    between atoms: C_17  and  N_18
REMARK    7  A    between atoms: C_22  and  C_23
REMARK                            x       y       z     vdW  Elec       q    Type
REMARK                         _______ _______ _______ _____ _____    ______ ____
ROOT
ATOM      1  C   UNL     1       8.227  -0.709  24.581  0.00  0.00    +0.168 A 
ATOM      2  C   UNL     1       8.962  -1.627  23.750  0.00  0.00    +0.110 A 
ATOM      3  C   UNL     1      10.126  -1.090  23.149  0.00  0.00    +0.149 A 
ATOM      4  F   UNL     1      10.933  -1.850  22.390  0.00  0.00    -0.203 F 
ATOM      5  C   UNL     1      10.485   0.251  23.247  0.00  0.00    +0.054 A 
ATOM      6  C   UNL     1       9.660   1.143  23.921  0.00  0.00    +0.052 A 
ATOM      7  C   UNL     1      10.018   2.584  23.893  0.00  0.00    +0.204 A 
ATOM      8  O   UNL     1      11.058   2.983  23.364  0.00  0.00    -0.286 OA
ATOM      9  C   UNL     1       9.081   3.556  24.469  0.00  0.00    +0.122 A 
ATOM     10  C   UNL     1       7.994   3.041  25.066  0.00  0.00    +0.105 A 
ATOM     11  N   UNL     1       7.683   1.701  25.222  0.00  0.00    -0.340 N 
ATOM     12  C   UNL     1       8.499   0.698  24.595  0.00  0.00    +0.097 A 
ENDROOT
BRANCH   2  13
ATOM     13  N   UNL     1       8.571  -2.961  23.563  0.00  0.00    -0.322 N 
ATOM     14  C   UNL     1       7.372  -3.349  22.787  0.00  0.00    +0.123 C 
ATOM     15  C   UNL     1       6.199  -3.684  23.746  0.00  0.00    +0.068 C 
ATOM     16  C   UNL     1       4.941  -4.046  22.964  0.00  0.00    +0.025 C 
ATOM     17  N   UNL     1       6.547  -4.818  24.636  0.00  0.00    -0.311 NA
ATOM     18  H   UNL     1       5.782  -4.987  25.287  0.00  0.00    +0.122 HD
ATOM     19  C   UNL     1       7.763  -4.484  25.398  0.00  0.00    +0.100 C 
ATOM     20  C   UNL     1       8.954  -4.021  24.531  0.00  0.00    +0.120 C 
ENDBRANCH   2  13
BRANCH  11  21
ATOM     21  C   UNL     1       6.394   1.380  25.880  0.00  0.00    +0.088 C 
ATOM     22  C   UNL     1       5.022   1.577  25.271  0.00  0.00    +0.027 C 
ATOM     23  C   UNL     1       5.496   2.505  26.339  0.00  0.00    +0.027 C 
ENDBRANCH  11  21
BRANCH   1  25
ATOM     24  C   UNL     1       7.502  -1.472  26.701  0.00  0.00    +0.277 C 
ATOM     25  O   UNL     1       7.169  -1.160  25.344  0.00  0.00    -0.491 OA
ENDBRANCH   1  25
BRANCH   9  26
ATOM     26  C   UNL     1       9.258   5.021  24.434  0.00  0.00    +0.342 C 
ATOM     27  O   UNL     1       9.107   5.738  25.416  0.00  0.00    -0.245 OA
BRANCH  26  28
ATOM     28  O   UNL     1       9.601   5.513  23.232  0.00  0.00    -0.477 OA
ATOM     29  H   UNL     1       8.975   5.278  22.506  0.00  0.00    +0.295 HD
ENDBRANCH  26  28
ENDBRANCH   9  26
TORSDOF 5
ENDMDL
MODEL 8
REMARK VINA RESULT:      -6.2      2.259      3.117
REMARK  Name = 
REMARK  7 active torsions:
REMARK  status: ('A' for Active; 'I' for Inactive)
REMARK    1  A    between atoms: C_1  and  O_2
REMARK    2  A    between atoms: O_2  and  C_3
REMARK    3  A    between atoms: N_5  and  C_25
REMARK    4  A    between atoms: C_7  and  C_8
REMARK    5  A    between atoms: C_8  and  O_9
REMARK    6  A    between atoms: C_17  and  N_18
REMARK    7  A    between atoms: C_22  and  C_23
REMARK                            x       y       z     vdW  Elec       q    Type
REMARK                         _______ _______ _______ _____ _____    ______ ____
ROOT
ATOM      1  C   UNL     1       6.641  -3.066  25.160  0.00  0.00    +0.168 A 
ATOM      2  C   UNL     1       7.236  -2.498  23.979  0.00  0.00    +0.110 A 
ATOM      3  C   UNL     1       6.604  -2.849  22.762  0.00  0.00    +0.149 A 
ATOM      4  F   UNL     1       7.024  -2.348  21.587  0.00  0.00    -0.203 F 
ATOM      5  C   UNL     1       5.560  -3.765  22.682  0.00  0.00    +0.054 A 
ATOM      6  C   UNL     1       5.122  -4.420  23.826  0.00  0.00    +0.052 A 
ATOM      7  C   UNL     1       4.092  -5.480  23.674  0.00  0.00    +0.204 A 
ATOM      8  O   UNL     1       3.570  -5.725  22.584  0.00  0.00    -0.286 OA
ATOM      9  C   UNL     1       3.729  -6.284  24.847  0.00  0.00    +0.122 A 
ATOM     10  C   UNL     1       4.306  -5.928  26.006  0.00  0.00    +0.105 A 
ATOM     11  N   UNL     1       5.176  -4.872  26.215  0.00  0.00    -0.340 N 
ATOM     12  C   UNL     1       5.656  -4.107  25.097  0.00  0.00    +0.097 A 
ENDROOT
BRANCH   2  13
ATOM     13  N   UNL     1       8.345  -1.641  24.025  0.00  0.00    -0.322 N 
ATOM     14  C   UNL     1       8.239  -0.174  23.867  0.00  0.00    +0.123 C 
ATOM     15  C   UNL     1       8.634   0.240  22.424  0.00  0.00    +0.068 C 
ATOM     16  C   UNL     1       8.489   1.746  22.229  0.00  0.00    +0.025 C 
ATOM     17  N   UNL     1      10.034  -0.145  22.124  0.00  0.00    -0.311 NA
ATOM     18  H   UNL     1      10.253   0.092  21.158  0.00  0.00    +0.122 HD
ATOM     19  C   UNL     1      10.189  -1.598  22.310  0.00  0.00    +0.100 C 
ATOM     20  C   UNL     1       9.708  -2.123  23.680  0.00  0.00    +0.120 C 
ENDBRANCH   2  13
BRANCH  11  21
ATOM     21  C   UNL     1       5.721  -4.707  27.584  0.00  0.00    +0.088 C 
ATOM     22  C   UNL     1       6.704  -5.640  28.258  0.00  0.00    +0.027 C 
ATOM     23  C   UNL     1       5.273  -5.648  28.678  0.00  0.00    +0.027 C 
ENDBRANCH  11  21
BRANCH   1  25
ATOM     24  C   UNL     1       6.493  -1.446  26.879  0.00  0.00    +0.277 C 
ATOM     25  O   UNL     1       7.069  -2.670  26.411  0.00  0.00    -0.491 OA
ENDBRANCH   1  25
BRANCH   9  26
ATOM     26  C   UNL     1       2.793  -7.426  24.829  0.00  0.00    +0.342 C 
ATOM     27  O   UNL     1       1.985  -7.644  25.725  0.00  0.00    -0.245 OA
BRANCH  26  28
ATOM     28  O   UNL     1       2.896  -8.216  23.747  0.00  0.00    -0.477 OA
ATOM     29  H   UNL     1       2.623  -7.782  22.904  0.00  0.00    +0.295 HD
ENDBRANCH  26  28
ENDBRANCH   9  26
TORSDOF 5
ENDMDL
MODEL 9
REMARK VINA RESULT:      -6.2      2.167      3.549
REMARK  Name = 
REMARK  7 active torsions:
REMARK  status: ('A' for Active; 'I' for Inactive)
REMARK    1  A    between atoms: C_1  and  O_2
REMARK    2  A    between atoms: O_2  and  C_3
REMARK    3  A    between atoms: N_5  and  C_25
REMARK    4  A    between atoms: C_7  and  C_8
REMARK    5  A    between atoms: C_8  and  O_9
REMARK    6  A    between atoms: C_17  and  N_18
REMARK    7  A    between atoms: C_22  and  C_23
REMARK                            x       y       z     vdW  Elec       q    Type
REMARK                         _______ _______ _______ _____ _____    ______ ____
ROOT
ATOM      1  C   UNL     1       8.107  -1.478  24.040  0.00  0.00    +0.168 A 
ATOM      2  C   UNL     1       8.383  -0.365  24.911  0.00  0.00    +0.110 A 
ATOM      3  C   UNL     1       8.267  -0.643  26.294  0.00  0.00    +0.149 A 
ATOM      4  F   UNL     1       8.546   0.291  27.219  0.00  0.00    -0.203 F 
ATOM      5  C   UNL     1       7.808  -1.859  26.790  0.00  0.00    +0.054 A 
ATOM      6  C   UNL     1       7.392  -2.854  25.915  0.00  0.00    +0.052 A 
ATOM      7  C   UNL     1       6.794  -4.086  26.490  0.00  0.00    +0.204 A 
ATOM      8  O   UNL     1       6.738  -4.272  27.708  0.00  0.00    -0.286 OA
ATOM      9  C   UNL     1       6.213  -5.080  25.579  0.00  0.00    +0.122 A 
ATOM     10  C   UNL     1       6.352  -4.828  24.268  0.00  0.00    +0.105 A 
ATOM     11  N   UNL     1       7.009  -3.756  23.689  0.00  0.00    -0.340 N 
ATOM     12  C   UNL     1       7.512  -2.693  24.516  0.00  0.00    +0.097 A 
ENDROOT
BRANCH   2  13
ATOM     13  N   UNL     1       8.761   0.898  24.431  0.00  0.00    -0.322 N 
ATOM     14  C   UNL     1       7.791   1.887  23.911  0.00  0.00    +0.123 C 
ATOM     15  C   UNL     1       7.790   1.873  22.359  0.00  0.00    +0.068 C 
ATOM     16  C   UNL     1       6.764   2.857  21.805  0.00  0.00    +0.025 C 
ATOM     17  N   UNL     1       9.126   2.228  21.824  0.00  0.00    -0.311 NA
ATOM     18  H   UNL     1       9.113   2.165  20.807  0.00  0.00    +0.122 HD
ATOM     19  C   UNL     1      10.128   1.287  22.352  0.00  0.00    +0.100 C 
ATOM     20  C   UNL     1      10.123   1.143  23.890  0.00  0.00    +0.120 C 
ENDBRANCH   2  13
BRANCH  11  21
ATOM     21  C   UNL     1       6.989  -3.671  22.210  0.00  0.00    +0.088 C 
ATOM     22  C   UNL     1       5.760  -3.431  21.358  0.00  0.00    +0.027 C 
ATOM     23  C   UNL     1       6.367  -4.794  21.412  0.00  0.00    +0.027 C 
ENDBRANCH  11  21
BRANCH   1  25
ATOM     24  C   UNL     1       9.614  -1.873  22.259  0.00  0.00    +0.277 C 
ATOM     25  O   UNL     1       8.342  -1.372  22.684  0.00  0.00    -0.491 OA
ENDBRANCH   1  25
BRANCH   9  26
ATOM     26  C   UNL     1       5.506  -6.303  26.007  0.00  0.00    +0.342 C 
ATOM     27  O   UNL     1       4.642  -6.849  25.330  0.00  0.00    -0.245 OA
BRANCH  26  28
ATOM     28  O   UNL     1       5.885  -6.778  27.205  0.00  0.00    -0.477 OA
ATOM     29  H   UNL     1       6.840  -6.643  27.409  0.00  0.00    +0.295 HD
ENDBRANCH  26  28
ENDBRANCH   9  26
TORSDOF 5
ENDMDL
