MODEL 1
REMARK VINA RESULT:      -4.7      0.000      0.000
REMARK  Name = 
REMARK  12 active torsions:
REMARK  status: ('A' for Active; 'I' for Inactive)
REMARK    1  A    between atoms: C_1  and  C_2
REMARK    2  A    between atoms: C_2  and  O_3
REMARK    3  A    between atoms: O_3  and  P_4
REMARK    4  A    between atoms: P_4  and  O_6
REMARK    5  A    between atoms: P_4  and  O_9
REMARK    6  A    between atoms: O_6  and  C_7
REMARK    7  A    between atoms: C_7  and  C_8
REMARK    8  A    between atoms: O_9  and  C_10
REMARK    9  A    between atoms: C_10  and  C_11
REMARK   10  A    between atoms: C_11  and  N_13
REMARK   11  A    between atoms: C_11  and  C_14
REMARK   12  A    between atoms: C_14  and  O_15
REMARK                            x       y       z     vdW  Elec       q    Type
REMARK                         _______ _______ _______ _____ _____    ______ ____
ROOT
ATOM      1  O   UNK     1       9.778  -3.446  24.011  0.00  0.00    -0.284 OA
ENDROOT
BRANCH   1   2
ATOM      2  P   UNK     1       9.235  -1.958  23.315  0.00  0.00    +0.478 P 
ATOM      3  O   UNK     1       9.794  -1.223  24.534  0.00  0.00    -0.227 OA
BRANCH   2   4
ATOM      4  O   UNK     1       8.692  -0.470  22.619  0.00  0.00    -0.287 OA
BRANCH   4   6
ATOM      5  C   UNK     1       9.899   1.519  22.045  0.00  0.00    +0.035 C 
ATOM      6  C   UNK     1       9.636   0.069  21.703  0.00  0.00    +0.169 C 
ENDBRANCH   4   6
ENDBRANCH   2   4
BRANCH   2   7
ATOM      7  O   UNK     1       7.676  -2.386  23.630  0.00  0.00    -0.287 OA
BRANCH   7   8
ATOM      8  C   UNK     1       6.662  -1.806  22.825  0.00  0.00    +0.169 C 
ATOM      9  C   UNK     1       5.713  -2.888  22.353  0.00  0.00    +0.035 C 
ENDBRANCH   7   8
ENDBRANCH   2   7
ENDBRANCH   1   2
BRANCH   1  10
ATOM     10  C   UNK     1       8.721  -4.398  24.094  0.00  0.00    +0.202 C 
BRANCH  10  11
ATOM     11  C   UNK     1       8.889  -5.263  25.339  0.00  0.00    +0.187 C 
BRANCH  11  12
ATOM     12  N   UNK     1      10.332  -5.551  25.508  0.00  0.00    -0.317 NA
ATOM     13  H   UNK     1      10.697  -5.854  24.597  0.00  0.00    +0.119 HD
ATOM     14  H   UNK     1      10.835  -4.700  25.748  0.00  0.00    +0.119 HD
ENDBRANCH  11  12
BRANCH  11  15
ATOM     15  C   UNK     1       8.341  -4.571  26.603  0.00  0.00    +0.324 C 
ATOM     16  O   UNK     1       7.808  -5.185  27.523  0.00  0.00    -0.249 OA
BRANCH  15  17
ATOM     17  O   UNK     1       8.403  -3.222  26.595  0.00  0.00    -0.479 OA
ATOM     18  H   UNK     1       8.626  -2.814  27.464  0.00  0.00    +0.295 HD
ENDBRANCH  15  17
ENDBRANCH  11  15
ENDBRANCH  10  11
ENDBRANCH   1  10
TORSDOF 10
ENDMDL
MODEL 2
REMARK VINA RESULT:      -4.6      1.957      2.437
REMARK  Name = 
REMARK  12 active torsions:
REMARK  status: ('A' for Active; 'I' for Inactive)
REMARK    1  A    between atoms: C_1  and  C_2
REMARK    2  A    between atoms: C_2  and  O_3
REMARK    3  A    between atoms: O_3  and  P_4
REMARK    4  A    between atoms: P_4  and  O_6
REMARK    5  A    between atoms: P_4  and  O_9
REMARK    6  A    between atoms: O_6  and  C_7
REMARK    7  A    between atoms: C_7  and  C_8
REMARK    8  A    between atoms: O_9  and  C_10
REMARK    9  A    between atoms: C_10  and  C_11
REMARK   10  A    between atoms: C_11  and  N_13
REMARK   11  A    between atoms: C_11  and  C_14
REMARK   12  A    between atoms: C_14  and  O_15
REMARK                            x       y       z     vdW  Elec       q    Type
REMARK                         _______ _______ _______ _____ _____    ______ ____
ROOT
ATOM      1  O   UNK     1       8.562  -2.659  25.064  0.00  0.00    -0.284 OA
ENDROOT
BRANCH   1   2
ATOM      2  P   UNK     1       9.429  -1.919  23.763  0.00  0.00    +0.478 P 
ATOM      3  O   UNK     1      10.384  -3.113  23.764  0.00  0.00    -0.227 OA
BRANCH   2   4
ATOM      4  O   UNK     1      10.296  -1.178  22.462  0.00  0.00    -0.287 OA
BRANCH   4   6
ATOM      5  C   UNK     1       9.836   1.083  21.811  0.00  0.00    +0.035 C 
ATOM      6  C   UNK     1       9.455  -0.372  21.648  0.00  0.00    +0.169 C 
ENDBRANCH   4   6
ENDBRANCH   2   4
BRANCH   2   7
ATOM      7  O   UNK     1      10.009  -0.781  24.803  0.00  0.00    -0.287 OA
BRANCH   7   8
ATOM      8  C   UNK     1       9.117  -0.275  25.783  0.00  0.00    +0.169 C 
ATOM      9  C   UNK     1       8.364   0.910  25.215  0.00  0.00    +0.035 C 
ENDBRANCH   7   8
ENDBRANCH   2   7
ENDBRANCH   1   2
BRANCH   1  10
ATOM     10  C   UNK     1       7.440  -3.397  24.588  0.00  0.00    +0.202 C 
BRANCH  10  11
ATOM     11  C   UNK     1       7.663  -4.891  24.804  0.00  0.00    +0.187 C 
BRANCH  11  12
ATOM     12  N   UNK     1       8.281  -5.446  23.577  0.00  0.00    -0.317 NA
ATOM     13  H   UNK     1       8.754  -6.320  23.835  0.00  0.00    +0.119 HD
ATOM     14  H   UNK     1       7.562  -5.699  22.904  0.00  0.00    +0.119 HD
ENDBRANCH  11  12
BRANCH  11  15
ATOM     15  C   UNK     1       8.568  -5.172  26.020  0.00  0.00    +0.324 C 
ATOM     16  O   UNK     1       8.166  -5.118  27.179  0.00  0.00    -0.249 OA
BRANCH  15  17
ATOM     17  O   UNK     1       9.869  -5.394  25.731  0.00  0.00    -0.479 OA
ATOM     18  H   UNK     1      10.430  -5.624  26.509  0.00  0.00    +0.295 HD
ENDBRANCH  15  17
ENDBRANCH  11  15
ENDBRANCH  10  11
ENDBRANCH   1  10
TORSDOF 10
ENDMDL
MODEL 3
REMARK VINA RESULT:      -4.6      2.280      5.046
REMARK  Name = 
REMARK  12 active torsions:
REMARK  status: ('A' for Active; 'I' for Inactive)
REMARK    1  A    between atoms: C_1  and  C_2
REMARK    2  A    between atoms: C_2  and  O_3
REMARK    3  A    between atoms: O_3  and  P_4
REMARK    4  A    between atoms: P_4  and  O_6
REMARK    5  A    between atoms: P_4  and  O_9
REMARK    6  A    between atoms: O_6  and  C_7
REMARK    7  A    between atoms: C_7  and  C_8
REMARK    8  A    between atoms: O_9  and  C_10
REMARK    9  A    between atoms: C_10  and  C_11
REMARK   10  A    between atoms: C_11  and  N_13
REMARK   11  A    between atoms: C_11  and  C_14
REMARK   12  A    between atoms: C_14  and  O_15
REMARK                            x       y       z     vdW  Elec       q    Type
REMARK                         _______ _______ _______ _____ _____    ______ ____
ROOT
ATOM      1  O   UNK     1       8.307  -2.648  23.265  0.00  0.00    -0.284 OA
ENDROOT
BRANCH   1   2
ATOM      2  P   UNK     1       8.640  -3.881  24.431  0.00  0.00    +0.478 P 
ATOM      3  O   UNK     1      10.133  -3.606  24.245  0.00  0.00    -0.227 OA
BRANCH   2   4
ATOM      4  O   UNK     1       8.973  -5.114  25.598  0.00  0.00    -0.287 OA
BRANCH   4   6
ATOM      5  C   UNK     1       7.253  -3.790  26.613  0.00  0.00    +0.035 C 
ATOM      6  C   UNK     1       8.130  -5.016  26.738  0.00  0.00    +0.169 C 
ENDBRANCH   4   6
ENDBRANCH   2   4
BRANCH   2   7
ATOM      7  O   UNK     1       8.178  -5.028  23.344  0.00  0.00    -0.287 OA
BRANCH   7   8
ATOM      8  C   UNK     1       7.170  -4.677  22.409  0.00  0.00    +0.169 C 
ATOM      9  C   UNK     1       6.897  -5.854  21.496  0.00  0.00    +0.035 C 
ENDBRANCH   7   8
ENDBRANCH   2   7
ENDBRANCH   1   2
BRANCH   1  10
ATOM     10  C   UNK     1       8.079  -1.388  23.890  0.00  0.00    +0.202 C 
BRANCH  10  11
ATOM     11  C   UNK     1       9.145  -0.387  23.459  0.00  0.00    +0.187 C 
BRANCH  11  12
ATOM     12  N   UNK     1      10.255  -0.446  24.440  0.00  0.00    -0.317 NA
ATOM     13  H   UNK     1       9.999  -1.135  25.157  0.00  0.00    +0.119 HD
ATOM     14  H   UNK     1      11.099  -0.797  23.995  0.00  0.00    +0.119 HD
ENDBRANCH  11  12
BRANCH  11  15
ATOM     15  C   UNK     1       9.681  -0.683  22.044  0.00  0.00    +0.324 C 
ATOM     16  O   UNK     1       9.307  -0.072  21.046  0.00  0.00    -0.249 OA
BRANCH  15  17
ATOM     17  O   UNK     1      10.529  -1.730  21.956  0.00  0.00    -0.479 OA
ATOM     18  H   UNK     1      11.424  -1.570  22.337  0.00  0.00    +0.295 HD
ENDBRANCH  15  17
ENDBRANCH  11  15
ENDBRANCH  10  11
ENDBRANCH   1  10
TORSDOF 10
ENDMDL
MODEL 4
REMARK VINA RESULT:      -4.6      1.525      2.073
REMARK  Name = 
REMARK  12 active torsions:
REMARK  status: ('A' for Active; 'I' for Inactive)
REMARK    1  A    between atoms: C_1  and  C_2
REMARK    2  A    between atoms: C_2  and  O_3
REMARK    3  A    between atoms: O_3  and  P_4
REMARK    4  A    between atoms: P_4  and  O_6
REMARK    5  A    between atoms: P_4  and  O_9
REMARK    6  A    between atoms: O_6  and  C_7
REMARK    7  A    between atoms: C_7  and  C_8
REMARK    8  A    between atoms: O_9  and  C_10
REMARK    9  A    between atoms: C_10  and  C_11
REMARK   10  A    between atoms: C_11  and  N_13
REMARK   11  A    between atoms: C_11  and  C_14
REMARK   12  A    between atoms: C_14  and  O_15
REMARK                            x       y       z     vdW  Elec       q    Type
REMARK                         _______ _______ _______ _____ _____    ______ ____
ROOT
ATOM      1  O   UNK     1       9.881  -3.402  24.185  0.00  0.00    -0.284 OA
ENDROOT
BRANCH   1   2
ATOM      2  P   UNK     1       9.529  -1.720  24.385  0.00  0.00    +0.478 P 
ATOM      3  O   UNK     1       8.045  -2.043  24.200  0.00  0.00    -0.227 OA
BRANCH   2   4
ATOM      4  O   UNK     1       9.177  -0.038  24.584  0.00  0.00    -0.287 OA
BRANCH   4   6
ATOM      5  C   UNK     1      10.085   2.135  24.139  0.00  0.00    +0.035 C 
ATOM      6  C   UNK     1      10.357   0.749  24.680  0.00  0.00    +0.169 C 
ENDBRANCH   4   6
ENDBRANCH   2   4
BRANCH   2   7
ATOM      7  O   UNK     1      10.187  -1.412  22.907  0.00  0.00    -0.287 OA
BRANCH   7   8
ATOM      8  C   UNK     1       9.311  -1.389  21.792  0.00  0.00    +0.169 C 
ATOM      9  C   UNK     1       9.284   0.006  21.200  0.00  0.00    +0.035 C 
ENDBRANCH   7   8
ENDBRANCH   2   7
ENDBRANCH   1   2
BRANCH   1  10
ATOM     10  C   UNK     1       8.694  -4.189  24.217  0.00  0.00    +0.202 C 
BRANCH  10  11
ATOM     11  C   UNK     1       8.856  -5.346  25.198  0.00  0.00    +0.187 C 
BRANCH  11  12
ATOM     12  N   UNK     1      10.305  -5.554  25.427  0.00  0.00    -0.317 NA
ATOM     13  H   UNK     1      10.450  -5.647  26.440  0.00  0.00    +0.119 HD
ATOM     14  H   UNK     1      10.603  -6.435  25.015  0.00  0.00    +0.119 HD
ENDBRANCH  11  12
BRANCH  11  15
ATOM     15  C   UNK     1       8.148  -5.072  26.540  0.00  0.00    +0.324 C 
ATOM     16  O   UNK     1       7.360  -5.862  27.053  0.00  0.00    -0.249 OA
BRANCH  15  17
ATOM     17  O   UNK     1       8.380  -3.855  27.076  0.00  0.00    -0.479 OA
ATOM     18  H   UNK     1       9.316  -3.692  27.340  0.00  0.00    +0.295 HD
ENDBRANCH  15  17
ENDBRANCH  11  15
ENDBRANCH  10  11
ENDBRANCH   1  10
TORSDOF 10
ENDMDL
MODEL 5
REMARK VINA RESULT:      -4.4      2.412      5.339
REMARK  Name = 
REMARK  12 active torsions:
REMARK  status: ('A' for Active; 'I' for Inactive)
REMARK    1  A    between atoms: C_1  and  C_2
REMARK    2  A    between atoms: C_2  and  O_3
REMARK    3  A    between atoms: O_3  and  P_4
REMARK    4  A    between atoms: P_4  and  O_6
REMARK    5  A    between atoms: P_4  and  O_9
REMARK    6  A    between atoms: O_6  and  C_7
REMARK    7  A    between atoms: C_7  and  C_8
REMARK    8  A    between atoms: O_9  and  C_10
REMARK    9  A    between atoms: C_10  and  C_11
REMARK   10  A    between atoms: C_11  and  N_13
REMARK   11  A    between atoms: C_11  and  C_14
REMARK   12  A    between atoms: C_14  and  O_15
REMARK                            x       y       z     vdW  Elec       q    Type
REMARK                         _______ _______ _______ _____ _____    ______ ____
ROOT
ATOM      1  O   UNK     1       8.565  -1.545  23.539  0.00  0.00    -0.284 OA
ENDROOT
BRANCH   1   2
ATOM      2  P   UNK     1       8.856  -3.178  24.028  0.00  0.00    +0.478 P 
ATOM      3  O   UNK     1      10.328  -2.991  23.655  0.00  0.00    -0.227 OA
BRANCH   2   4
ATOM      4  O   UNK     1       9.148  -4.812  24.518  0.00  0.00    -0.287 OA
BRANCH   4   6
ATOM      5  C   UNK     1       8.196  -4.183  26.626  0.00  0.00    +0.035 C 
ATOM      6  C   UNK     1       9.310  -4.929  25.925  0.00  0.00    +0.169 C 
ENDBRANCH   4   6
ENDBRANCH   2   4
BRANCH   2   7
ATOM      7  O   UNK     1       8.043  -3.716  22.701  0.00  0.00    -0.287 OA
BRANCH   7   8
ATOM      8  C   UNK     1       7.061  -4.721  22.897  0.00  0.00    +0.169 C 
ATOM      9  C   UNK     1       7.132  -5.723  21.764  0.00  0.00    +0.035 C 
ENDBRANCH   7   8
ENDBRANCH   2   7
ENDBRANCH   1   2
BRANCH   1  10
ATOM     10  C   UNK     1       9.677  -0.706  23.838  0.00  0.00    +0.202 C 
BRANCH  10  11
ATOM     11  C   UNK     1      10.132   0.032  22.583  0.00  0.00    +0.187 C 
BRANCH  11  12
ATOM     12  N   UNK     1       9.779  -0.799  21.408  0.00  0.00    -0.317 NA
ATOM     13  H   UNK     1       8.837  -0.524  21.105  0.00  0.00    +0.119 HD
ATOM     14  H   UNK     1      10.400  -0.590  20.630  0.00  0.00    +0.119 HD
ENDBRANCH  11  12
BRANCH  11  15
ATOM     15  C   UNK     1       9.477   1.422  22.458  0.00  0.00    +0.324 C 
ATOM     16  O   UNK     1       8.511   1.769  23.132  0.00  0.00    -0.249 OA
BRANCH  15  17
ATOM     17  O   UNK     1       9.982   2.211  21.486  0.00  0.00    -0.479 OA
ATOM     18  H   UNK     1      10.898   1.981  21.201  0.00  0.00    +0.295 HD
ENDBRANCH  15  17
ENDBRANCH  11  15
ENDBRANCH  10  11
ENDBRANCH   1  10
TORSDOF 10
ENDMDL
MODEL 6
REMARK VINA RESULT:      -4.3      2.997      5.468
REMARK  Name = 
REMARK  12 active torsions:
REMARK  status: ('A' for Active; 'I' for Inactive)
REMARK    1  A    between atoms: C_1  and  C_2
REMARK    2  A    between atoms: C_2  and  O_3
REMARK    3  A    between atoms: O_3  and  P_4
REMARK    4  A    between atoms: P_4  and  O_6
REMARK    5  A    between atoms: P_4  and  O_9
REMARK    6  A    between atoms: O_6  and  C_7
REMARK    7  A    between atoms: C_7  and  C_8
REMARK    8  A    between atoms: O_9  and  C_10
REMARK    9  A    between atoms: C_10  and  C_11
REMARK   10  A    between atoms: C_11  and  N_13
REMARK   11  A    between atoms: C_11  and  C_14
REMARK   12  A    between atoms: C_14  and  O_15
REMARK                            x       y       z     vdW  Elec       q    Type
REMARK                         _______ _______ _______ _____ _____    ______ ____
ROOT
ATOM      1  O   UNK     1       8.253  -0.616  22.455  0.00  0.00    -0.284 OA
ENDROOT
BRANCH   1   2
ATOM      2  P   UNK     1       7.948  -2.316  22.538  0.00  0.00    +0.478 P 
ATOM      3  O   UNK     1       6.617  -2.010  23.225  0.00  0.00    -0.227 OA
BRANCH   2   4
ATOM      4  O   UNK     1       7.643  -4.017  22.620  0.00  0.00    -0.287 OA
BRANCH   4   6
ATOM      5  C   UNK     1       6.624  -5.810  21.398  0.00  0.00    +0.035 C 
ATOM      6  C   UNK     1       6.478  -4.389  21.895  0.00  0.00    +0.169 C 
ENDBRANCH   4   6
ENDBRANCH   2   4
BRANCH   2   7
ATOM      7  O   UNK     1       9.113  -2.464  23.693  0.00  0.00    -0.287 OA
BRANCH   7   8
ATOM      8  C   UNK     1       8.980  -3.525  24.625  0.00  0.00    +0.169 C 
ATOM      9  C   UNK     1       8.541  -2.968  25.963  0.00  0.00    +0.035 C 
ENDBRANCH   7   8
ENDBRANCH   2   7
ENDBRANCH   1   2
BRANCH   1  10
ATOM     10  C   UNK     1       9.418  -0.333  21.684  0.00  0.00    +0.202 C 
BRANCH  10  11
ATOM     11  C   UNK     1      10.077   0.950  22.179  0.00  0.00    +0.187 C 
BRANCH  11  12
ATOM     12  N   UNK     1       9.394   2.097  21.536  0.00  0.00    -0.317 NA
ATOM     13  H   UNK     1       8.540   1.739  21.090  0.00  0.00    +0.119 HD
ATOM     14  H   UNK     1       9.090   2.765  22.240  0.00  0.00    +0.119 HD
ENDBRANCH  11  12
BRANCH  11  15
ATOM     15  C   UNK     1      10.000   1.087  23.713  0.00  0.00    +0.324 C 
ATOM     16  O   UNK     1       9.693   2.135  24.276  0.00  0.00    -0.249 OA
BRANCH  15  17
ATOM     17  O   UNK     1      10.385  -0.004  24.409  0.00  0.00    -0.479 OA
ATOM     18  H   UNK     1       9.699  -0.709  24.484  0.00  0.00    +0.295 HD
ENDBRANCH  15  17
ENDBRANCH  11  15
ENDBRANCH  10  11
ENDBRANCH   1  10
TORSDOF 10
ENDMDL
MODEL 7
REMARK VINA RESULT:      -4.2      2.554      3.755
REMARK  Name = 
REMARK  12 active torsions:
REMARK  status: ('A' for Active; 'I' for Inactive)
REMARK    1  A    between atoms: C_1  and  C_2
REMARK    2  A    between atoms: C_2  and  O_3
REMARK    3  A    between atoms: O_3  and  P_4
REMARK    4  A    between atoms: P_4  and  O_6
REMARK    5  A    between atoms: P_4  and  O_9
REMARK    6  A    between atoms: O_6  and  C_7
REMARK    7  A    between atoms: C_7  and  C_8
REMARK    8  A    between atoms: O_9  and  C_10
REMARK    9  A    between atoms: C_10  and  C_11
REMARK   10  A    between atoms: C_11  and  N_13
REMARK   11  A    between atoms: C_11  and  C_14
REMARK   12  A    between atoms: C_14  and  O_15
REMARK                            x       y       z     vdW  Elec       q    Type
REMARK                         _______ _______ _______ _____ _____    ______ ____
ROOT
ATOM      1  O   UNK     1       8.151  -2.916  22.342  0.00  0.00    -0.284 OA
ENDROOT
BRANCH   1   2
ATOM      2  P   UNK     1       9.252  -1.970  23.284  0.00  0.00    +0.478 P 
ATOM      3  O   UNK     1      10.060  -1.706  22.012  0.00  0.00    -0.227 OA
BRANCH   2   4
ATOM      4  O   UNK     1      10.353  -1.025  24.226  0.00  0.00    -0.287 OA
BRANCH   4   6
ATOM      5  C   UNK     1      10.662   1.352  24.187  0.00  0.00    +0.035 C 
ATOM      6  C   UNK     1       9.781   0.209  24.640  0.00  0.00    +0.169 C 
ENDBRANCH   4   6
ENDBRANCH   2   4
BRANCH   2   7
ATOM      7  O   UNK     1       9.819  -3.345  23.991  0.00  0.00    -0.287 OA
BRANCH   7   8
ATOM      8  C   UNK     1       9.170  -3.791  25.171  0.00  0.00    +0.169 C 
ATOM      9  C   UNK     1       9.454  -5.265  25.376  0.00  0.00    +0.035 C 
ENDBRANCH   7   8
ENDBRANCH   2   7
ENDBRANCH   1   2
BRANCH   1  10
ATOM     10  C   UNK     1       6.799  -2.535  22.584  0.00  0.00    +0.202 C 
BRANCH  10  11
ATOM     11  C   UNK     1       5.875  -3.734  22.402  0.00  0.00    +0.187 C 
BRANCH  11  12
ATOM     12  N   UNK     1       5.696  -3.960  20.948  0.00  0.00    -0.317 NA
ATOM     13  H   UNK     1       6.630  -4.048  20.531  0.00  0.00    +0.119 HD
ATOM     14  H   UNK     1       5.227  -4.848  20.786  0.00  0.00    +0.119 HD
ENDBRANCH  11  12
BRANCH  11  15
ATOM     15  C   UNK     1       6.438  -5.007  23.065  0.00  0.00    +0.324 C 
ATOM     16  O   UNK     1       6.089  -5.390  24.179  0.00  0.00    -0.249 OA
BRANCH  15  17
ATOM     17  O   UNK     1       7.417  -5.631  22.376  0.00  0.00    -0.479 OA
ATOM     18  H   UNK     1       7.875  -5.067  21.708  0.00  0.00    +0.295 HD
ENDBRANCH  15  17
ENDBRANCH  11  15
ENDBRANCH  10  11
ENDBRANCH   1  10
TORSDOF 10
ENDMDL
MODEL 8
REMARK VINA RESULT:      -4.1      2.388      5.437
REMARK  Name = 
REMARK  12 active torsions:
REMARK  status: ('A' for Active; 'I' for Inactive)
REMARK    1  A    between atoms: C_1  and  C_2
REMARK    2  A    between atoms: C_2  and  O_3
REMARK    3  A    between atoms: O_3  and  P_4
REMARK    4  A    between atoms: P_4  and  O_6
REMARK    5  A    between atoms: P_4  and  O_9
REMARK    6  A    between atoms: O_6  and  C_7
REMARK    7  A    between atoms: C_7  and  C_8
REMARK    8  A    between atoms: O_9  and  C_10
REMARK    9  A    between atoms: C_10  and  C_11
REMARK   10  A    between atoms: C_11  and  N_13
REMARK   11  A    between atoms: C_11  and  C_14
REMARK   12  A    between atoms: C_14  and  O_15
REMARK                            x       y       z     vdW  Elec       q    Type
REMARK                         _______ _______ _______ _____ _____    ______ ____
ROOT
ATOM      1  O   UNK     1       9.764  -1.641  24.545  0.00  0.00    -0.284 OA
ENDROOT
BRANCH   1   2
ATOM      2  P   UNK     1       9.146  -3.209  24.155  0.00  0.00    +0.478 P 
ATOM      3  O   UNK     1       8.129  -2.540  23.229  0.00  0.00    -0.227 OA
BRANCH   2   4
ATOM      4  O   UNK     1       8.528  -4.777  23.765  0.00  0.00    -0.287 OA
BRANCH   4   6
ATOM      5  C   UNK     1       7.291  -5.991  22.109  0.00  0.00    +0.035 C 
ATOM      6  C   UNK     1       7.398  -4.709  22.906  0.00  0.00    +0.169 C 
ENDBRANCH   4   6
ENDBRANCH   2   4
BRANCH   2   7
ATOM      7  O   UNK     1       8.491  -3.320  25.662  0.00  0.00    -0.287 OA
BRANCH   7   8
ATOM      8  C   UNK     1       8.799  -4.474  26.426  0.00  0.00    +0.169 C 
ATOM      9  C   UNK     1       7.527  -5.032  27.031  0.00  0.00    +0.035 C 
ENDBRANCH   7   8
ENDBRANCH   2   7
ENDBRANCH   1   2
BRANCH   1  10
ATOM     10  C   UNK     1       8.785  -0.628  24.333  0.00  0.00    +0.202 C 
BRANCH  10  11
ATOM     11  C   UNK     1       9.463   0.697  24.000  0.00  0.00    +0.187 C 
BRANCH  11  12
ATOM     12  N   UNK     1      10.616   0.867  24.915  0.00  0.00    -0.317 NA
ATOM     13  H   UNK     1      10.622   1.844  25.229  0.00  0.00    +0.119 HD
ATOM     14  H   UNK     1      10.489   0.300  25.750  0.00  0.00    +0.119 HD
ENDBRANCH  11  12
BRANCH  11  15
ATOM     15  C   UNK     1       9.943   0.751  22.536  0.00  0.00    +0.324 C 
ATOM     16  O   UNK     1      10.204   1.802  21.957  0.00  0.00    -0.249 OA
BRANCH  15  17
ATOM     17  O   UNK     1       9.969  -0.436  21.894  0.00  0.00    -0.479 OA
ATOM     18  H   UNK     1      10.004  -0.373  20.910  0.00  0.00    +0.295 HD
ENDBRANCH  15  17
ENDBRANCH  11  15
ENDBRANCH  10  11
ENDBRANCH   1  10
TORSDOF 10
ENDMDL
MODEL 9
REMARK VINA RESULT:      -4.1      3.170      5.807
REMARK  Name = 
REMARK  12 active torsions:
REMARK  status: ('A' for Active; 'I' for Inactive)
REMARK    1  A    between atoms: C_1  and  C_2
REMARK    2  A    between atoms: C_2  and  O_3
REMARK    3  A    between atoms: O_3  and  P_4
REMARK    4  A    between atoms: P_4  and  O_6
REMARK    5  A    between atoms: P_4  and  O_9
REMARK    6  A    between atoms: O_6  and  C_7
REMARK    7  A    between atoms: C_7  and  C_8
REMARK    8  A    between atoms: O_9  and  C_10
REMARK    9  A    between atoms: C_10  and  C_11
REMARK   10  A    between atoms: C_11  and  N_13
REMARK   11  A    between atoms: C_11  and  C_14
REMARK   12  A    between atoms: C_14  and  O_15
REMARK                            x       y       z     vdW  Elec       q    Type
REMARK                         _______ _______ _______ _____ _____    ______ ____
ROOT
ATOM      1  O   UNK     1       9.620   0.874  24.637  0.00  0.00    -0.284 OA
ENDROOT
BRANCH   1   2
ATOM      2  P   UNK     1       9.369  -0.712  23.992  0.00  0.00    +0.478 P 
ATOM      3  O   UNK     1      10.701  -0.583  23.250  0.00  0.00    -0.227 OA
BRANCH   2   4
ATOM      4  O   UNK     1       9.119  -2.298  23.348  0.00  0.00    -0.287 OA
BRANCH   4   6
ATOM      5  C   UNK     1       8.263  -4.357  24.226  0.00  0.00    +0.035 C 
ATOM      6  C   UNK     1       9.354  -3.312  24.316  0.00  0.00    +0.169 C 
ENDBRANCH   4   6
ENDBRANCH   2   4
BRANCH   2   7
ATOM      7  O   UNK     1       8.171  -0.125  23.027  0.00  0.00    -0.287 OA
BRANCH   7   8
ATOM      8  C   UNK     1       6.913  -0.779  23.073  0.00  0.00    +0.169 C 
ATOM      9  C   UNK     1       6.240  -0.482  24.397  0.00  0.00    +0.035 C 
ENDBRANCH   7   8
ENDBRANCH   2   7
ENDBRANCH   1   2
BRANCH   1  10
ATOM     10  C   UNK     1      10.751   1.504  24.042  0.00  0.00    +0.202 C 
BRANCH  10  11
ATOM     11  C   UNK     1      10.306   2.690  23.193  0.00  0.00    +0.187 C 
BRANCH  11  12
ATOM     12  N   UNK     1      10.088   2.208  21.808  0.00  0.00    -0.317 NA
ATOM     13  H   UNK     1       9.097   1.955  21.719  0.00  0.00    +0.119 HD
ATOM     14  H   UNK     1      10.252   2.961  21.144  0.00  0.00    +0.119 HD
ENDBRANCH  11  12
BRANCH  11  15
ATOM     15  C   UNK     1       9.014   3.337  23.731  0.00  0.00    +0.324 C 
ATOM     16  O   UNK     1       9.015   4.230  24.574  0.00  0.00    -0.249 OA
BRANCH  15  17
ATOM     17  O   UNK     1       7.865   2.791  23.280  0.00  0.00    -0.479 OA
ATOM     18  H   UNK     1       7.861   1.805  23.248  0.00  0.00    +0.295 HD
ENDBRANCH  15  17
ENDBRANCH  11  15
ENDBRANCH  10  11
ENDBRANCH   1  10
TORSDOF 10
ENDMDL
