MODEL 1
REMARK VINA RESULT:      -4.2      0.000      0.000
REMARK  Name = 
REMARK  12 active torsions:
REMARK  status: ('A' for Active; 'I' for Inactive)
REMARK    1  A    between atoms: O_1  and  C_2
REMARK    2  A    between atoms: C_2  and  C_3
REMARK    3  A    between atoms: C_3  and  C_4
REMARK    4  A    between atoms: C_4  and  C_5
REMARK    5  A    between atoms: C_5  and  C_6
REMARK    6  A    between atoms: C_6  and  C_7
REMARK    7  A    between atoms: C_7  and  C_8
REMARK    8  A    between atoms: C_8  and  C_9
REMARK    9  A    between atoms: C_9  and  C_10
REMARK   10  A    between atoms: C_10  and  C_11
REMARK   11  A    between atoms: C_11  and  C_12
REMARK   12  A    between atoms: C_12  and  C_13
REMARK                            x       y       z     vdW  Elec       q    Type
REMARK                         _______ _______ _______ _____ _____    ______ ____
ROOT
ATOM      1  C   UNL     1       9.763   1.790  21.828  0.00  0.00    +0.000 C 
ENDROOT
BRANCH   1   2
ATOM      2  C   UNL     1      10.288   2.138  23.222  0.00  0.00    +0.000 C 
BRANCH   2   3
ATOM      3  C   UNL     1       9.615   3.397  23.766  0.00  0.00    +0.000 C 
BRANCH   3   4
ATOM      4  C   UNL     1      10.527   4.616  23.621  0.00  0.00    +0.002 C 
BRANCH   4   5
ATOM      5  C   UNL     1      11.977   4.198  23.388  0.00  0.00    +0.028 C 
BRANCH   5   6
ATOM      6  C   UNL     1      12.821   5.365  22.898  0.00  0.00    +0.156 C 
BRANCH   6   7
ATOM      7  O   UNL     1      14.190   5.076  23.147  0.00  0.00    -0.395 OA
ATOM      8  H   UNL     1      14.358   4.180  22.810  0.00  0.00    +0.209 HD
ENDBRANCH   6   7
ENDBRANCH   5   6
ENDBRANCH   4   5
ENDBRANCH   3   4
ENDBRANCH   2   3
ENDBRANCH   1   2
BRANCH   1   9
ATOM      9  C   UNL     1       9.565   0.282  21.675  0.00  0.00    +0.000 C 
BRANCH   9  10
ATOM     10  C   UNL     1      10.349  -0.488  22.736  0.00  0.00    +0.000 C 
BRANCH  10  11
ATOM     11  C   UNL     1       9.749  -1.874  22.970  0.00  0.00    +0.000 C 
BRANCH  11  12
ATOM     12  C   UNL     1       9.453  -2.103  24.451  0.00  0.00    +0.001 C 
BRANCH  12  13
ATOM     13  C   UNL     1       8.811  -0.871  25.087  0.00  0.00    +0.011 C 
BRANCH  13  14
ATOM     14  C   UNL     1       7.305  -0.880  24.884  0.00  0.00    +0.080 C 
ATOM     15 BR   UNL     1       6.725   0.841  24.185  0.00  0.00    -0.092 Br
ENDBRANCH  13  14
ENDBRANCH  12  13
ENDBRANCH  11  12
ENDBRANCH  10  11
ENDBRANCH   9  10
ENDBRANCH   1   9
TORSDOF 12
ENDMDL
MODEL 2
REMARK VINA RESULT:      -4.2      1.931      3.019
REMARK  Name = 
REMARK  12 active torsions:
REMARK  status: ('A' for Active; 'I' for Inactive)
REMARK    1  A    between atoms: O_1  and  C_2
REMARK    2  A    between atoms: C_2  and  C_3
REMARK    3  A    between atoms: C_3  and  C_4
REMARK    4  A    between atoms: C_4  and  C_5
REMARK    5  A    between atoms: C_5  and  C_6
REMARK    6  A    between atoms: C_6  and  C_7
REMARK    7  A    between atoms: C_7  and  C_8
REMARK    8  A    between atoms: C_8  and  C_9
REMARK    9  A    between atoms: C_9  and  C_10
REMARK   10  A    between atoms: C_10  and  C_11
REMARK   11  A    between atoms: C_11  and  C_12
REMARK   12  A    between atoms: C_12  and  C_13
REMARK                            x       y       z     vdW  Elec       q    Type
REMARK                         _______ _______ _______ _____ _____    ______ ____
ROOT
ATOM      1  C   UNL     1       7.675   4.223  22.398  0.00  0.00    +0.000 C 
ENDROOT
BRANCH   1   2
ATOM      2  C   UNL     1       8.111   5.032  23.619  0.00  0.00    +0.000 C 
BRANCH   2   3
ATOM      3  C   UNL     1       9.449   4.534  24.163  0.00  0.00    +0.000 C 
BRANCH   3   4
ATOM      4  C   UNL     1      10.597   5.439  23.716  0.00  0.00    +0.002 C 
BRANCH   4   5
ATOM      5  C   UNL     1      11.857   4.630  23.420  0.00  0.00    +0.028 C 
BRANCH   5   6
ATOM      6  C   UNL     1      12.916   5.479  22.732  0.00  0.00    +0.156 C 
BRANCH   6   7
ATOM      7  O   UNL     1      14.200   5.035  23.147  0.00  0.00    -0.395 OA
ATOM      8  H   UNL     1      14.822   5.762  22.976  0.00  0.00    +0.209 HD
ENDBRANCH   6   7
ENDBRANCH   5   6
ENDBRANCH   4   5
ENDBRANCH   3   4
ENDBRANCH   2   3
ENDBRANCH   1   2
BRANCH   1   9
ATOM      9  C   UNL     1       6.766   3.062  22.801  0.00  0.00    +0.000 C 
BRANCH   9  10
ATOM     10  C   UNL     1       7.469   1.719  22.611  0.00  0.00    +0.000 C 
BRANCH  10  11
ATOM     11  C   UNL     1       8.569   1.814  21.556  0.00  0.00    +0.000 C 
BRANCH  11  12
ATOM     12  C   UNL     1       9.871   1.192  22.060  0.00  0.00    +0.001 C 
BRANCH  12  13
ATOM     13  C   UNL     1       9.888   1.098  23.585  0.00  0.00    +0.011 C 
BRANCH  13  14
ATOM     14  C   UNL     1      10.614  -0.155  24.043  0.00  0.00    +0.080 C 
ATOM     15 BR   UNL     1       9.943  -1.699  23.068  0.00  0.00    -0.092 Br
ENDBRANCH  13  14
ENDBRANCH  12  13
ENDBRANCH  11  12
ENDBRANCH  10  11
ENDBRANCH   9  10
ENDBRANCH   1   9
TORSDOF 12
ENDMDL
MODEL 3
REMARK VINA RESULT:      -4.1      4.380      7.128
REMARK  Name = 
REMARK  12 active torsions:
REMARK  status: ('A' for Active; 'I' for Inactive)
REMARK    1  A    between atoms: O_1  and  C_2
REMARK    2  A    between atoms: C_2  and  C_3
REMARK    3  A    between atoms: C_3  and  C_4
REMARK    4  A    between atoms: C_4  and  C_5
REMARK    5  A    between atoms: C_5  and  C_6
REMARK    6  A    between atoms: C_6  and  C_7
REMARK    7  A    between atoms: C_7  and  C_8
REMARK    8  A    between atoms: C_8  and  C_9
REMARK    9  A    between atoms: C_9  and  C_10
REMARK   10  A    between atoms: C_10  and  C_11
REMARK   11  A    between atoms: C_11  and  C_12
REMARK   12  A    between atoms: C_12  and  C_13
REMARK                            x       y       z     vdW  Elec       q    Type
REMARK                         _______ _______ _______ _____ _____    ______ ____
ROOT
ATOM      1  C   UNL     1       7.611  -2.016  22.639  0.00  0.00    +0.000 C 
ENDROOT
BRANCH   1   2
ATOM      2  C   UNL     1       7.043  -3.390  22.281  0.00  0.00    +0.000 C 
BRANCH   2   3
ATOM      3  C   UNL     1       6.802  -4.231  23.534  0.00  0.00    +0.000 C 
BRANCH   3   4
ATOM      4  C   UNL     1       8.024  -5.086  23.867  0.00  0.00    +0.002 C 
BRANCH   4   5
ATOM      5  C   UNL     1       8.446  -4.907  25.323  0.00  0.00    +0.028 C 
BRANCH   5   6
ATOM      6  C   UNL     1       7.355  -5.360  26.281  0.00  0.00    +0.156 C 
BRANCH   6   7
ATOM      7  O   UNL     1       7.962  -5.848  27.469  0.00  0.00    -0.395 OA
ATOM      8  H   UNL     1       8.901  -6.000  27.268  0.00  0.00    +0.209 HD
ENDBRANCH   6   7
ENDBRANCH   5   6
ENDBRANCH   4   5
ENDBRANCH   3   4
ENDBRANCH   2   3
ENDBRANCH   1   2
BRANCH   1   9
ATOM      9  C   UNL     1       9.027  -1.846  22.090  0.00  0.00    +0.000 C 
BRANCH   9  10
ATOM     10  C   UNL     1      10.070  -1.984  23.199  0.00  0.00    +0.000 C 
BRANCH  10  11
ATOM     11  C   UNL     1       9.563  -1.391  24.513  0.00  0.00    +0.000 C 
BRANCH  11  12
ATOM     12  C   UNL     1      10.202  -0.030  24.785  0.00  0.00    +0.001 C 
BRANCH  12  13
ATOM     13  C   UNL     1       9.152   1.080  24.822  0.00  0.00    +0.011 C 
BRANCH  13  14
ATOM     14  C   UNL     1       9.624   2.298  24.048  0.00  0.00    +0.080 C 
ATOM     15 BR   UNL     1       9.970   1.809  22.196  0.00  0.00    -0.092 Br
ENDBRANCH  13  14
ENDBRANCH  12  13
ENDBRANCH  11  12
ENDBRANCH  10  11
ENDBRANCH   9  10
ENDBRANCH   1   9
TORSDOF 12
ENDMDL
MODEL 4
REMARK VINA RESULT:      -4.0      3.784      6.776
REMARK  Name = 
REMARK  12 active torsions:
REMARK  status: ('A' for Active; 'I' for Inactive)
REMARK    1  A    between atoms: O_1  and  C_2
REMARK    2  A    between atoms: C_2  and  C_3
REMARK    3  A    between atoms: C_3  and  C_4
REMARK    4  A    between atoms: C_4  and  C_5
REMARK    5  A    between atoms: C_5  and  C_6
REMARK    6  A    between atoms: C_6  and  C_7
REMARK    7  A    between atoms: C_7  and  C_8
REMARK    8  A    between atoms: C_8  and  C_9
REMARK    9  A    between atoms: C_9  and  C_10
REMARK   10  A    between atoms: C_10  and  C_11
REMARK   11  A    between atoms: C_11  and  C_12
REMARK   12  A    between atoms: C_12  and  C_13
REMARK                            x       y       z     vdW  Elec       q    Type
REMARK                         _______ _______ _______ _____ _____    ______ ____
ROOT
ATOM      1  C   UNL     1       8.032  -1.562  23.601  0.00  0.00    +0.000 C 
ENDROOT
BRANCH   1   2
ATOM      2  C   UNL     1       7.192  -2.820  23.826  0.00  0.00    +0.000 C 
BRANCH   2   3
ATOM      3  C   UNL     1       7.697  -3.980  22.969  0.00  0.00    +0.000 C 
BRANCH   3   4
ATOM      4  C   UNL     1       8.038  -5.195  23.833  0.00  0.00    +0.002 C 
BRANCH   4   5
ATOM      5  C   UNL     1       7.948  -4.861  25.320  0.00  0.00    +0.028 C 
BRANCH   5   6
ATOM      6  C   UNL     1       9.323  -4.820  25.968  0.00  0.00    +0.156 C 
BRANCH   6   7
ATOM      7  O   UNL     1      10.284  -5.295  25.035  0.00  0.00    -0.395 OA
ATOM      8  H   UNL     1      10.833  -4.534  24.778  0.00  0.00    +0.209 HD
ENDBRANCH   6   7
ENDBRANCH   5   6
ENDBRANCH   4   5
ENDBRANCH   3   4
ENDBRANCH   2   3
ENDBRANCH   1   2
BRANCH   1   9
ATOM      9  C   UNL     1       9.525  -1.871  23.703  0.00  0.00    +0.000 C 
BRANCH   9  10
ATOM     10  C   UNL     1      10.286  -1.327  22.495  0.00  0.00    +0.000 C 
BRANCH  10  11
ATOM     11  C   UNL     1       9.361  -0.540  21.567  0.00  0.00    +0.000 C 
BRANCH  11  12
ATOM     12  C   UNL     1       9.629   0.961  21.665  0.00  0.00    +0.001 C 
BRANCH  12  13
ATOM     13  C   UNL     1       8.326   1.758  21.700  0.00  0.00    +0.011 C 
BRANCH  13  14
ATOM     14  C   UNL     1       8.365   2.813  22.792  0.00  0.00    +0.080 C 
ATOM     15 BR   UNL     1       9.179   2.070  24.396  0.00  0.00    -0.092 Br
ENDBRANCH  13  14
ENDBRANCH  12  13
ENDBRANCH  11  12
ENDBRANCH  10  11
ENDBRANCH   9  10
ENDBRANCH   1   9
TORSDOF 12
ENDMDL
MODEL 5
REMARK VINA RESULT:      -4.0      4.668      7.431
REMARK  Name = 
REMARK  12 active torsions:
REMARK  status: ('A' for Active; 'I' for Inactive)
REMARK    1  A    between atoms: O_1  and  C_2
REMARK    2  A    between atoms: C_2  and  C_3
REMARK    3  A    between atoms: C_3  and  C_4
REMARK    4  A    between atoms: C_4  and  C_5
REMARK    5  A    between atoms: C_5  and  C_6
REMARK    6  A    between atoms: C_6  and  C_7
REMARK    7  A    between atoms: C_7  and  C_8
REMARK    8  A    between atoms: C_8  and  C_9
REMARK    9  A    between atoms: C_9  and  C_10
REMARK   10  A    between atoms: C_10  and  C_11
REMARK   11  A    between atoms: C_11  and  C_12
REMARK   12  A    between atoms: C_12  and  C_13
REMARK                            x       y       z     vdW  Elec       q    Type
REMARK                         _______ _______ _______ _____ _____    ______ ____
ROOT
ATOM      1  C   UNL     1       8.544  -1.846  24.174  0.00  0.00    +0.000 C 
ENDROOT
BRANCH   1   2
ATOM      2  C   UNL     1       7.526  -2.985  24.218  0.00  0.00    +0.000 C 
BRANCH   2   3
ATOM      3  C   UNL     1       8.221  -4.342  24.330  0.00  0.00    +0.000 C 
BRANCH   3   4
ATOM      4  C   UNL     1       7.640  -5.343  23.332  0.00  0.00    +0.002 C 
BRANCH   4   5
ATOM      5  C   UNL     1       7.116  -4.640  22.082  0.00  0.00    +0.028 C 
BRANCH   5   6
ATOM      6  C   UNL     1       6.392  -5.607  21.159  0.00  0.00    +0.156 C 
BRANCH   6   7
ATOM      7  O   UNL     1       5.893  -6.691  21.931  0.00  0.00    -0.395 OA
ATOM      8  H   UNL     1       6.361  -6.673  22.783  0.00  0.00    +0.209 HD
ENDBRANCH   6   7
ENDBRANCH   5   6
ENDBRANCH   4   5
ENDBRANCH   3   4
ENDBRANCH   2   3
ENDBRANCH   1   2
BRANCH   1   9
ATOM      9  C   UNL     1       9.900  -2.338  23.669  0.00  0.00    +0.000 C 
BRANCH   9  10
ATOM     10  C   UNL     1      10.432  -1.442  22.551  0.00  0.00    +0.000 C 
BRANCH  10  11
ATOM     11  C   UNL     1       9.298  -0.939  21.659  0.00  0.00    +0.000 C 
BRANCH  11  12
ATOM     12  C   UNL     1       9.372   0.577  21.476  0.00  0.00    +0.001 C 
BRANCH  12  13
ATOM     13  C   UNL     1       8.151   1.270  22.078  0.00  0.00    +0.011 C 
BRANCH  13  14
ATOM     14  C   UNL     1       8.472   1.840  23.449  0.00  0.00    +0.080 C 
ATOM     15 BR   UNL     1      10.362   2.297  23.546  0.00  0.00    -0.092 Br
ENDBRANCH  13  14
ENDBRANCH  12  13
ENDBRANCH  11  12
ENDBRANCH  10  11
ENDBRANCH   9  10
ENDBRANCH   1   9
TORSDOF 12
ENDMDL
MODEL 6
REMARK VINA RESULT:      -4.0      3.363      4.245
REMARK  Name = 
REMARK  12 active torsions:
REMARK  status: ('A' for Active; 'I' for Inactive)
REMARK    1  A    between atoms: O_1  and  C_2
REMARK    2  A    between atoms: C_2  and  C_3
REMARK    3  A    between atoms: C_3  and  C_4
REMARK    4  A    between atoms: C_4  and  C_5
REMARK    5  A    between atoms: C_5  and  C_6
REMARK    6  A    between atoms: C_6  and  C_7
REMARK    7  A    between atoms: C_7  and  C_8
REMARK    8  A    between atoms: C_8  and  C_9
REMARK    9  A    between atoms: C_9  and  C_10
REMARK   10  A    between atoms: C_10  and  C_11
REMARK   11  A    between atoms: C_11  and  C_12
REMARK   12  A    between atoms: C_12  and  C_13
REMARK                            x       y       z     vdW  Elec       q    Type
REMARK                         _______ _______ _______ _____ _____    ______ ____
ROOT
ATOM      1  C   UNL     1       9.093  -0.990  24.571  0.00  0.00    +0.000 C 
ENDROOT
BRANCH   1   2
ATOM      2  C   UNL     1       9.947   0.037  25.315  0.00  0.00    +0.000 C 
BRANCH   2   3
ATOM      3  C   UNL     1      10.941   0.715  24.374  0.00  0.00    +0.000 C 
BRANCH   3   4
ATOM      4  C   UNL     1      10.397   2.050  23.865  0.00  0.00    +0.002 C 
BRANCH   4   5
ATOM      5  C   UNL     1      10.191   2.025  22.353  0.00  0.00    +0.028 C 
BRANCH   5   6
ATOM      6  C   UNL     1       8.726   1.830  21.992  0.00  0.00    +0.156 C 
BRANCH   6   7
ATOM      7  O   UNL     1       8.647   1.234  20.705  0.00  0.00    -0.395 OA
ATOM      8  H   UNL     1       8.567   1.957  20.060  0.00  0.00    +0.209 HD
ENDBRANCH   6   7
ENDBRANCH   5   6
ENDBRANCH   4   5
ENDBRANCH   3   4
ENDBRANCH   2   3
ENDBRANCH   1   2
BRANCH   1   9
ATOM      9  C   UNL     1       9.850  -1.575  23.379  0.00  0.00    +0.000 C 
BRANCH   9  10
ATOM     10  C   UNL     1       8.887  -2.049  22.292  0.00  0.00    +0.000 C 
BRANCH  10  11
ATOM     11  C   UNL     1       7.438  -1.732  22.660  0.00  0.00    +0.000 C 
BRANCH  11  12
ATOM     12  C   UNL     1       6.610  -3.011  22.784  0.00  0.00    +0.001 C 
BRANCH  12  13
ATOM     13  C   UNL     1       7.463  -4.180  23.275  0.00  0.00    +0.011 C 
BRANCH  13  14
ATOM     14  C   UNL     1       6.761  -5.504  23.029  0.00  0.00    +0.080 C 
ATOM     15 BR   UNL     1       6.286  -5.657  21.148  0.00  0.00    -0.092 Br
ENDBRANCH  13  14
ENDBRANCH  12  13
ENDBRANCH  11  12
ENDBRANCH  10  11
ENDBRANCH   9  10
ENDBRANCH   1   9
TORSDOF 12
ENDMDL
MODEL 7
REMARK VINA RESULT:      -4.0      4.188      6.927
REMARK  Name = 
REMARK  12 active torsions:
REMARK  status: ('A' for Active; 'I' for Inactive)
REMARK    1  A    between atoms: O_1  and  C_2
REMARK    2  A    between atoms: C_2  and  C_3
REMARK    3  A    between atoms: C_3  and  C_4
REMARK    4  A    between atoms: C_4  and  C_5
REMARK    5  A    between atoms: C_5  and  C_6
REMARK    6  A    between atoms: C_6  and  C_7
REMARK    7  A    between atoms: C_7  and  C_8
REMARK    8  A    between atoms: C_8  and  C_9
REMARK    9  A    between atoms: C_9  and  C_10
REMARK   10  A    between atoms: C_10  and  C_11
REMARK   11  A    between atoms: C_11  and  C_12
REMARK   12  A    between atoms: C_12  and  C_13
REMARK                            x       y       z     vdW  Elec       q    Type
REMARK                         _______ _______ _______ _____ _____    ______ ____
ROOT
ATOM      1  C   UNL     1       9.643  -1.640  23.797  0.00  0.00    +0.000 C 
ENDROOT
BRANCH   1   2
ATOM      2  C   UNL     1       8.177  -2.075  23.810  0.00  0.00    +0.000 C 
BRANCH   2   3
ATOM      3  C   UNL     1       8.017  -3.455  24.447  0.00  0.00    +0.000 C 
BRANCH   3   4
ATOM      4  C   UNL     1       9.377  -4.067  24.784  0.00  0.00    +0.002 C 
BRANCH   4   5
ATOM      5  C   UNL     1       9.322  -4.853  26.091  0.00  0.00    +0.028 C 
BRANCH   5   6
ATOM      6  C   UNL     1       7.932  -4.816  26.707  0.00  0.00    +0.156 C 
BRANCH   6   7
ATOM      7  O   UNL     1       7.797  -5.914  27.598  0.00  0.00    -0.395 OA
ATOM      8  H   UNL     1       7.501  -6.675  27.070  0.00  0.00    +0.209 HD
ENDBRANCH   6   7
ENDBRANCH   5   6
ENDBRANCH   4   5
ENDBRANCH   3   4
ENDBRANCH   2   3
ENDBRANCH   1   2
BRANCH   1   9
ATOM      9  C   UNL     1       9.889  -0.502  24.787  0.00  0.00    +0.000 C 
BRANCH   9  10
ATOM     10  C   UNL     1      10.825   0.551  24.197  0.00  0.00    +0.000 C 
BRANCH  10  11
ATOM     11  C   UNL     1      10.039   1.724  23.612  0.00  0.00    +0.000 C 
BRANCH  11  12
ATOM     12  C   UNL     1      10.055   1.690  22.084  0.00  0.00    +0.001 C 
BRANCH  12  13
ATOM     13  C   UNL     1       8.718   1.202  21.526  0.00  0.00    +0.011 C 
BRANCH  13  14
ATOM     14  C   UNL     1       7.590   1.472  22.506  0.00  0.00    +0.080 C 
ATOM     15 BR   UNL     1       6.819   3.224  22.157  0.00  0.00    -0.092 Br
ENDBRANCH  13  14
ENDBRANCH  12  13
ENDBRANCH  11  12
ENDBRANCH  10  11
ENDBRANCH   9  10
ENDBRANCH   1   9
TORSDOF 12
ENDMDL
MODEL 8
REMARK VINA RESULT:      -4.0      3.591      4.555
REMARK  Name = 
REMARK  12 active torsions:
REMARK  status: ('A' for Active; 'I' for Inactive)
REMARK    1  A    between atoms: O_1  and  C_2
REMARK    2  A    between atoms: C_2  and  C_3
REMARK    3  A    between atoms: C_3  and  C_4
REMARK    4  A    between atoms: C_4  and  C_5
REMARK    5  A    between atoms: C_5  and  C_6
REMARK    6  A    between atoms: C_6  and  C_7
REMARK    7  A    between atoms: C_7  and  C_8
REMARK    8  A    between atoms: C_8  and  C_9
REMARK    9  A    between atoms: C_9  and  C_10
REMARK   10  A    between atoms: C_10  and  C_11
REMARK   11  A    between atoms: C_11  and  C_12
REMARK   12  A    between atoms: C_12  and  C_13
REMARK                            x       y       z     vdW  Elec       q    Type
REMARK                         _______ _______ _______ _____ _____    ______ ____
ROOT
ATOM      1  C   UNL     1      10.759   0.509  24.201  0.00  0.00    +0.000 C 
ENDROOT
BRANCH   1   2
ATOM      2  C   UNL     1      10.361   1.833  23.548  0.00  0.00    +0.000 C 
BRANCH   2   3
ATOM      3  C   UNL     1      10.163   1.667  22.042  0.00  0.00    +0.000 C 
BRANCH   3   4
ATOM      4  C   UNL     1       8.699   1.380  21.708  0.00  0.00    +0.002 C 
BRANCH   4   5
ATOM      5  C   UNL     1       7.759   2.094  22.676  0.00  0.00    +0.028 C 
BRANCH   5   6
ATOM      6  C   UNL     1       6.692   1.152  23.215  0.00  0.00    +0.156 C 
BRANCH   6   7
ATOM      7  O   UNL     1       5.416   1.743  23.015  0.00  0.00    -0.395 OA
ATOM      8  H   UNL     1       5.389   2.061  22.096  0.00  0.00    +0.209 HD
ENDBRANCH   6   7
ENDBRANCH   5   6
ENDBRANCH   4   5
ENDBRANCH   3   4
ENDBRANCH   2   3
ENDBRANCH   1   2
BRANCH   1   9
ATOM      9  C   UNL     1       9.702   0.050  25.204  0.00  0.00    +0.000 C 
BRANCH   9  10
ATOM     10  C   UNL     1       9.183  -1.345  24.860  0.00  0.00    +0.000 C 
BRANCH  10  11
ATOM     11  C   UNL     1       9.769  -1.844  23.540  0.00  0.00    +0.000 C 
BRANCH  11  12
ATOM     12  C   UNL     1       8.664  -2.172  22.536  0.00  0.00    +0.001 C 
BRANCH  12  13
ATOM     13  C   UNL     1       7.503  -2.904  23.207  0.00  0.00    +0.011 C 
BRANCH  13  14
ATOM     14  C   UNL     1       7.809  -4.384  23.356  0.00  0.00    +0.080 C 
ATOM     15 BR   UNL     1       6.994  -5.375  21.893  0.00  0.00    -0.092 Br
ENDBRANCH  13  14
ENDBRANCH  12  13
ENDBRANCH  11  12
ENDBRANCH  10  11
ENDBRANCH   9  10
ENDBRANCH   1   9
TORSDOF 12
ENDMDL
MODEL 9
REMARK VINA RESULT:      -4.0      3.662      6.410
REMARK  Name = 
REMARK  12 active torsions:
REMARK  status: ('A' for Active; 'I' for Inactive)
REMARK    1  A    between atoms: O_1  and  C_2
REMARK    2  A    between atoms: C_2  and  C_3
REMARK    3  A    between atoms: C_3  and  C_4
REMARK    4  A    between atoms: C_4  and  C_5
REMARK    5  A    between atoms: C_5  and  C_6
REMARK    6  A    between atoms: C_6  and  C_7
REMARK    7  A    between atoms: C_7  and  C_8
REMARK    8  A    between atoms: C_8  and  C_9
REMARK    9  A    between atoms: C_9  and  C_10
REMARK   10  A    between atoms: C_10  and  C_11
REMARK   11  A    between atoms: C_11  and  C_12
REMARK   12  A    between atoms: C_12  and  C_13
REMARK                            x       y       z     vdW  Elec       q    Type
REMARK                         _______ _______ _______ _____ _____    ______ ____
ROOT
ATOM      1  C   UNL     1       8.050  -1.607  23.934  0.00  0.00    +0.000 C 
ENDROOT
BRANCH   1   2
ATOM      2  C   UNL     1       9.003  -1.201  25.058  0.00  0.00    +0.000 C 
BRANCH   2   3
ATOM      3  C   UNL     1       8.559  -1.788  26.397  0.00  0.00    +0.000 C 
BRANCH   3   4
ATOM      4  C   UNL     1       7.855  -3.132  26.203  0.00  0.00    +0.002 C 
BRANCH   4   5
ATOM      5  C   UNL     1       8.780  -4.297  26.544  0.00  0.00    +0.028 C 
BRANCH   5   6
ATOM      6  C   UNL     1       9.129  -5.113  25.309  0.00  0.00    +0.156 C 
BRANCH   6   7
ATOM      7  O   UNL     1      10.481  -5.539  25.408  0.00  0.00    -0.395 OA
ATOM      8  H   UNL     1      10.655  -6.115  24.644  0.00  0.00    +0.209 HD
ENDBRANCH   6   7
ENDBRANCH   5   6
ENDBRANCH   4   5
ENDBRANCH   3   4
ENDBRANCH   2   3
ENDBRANCH   1   2
BRANCH   1   9
ATOM      9  C   UNL     1       8.816  -2.180  22.742  0.00  0.00    +0.000 C 
BRANCH   9  10
ATOM     10  C   UNL     1       9.960  -1.256  22.325  0.00  0.00    +0.000 C 
BRANCH  10  11
ATOM     11  C   UNL     1       9.471  -0.165  21.373  0.00  0.00    +0.000 C 
BRANCH  11  12
ATOM     12  C   UNL     1       9.769   1.226  21.930  0.00  0.00    +0.001 C 
BRANCH  12  13
ATOM     13  C   UNL     1       8.500   2.075  22.012  0.00  0.00    +0.011 C 
BRANCH  13  14
ATOM     14  C   UNL     1       8.668   3.204  23.014  0.00  0.00    +0.080 C 
ATOM     15 BR   UNL     1       8.470   2.514  24.823  0.00  0.00    -0.092 Br
ENDBRANCH  13  14
ENDBRANCH  12  13
ENDBRANCH  11  12
ENDBRANCH  10  11
ENDBRANCH   9  10
ENDBRANCH   1   9
TORSDOF 12
ENDMDL
