MODEL 1
REMARK VINA RESULT:      -4.3      0.000      0.000
REMARK  Name = 
REMARK  1 active torsions:
REMARK  status: ('A' for Active; 'I' for Inactive)
REMARK    1  A    between atoms: N_1  and  C_2
REMARK                            x       y       z     vdW  Elec       q    Type
REMARK                         _______ _______ _______ _____ _____    ______ ____
ROOT
ATOM      1  C   UNL     1       9.930   0.975  22.248  0.00  0.00    +0.060 A 
ATOM      2  C   UNL     1      10.340   0.707  23.561  0.00  0.00    +0.144 A 
ATOM      3  F   UNL     1      10.787   1.710  24.333  0.00  0.00    -0.204 F 
ATOM      4  C   UNL     1      10.273  -0.576  24.100  0.00  0.00    +0.040 A 
ATOM      5  C   UNL     1       9.825  -1.630  23.307  0.00  0.00    +0.003 A 
ATOM      6  C   UNL     1       9.465  -1.395  21.980  0.00  0.00    +0.002 A 
ATOM      7  C   UNL     1       9.537  -0.102  21.449  0.00  0.00    +0.025 A 
ENDROOT
BRANCH   1   8
ATOM      8  N   UNL     1      10.122   2.244  21.674  0.00  0.00    -0.356 N 
ATOM      9  H   UNL     1       9.894   2.255  20.682  0.00  0.00    +0.142 HD
ATOM     10  H   UNL     1      11.026   2.656  21.876  0.00  0.00    +0.142 HD
ENDBRANCH   1   8
TORSDOF 1
ENDMDL
MODEL 2
REMARK VINA RESULT:      -4.3      1.637      2.378
REMARK  Name = 
REMARK  1 active torsions:
REMARK  status: ('A' for Active; 'I' for Inactive)
REMARK    1  A    between atoms: N_1  and  C_2
REMARK                            x       y       z     vdW  Elec       q    Type
REMARK                         _______ _______ _______ _____ _____    ______ ____
ROOT
ATOM      1  C   UNL     1      10.141   1.171  22.491  0.00  0.00    +0.060 A 
ATOM      2  C   UNL     1       9.687  -0.084  22.061  0.00  0.00    +0.144 A 
ATOM      3  F   UNL     1       9.337  -0.257  20.777  0.00  0.00    -0.204 F 
ATOM      4  C   UNL     1       9.613  -1.171  22.929  0.00  0.00    +0.040 A 
ATOM      5  C   UNL     1       9.960  -1.003  24.269  0.00  0.00    +0.003 A 
ATOM      6  C   UNL     1      10.360   0.252  24.729  0.00  0.00    +0.002 A 
ATOM      7  C   UNL     1      10.430   1.337  23.847  0.00  0.00    +0.025 A 
ENDROOT
BRANCH   1   8
ATOM      8  N   UNL     1      10.089   2.289  21.640  0.00  0.00    -0.356 N 
ATOM      9  H   UNL     1      10.225   2.034  20.663  0.00  0.00    +0.142 HD
ATOM     10  H   UNL     1      10.679   3.059  21.933  0.00  0.00    +0.142 HD
ENDBRANCH   1   8
TORSDOF 1
ENDMDL
MODEL 3
REMARK VINA RESULT:      -4.2      1.939      2.685
REMARK  Name = 
REMARK  1 active torsions:
REMARK  status: ('A' for Active; 'I' for Inactive)
REMARK    1  A    between atoms: N_1  and  C_2
REMARK                            x       y       z     vdW  Elec       q    Type
REMARK                         _______ _______ _______ _____ _____    ______ ____
ROOT
ATOM      1  C   UNL     1       9.948  -0.157  22.174  0.00  0.00    +0.060 A 
ATOM      2  C   UNL     1      10.265  -0.474  23.502  0.00  0.00    +0.144 A 
ATOM      3  F   UNL     1      10.291  -1.760  23.887  0.00  0.00    -0.204 F 
ATOM      4  C   UNL     1      10.582   0.512  24.433  0.00  0.00    +0.040 A 
ATOM      5  C   UNL     1      10.545   1.852  24.052  0.00  0.00    +0.003 A 
ATOM      6  C   UNL     1      10.178   2.192  22.750  0.00  0.00    +0.002 A 
ATOM      7  C   UNL     1       9.861   1.193  21.823  0.00  0.00    +0.025 A 
ENDROOT
BRANCH   1   8
ATOM      8  N   UNL     1       9.506  -1.147  21.279  0.00  0.00    -0.356 N 
ATOM      9  H   UNL     1       9.180  -0.751  20.399  0.00  0.00    +0.142 HD
ATOM     10  H   UNL     1       8.850  -1.806  21.683  0.00  0.00    +0.142 HD
ENDBRANCH   1   8
TORSDOF 1
ENDMDL
MODEL 4
REMARK VINA RESULT:      -4.1      2.355      3.423
REMARK  Name = 
REMARK  1 active torsions:
REMARK  status: ('A' for Active; 'I' for Inactive)
REMARK    1  A    between atoms: N_1  and  C_2
REMARK                            x       y       z     vdW  Elec       q    Type
REMARK                         _______ _______ _______ _____ _____    ______ ____
ROOT
ATOM      1  C   UNL     1      10.138  -0.473  23.028  0.00  0.00    +0.060 A 
ATOM      2  C   UNL     1       9.764   0.254  21.889  0.00  0.00    +0.144 A 
ATOM      3  F   UNL     1       9.340  -0.400  20.796  0.00  0.00    -0.204 F 
ATOM      4  C   UNL     1       9.795   1.646  21.868  0.00  0.00    +0.040 A 
ATOM      5  C   UNL     1      10.246   2.339  22.990  0.00  0.00    +0.003 A 
ATOM      6  C   UNL     1      10.676   1.633  24.114  0.00  0.00    +0.002 A 
ATOM      7  C   UNL     1      10.640   0.234  24.123  0.00  0.00    +0.025 A 
ENDROOT
BRANCH   1   8
ATOM      8  N   UNL     1      10.225  -1.876  22.995  0.00  0.00    -0.356 N 
ATOM      9  H   UNL     1      10.216  -2.238  22.043  0.00  0.00    +0.142 HD
ATOM     10  H   UNL     1       9.563  -2.345  23.603  0.00  0.00    +0.142 HD
ENDBRANCH   1   8
TORSDOF 1
ENDMDL
MODEL 5
REMARK VINA RESULT:      -4.0      1.946      2.599
REMARK  Name = 
REMARK  1 active torsions:
REMARK  status: ('A' for Active; 'I' for Inactive)
REMARK    1  A    between atoms: N_1  and  C_2
REMARK                            x       y       z     vdW  Elec       q    Type
REMARK                         _______ _______ _______ _____ _____    ______ ____
ROOT
ATOM      1  C   UNL     1      10.023  -0.949  23.184  0.00  0.00    +0.060 A 
ATOM      2  C   UNL     1      10.417   0.213  23.864  0.00  0.00    +0.144 A 
ATOM      3  F   UNL     1      10.932   0.114  25.099  0.00  0.00    -0.204 F 
ATOM      4  C   UNL     1      10.313   1.472  23.279  0.00  0.00    +0.040 A 
ATOM      5  C   UNL     1       9.767   1.592  22.002  0.00  0.00    +0.003 A 
ATOM      6  C   UNL     1       9.317   0.455  21.331  0.00  0.00    +0.002 A 
ATOM      7  C   UNL     1       9.427  -0.806  21.929  0.00  0.00    +0.025 A 
ENDROOT
BRANCH   1   8
ATOM      8  N   UNL     1      10.013  -2.197  23.831  0.00  0.00    -0.356 N 
ATOM      9  H   UNL     1       9.389  -2.207  24.637  0.00  0.00    +0.142 HD
ATOM     10  H   UNL     1      10.935  -2.561  24.041  0.00  0.00    +0.142 HD
ENDBRANCH   1   8
TORSDOF 1
ENDMDL
MODEL 6
REMARK VINA RESULT:      -4.0      1.645      2.354
REMARK  Name = 
REMARK  1 active torsions:
REMARK  status: ('A' for Active; 'I' for Inactive)
REMARK    1  A    between atoms: N_1  and  C_2
REMARK                            x       y       z     vdW  Elec       q    Type
REMARK                         _______ _______ _______ _____ _____    ______ ____
ROOT
ATOM      1  C   UNL     1       9.702  -0.330  22.346  0.00  0.00    +0.060 A 
ATOM      2  C   UNL     1      10.175   0.960  22.630  0.00  0.00    +0.144 A 
ATOM      3  F   UNL     1      10.335   1.840  21.629  0.00  0.00    -0.204 F 
ATOM      4  C   UNL     1      10.462   1.363  23.931  0.00  0.00    +0.040 A 
ATOM      5  C   UNL     1      10.315   0.455  24.979  0.00  0.00    +0.003 A 
ATOM      6  C   UNL     1       9.899  -0.849  24.711  0.00  0.00    +0.002 A 
ATOM      7  C   UNL     1       9.614  -1.244  23.399  0.00  0.00    +0.025 A 
ENDROOT
BRANCH   1   8
ATOM      8  N   UNL     1       9.539  -0.766  21.020  0.00  0.00    -0.356 N 
ATOM      9  H   UNL     1      10.052  -0.183  20.359  0.00  0.00    +0.142 HD
ATOM     10  H   UNL     1       8.574  -0.914  20.749  0.00  0.00    +0.142 HD
ENDBRANCH   1   8
TORSDOF 1
ENDMDL
MODEL 7
REMARK VINA RESULT:      -3.9      1.627      2.364
REMARK  Name = 
REMARK  1 active torsions:
REMARK  status: ('A' for Active; 'I' for Inactive)
REMARK    1  A    between atoms: N_1  and  C_2
REMARK                            x       y       z     vdW  Elec       q    Type
REMARK                         _______ _______ _______ _____ _____    ______ ____
ROOT
ATOM      1  C   UNL     1      10.290   0.356  24.052  0.00  0.00    +0.060 A 
ATOM      2  C   UNL     1      10.191   1.498  23.244  0.00  0.00    +0.144 A 
ATOM      3  F   UNL     1      10.511   2.698  23.753  0.00  0.00    -0.204 F 
ATOM      4  C   UNL     1       9.793   1.418  21.912  0.00  0.00    +0.040 A 
ATOM      5  C   UNL     1       9.444   0.181  21.373  0.00  0.00    +0.003 A 
ATOM      6  C   UNL     1       9.482  -0.960  22.176  0.00  0.00    +0.002 A 
ATOM      7  C   UNL     1       9.883  -0.868  23.514  0.00  0.00    +0.025 A 
ENDROOT
BRANCH   1   8
ATOM      8  N   UNL     1      10.568   0.463  25.426  0.00  0.00    -0.356 N 
ATOM      9  H   UNL     1      11.538   0.240  25.639  0.00  0.00    +0.142 HD
ATOM     10  H   UNL     1       9.909  -0.028  26.020  0.00  0.00    +0.142 HD
ENDBRANCH   1   8
TORSDOF 1
ENDMDL
MODEL 8
REMARK VINA RESULT:      -3.7      2.131      3.169
REMARK  Name = 
REMARK  1 active torsions:
REMARK  status: ('A' for Active; 'I' for Inactive)
REMARK    1  A    between atoms: N_1  and  C_2
REMARK                            x       y       z     vdW  Elec       q    Type
REMARK                         _______ _______ _______ _____ _____    ______ ____
ROOT
ATOM      1  C   UNL     1      10.029   0.876  24.006  0.00  0.00    +0.060 A 
ATOM      2  C   UNL     1      10.107   0.107  22.836  0.00  0.00    +0.144 A 
ATOM      3  F   UNL     1      10.750  -1.072  22.861  0.00  0.00    -0.204 F 
ATOM      4  C   UNL     1       9.512   0.522  21.648  0.00  0.00    +0.040 A 
ATOM      5  C   UNL     1       8.854   1.750  21.603  0.00  0.00    +0.003 A 
ATOM      6  C   UNL     1       8.813   2.555  22.741  0.00  0.00    +0.002 A 
ATOM      7  C   UNL     1       9.415   2.128  23.930  0.00  0.00    +0.025 A 
ENDROOT
BRANCH   1   8
ATOM      8  N   UNL     1      10.740   0.509  25.162  0.00  0.00    -0.356 N 
ATOM      9  H   UNL     1      10.127   0.154  25.894  0.00  0.00    +0.142 HD
ATOM     10  H   UNL     1      11.382   1.220  25.495  0.00  0.00    +0.142 HD
ENDBRANCH   1   8
TORSDOF 1
ENDMDL
MODEL 9
REMARK VINA RESULT:      -3.6      1.532      2.252
REMARK  Name = 
REMARK  1 active torsions:
REMARK  status: ('A' for Active; 'I' for Inactive)
REMARK    1  A    between atoms: N_1  and  C_2
REMARK                            x       y       z     vdW  Elec       q    Type
REMARK                         _______ _______ _______ _____ _____    ______ ____
ROOT
ATOM      1  C   UNL     1       9.884   1.220  23.888  0.00  0.00    +0.060 A 
ATOM      2  C   UNL     1      10.013   0.938  22.521  0.00  0.00    +0.144 A 
ATOM      3  F   UNL     1      10.057   1.948  21.638  0.00  0.00    -0.204 F 
ATOM      4  C   UNL     1      10.123  -0.369  22.051  0.00  0.00    +0.040 A 
ATOM      5  C   UNL     1      10.064  -1.429  22.954  0.00  0.00    +0.003 A 
ATOM      6  C   UNL     1       9.880  -1.172  24.313  0.00  0.00    +0.002 A 
ATOM      7  C   UNL     1       9.770   0.145  24.773  0.00  0.00    +0.025 A 
ENDROOT
BRANCH   1   8
ATOM      8  N   UNL     1       9.645   2.530  24.337  0.00  0.00    -0.356 N 
ATOM      9  H   UNL     1      10.136   3.224  23.774  0.00  0.00    +0.142 HD
ATOM     10  H   UNL     1       9.787   2.658  25.333  0.00  0.00    +0.142 HD
ENDBRANCH   1   8
TORSDOF 1
ENDMDL
