MODEL 1
REMARK VINA RESULT:      -6.8      0.000      0.000
REMARK  Name = 
REMARK  20 active torsions:
REMARK  status: ('A' for Active; 'I' for Inactive)
REMARK    1  A    between atoms: C_1  and  N_2
REMARK    2  A    between atoms: N_2  and  C_3
REMARK    3  A    between atoms: C_8  and  O_10
REMARK    4  A    between atoms: C_11  and  O_13
REMARK    5  A    between atoms: O_13  and  C_14
REMARK    6  A    between atoms: C_17  and  C_19
REMARK    7  A    between atoms: C_19  and  O_20
REMARK    8  A    between atoms: C_21  and  O_23
REMARK    9  A    between atoms: O_23  and  C_24
REMARK   10  A    between atoms: C_27  and  C_29
REMARK   11  A    between atoms: C_29  and  O_30
REMARK   12  A    between atoms: C_31  and  O_33
REMARK   13  A    between atoms: C_34  and  O_36
REMARK   14  A    between atoms: C_37  and  N_39
REMARK   15  A    between atoms: C_40  and  C_41
REMARK   16  A    between atoms: C_43  and  O_45
REMARK   17  A    between atoms: C_46  and  N_48
REMARK   18  A    between atoms: C_49  and  C_50
REMARK   19  A    between atoms: C_52  and  C_54
REMARK   20  A    between atoms: C_54  and  O_55
REMARK                            x       y       z     vdW  Elec       q    Type
REMARK                         _______ _______ _______ _____ _____    ______ ____
ROOT
ATOM      1  C   UNL     1       7.427  -1.409  25.293  0.00  0.00    +0.274 C 
ATOM      2  C   UNL     1       7.200   0.013  25.866  0.00  0.00    +0.160 C 
ATOM      3  C   UNL     1       6.535   0.826  24.728  0.00  0.00    +0.171 C 
ATOM      4  C   UNL     1       7.481   0.868  23.504  0.00  0.00    +0.183 C 
ATOM      5  C   UNL     1       8.061  -0.544  23.167  0.00  0.00    +0.178 C 
ATOM      6  O   UNL     1       8.491  -1.282  24.333  0.00  0.00    -0.341 OA
ENDROOT
BRANCH   2   7
ATOM      7  N   UNL     1       6.415   0.150  27.086  0.00  0.00    -0.305 N 
ATOM      8  H   UNL     1       5.565  -0.399  27.156  0.00  0.00    +0.149 HD
ATOM      9  C   UNL     1       6.455   1.375  27.724  0.00  0.00    +0.210 C 
ATOM     10  O   UNL     1       7.231   2.275  27.407  0.00  0.00    -0.276 OA
ATOM     11  C   UNL     1       5.462   1.563  28.833  0.00  0.00    +0.109 C 
ENDBRANCH   2   7
BRANCH   3  12
ATOM     12  O   UNL     1       5.237   0.245  24.471  0.00  0.00    -0.387 OA
ATOM     13  H   UNL     1       5.333  -0.669  24.163  0.00  0.00    +0.210 HD
ENDBRANCH   3  12
BRANCH   4  14
ATOM     14  O   UNL     1       6.955   1.637  22.389  0.00  0.00    -0.341 OA
BRANCH  14  15
ATOM     15  C   UNL     1       7.409   2.989  22.303  0.00  0.00    +0.274 C 
ATOM     16  C   UNL     1       6.359   4.035  22.749  0.00  0.00    +0.160 C 
ATOM     17  C   UNL     1       7.034   5.442  22.739  0.00  0.00    +0.171 C 
ATOM     18  C   UNL     1       8.353   5.434  23.551  0.00  0.00    +0.176 C 
ATOM     19  C   UNL     1       9.251   4.326  23.002  0.00  0.00    +0.178 C 
ATOM     20  O   UNL     1       8.549   3.098  23.139  0.00  0.00    -0.341 OA
BRANCH  16  21
ATOM     21  N   UNL     1       5.079   3.986  22.012  0.00  0.00    -0.305 N 
ATOM     22  H   UNL     1       5.000   4.579  21.194  0.00  0.00    +0.149 HD
ATOM     23  C   UNL     1       3.934   3.385  22.471  0.00  0.00    +0.210 C 
ATOM     24  O   UNL     1       3.896   2.782  23.543  0.00  0.00    -0.276 OA
ATOM     25  C   UNL     1       2.744   3.465  21.559  0.00  0.00    +0.109 C 
ENDBRANCH  16  21
BRANCH  18  26
ATOM     26  O   UNL     1       9.008   6.695  23.414  0.00  0.00    -0.387 OA
ATOM     27  H   UNL     1       8.377   7.350  23.785  0.00  0.00    +0.210 HD
ENDBRANCH  18  26
BRANCH  17  28
ATOM     28  O   UNL     1       7.427   5.908  21.429  0.00  0.00    -0.387 OA
ATOM     29  H   UNL     1       7.181   6.856  21.337  0.00  0.00    +0.210 HD
ENDBRANCH  17  28
BRANCH  19  30
ATOM     30  C   UNL     1      10.619   4.180  23.686  0.00  0.00    +0.190 C 
BRANCH  30  31
ATOM     31  O   UNL     1      11.634   4.990  23.114  0.00  0.00    -0.392 OA
ATOM     32  H   UNL     1      11.438   5.920  23.313  0.00  0.00    +0.210 HD
ENDBRANCH  30  31
ENDBRANCH  19  30
ENDBRANCH  14  15
ENDBRANCH   4  14
BRANCH   5  33
ATOM     33  C   UNL     1       9.249  -0.416  22.205  0.00  0.00    +0.190 C 
BRANCH  33  34
ATOM     34  O   UNL     1      10.037   0.726  22.539  0.00  0.00    -0.392 OA
ATOM     35  H   UNL     1      10.896   0.388  22.855  0.00  0.00    +0.210 HD
ENDBRANCH  33  34
ENDBRANCH   5  33
BRANCH   1  36
ATOM     36  O   UNL     1       7.709  -2.401  26.272  0.00  0.00    -0.343 OA
BRANCH  36  44
ATOM     37  C   UNL     1       4.120  -1.966  29.148  0.00  0.00    +0.133 C 
ATOM     38  N   UNL     1       4.011  -2.298  27.738  0.00  0.00    -0.292 N 
ATOM     39  C   UNL     1       4.728  -3.352  27.247  0.00  0.00    +0.281 C 
ATOM     40  O   UNL     1       4.709  -3.472  25.894  0.00  0.00    -0.460 OA
ATOM     41  C   UNL     1       5.538  -4.588  25.587  0.00  0.00    +0.211 C 
ATOM     42  C   UNL     1       6.093  -5.041  26.927  0.00  0.00    +0.182 C 
ATOM     43  C   UNL     1       7.602  -4.725  26.921  0.00  0.00    +0.172 C 
ATOM     44  C   UNL     1       7.821  -3.745  25.747  0.00  0.00    +0.161 C 
ATOM     45  C   UNL     1       6.720  -4.137  24.726  0.00  0.00    +0.089 C 
ATOM     46  N   UNL     1       5.410  -4.211  27.928  0.00  0.00    -0.227 NA
ATOM     47  C   UNL     1       2.990  -1.636  26.951  0.00  0.00    +0.133 C 
BRANCH  43  48
ATOM     48  O   UNL     1       8.386  -5.914  26.791  0.00  0.00    -0.387 OA
ATOM     49  H   UNL     1       8.232  -6.334  25.932  0.00  0.00    +0.210 HD
ENDBRANCH  43  48
BRANCH  45  50
ATOM     50  C   UNL     1       7.161  -5.234  23.756  0.00  0.00    +0.165 C 
BRANCH  50  51
ATOM     51  O   UNL     1       8.571  -5.380  23.776  0.00  0.00    -0.395 OA
ATOM     52  H   UNL     1       8.878  -5.469  24.697  0.00  0.00    +0.209 HD
ENDBRANCH  50  51
ENDBRANCH  45  50
ENDBRANCH  36  44
ENDBRANCH   1  36
TORSDOF 16
ENDMDL
MODEL 2
REMARK VINA RESULT:      -6.6      2.733      8.428
REMARK  Name = 
REMARK  20 active torsions:
REMARK  status: ('A' for Active; 'I' for Inactive)
REMARK    1  A    between atoms: C_1  and  N_2
REMARK    2  A    between atoms: N_2  and  C_3
REMARK    3  A    between atoms: C_8  and  O_10
REMARK    4  A    between atoms: C_11  and  O_13
REMARK    5  A    between atoms: O_13  and  C_14
REMARK    6  A    between atoms: C_17  and  C_19
REMARK    7  A    between atoms: C_19  and  O_20
REMARK    8  A    between atoms: C_21  and  O_23
REMARK    9  A    between atoms: O_23  and  C_24
REMARK   10  A    between atoms: C_27  and  C_29
REMARK   11  A    between atoms: C_29  and  O_30
REMARK   12  A    between atoms: C_31  and  O_33
REMARK   13  A    between atoms: C_34  and  O_36
REMARK   14  A    between atoms: C_37  and  N_39
REMARK   15  A    between atoms: C_40  and  C_41
REMARK   16  A    between atoms: C_43  and  O_45
REMARK   17  A    between atoms: C_46  and  N_48
REMARK   18  A    between atoms: C_49  and  C_50
REMARK   19  A    between atoms: C_52  and  C_54
REMARK   20  A    between atoms: C_54  and  O_55
REMARK                            x       y       z     vdW  Elec       q    Type
REMARK                         _______ _______ _______ _____ _____    ______ ____
ROOT
ATOM      1  C   UNL     1       6.983   2.243  25.290  0.00  0.00    +0.274 C 
ATOM      2  C   UNL     1       6.120   1.639  24.153  0.00  0.00    +0.160 C 
ATOM      3  C   UNL     1       5.784   0.194  24.600  0.00  0.00    +0.171 C 
ATOM      4  C   UNL     1       7.095  -0.606  24.784  0.00  0.00    +0.183 C 
ATOM      5  C   UNL     1       8.157   0.197  25.603  0.00  0.00    +0.178 C 
ATOM      6  O   UNL     1       8.258   1.584  25.210  0.00  0.00    -0.341 OA
ENDROOT
BRANCH   2   7
ATOM      7  N   UNL     1       4.893   2.329  23.773  0.00  0.00    -0.305 N 
ATOM      8  H   UNL     1       4.019   1.946  24.118  0.00  0.00    +0.149 HD
ATOM      9  C   UNL     1       4.888   2.971  22.549  0.00  0.00    +0.210 C 
ATOM     10  O   UNL     1       5.897   3.120  21.862  0.00  0.00    -0.276 OA
ATOM     11  C   UNL     1       3.551   3.466  22.081  0.00  0.00    +0.109 C 
ENDBRANCH   2   7
BRANCH   3  12
ATOM     12  O   UNL     1       4.955   0.280  25.781  0.00  0.00    -0.387 OA
ATOM     13  H   UNL     1       4.460  -0.545  25.905  0.00  0.00    +0.210 HD
ENDBRANCH   3  12
BRANCH   4  14
ATOM     14  O   UNL     1       6.882  -1.989  25.177  0.00  0.00    -0.341 OA
BRANCH  14  15
ATOM     15  C   UNL     1       6.460  -2.868  24.134  0.00  0.00    +0.274 C 
ATOM     16  C   UNL     1       7.502  -3.050  23.003  0.00  0.00    +0.160 C 
ATOM     17  C   UNL     1       6.970  -4.135  22.017  0.00  0.00    +0.171 C 
ATOM     18  C   UNL     1       6.573  -5.428  22.770  0.00  0.00    +0.176 C 
ATOM     19  C   UNL     1       5.571  -5.061  23.865  0.00  0.00    +0.178 C 
ATOM     20  O   UNL     1       6.205  -4.129  24.730  0.00  0.00    -0.341 OA
BRANCH  16  21
ATOM     21  N   UNL     1       7.924  -1.799  22.338  0.00  0.00    -0.305 N 
ATOM     22  H   UNL     1       7.196  -1.248  21.898  0.00  0.00    +0.149 HD
ATOM     23  C   UNL     1       9.226  -1.451  22.080  0.00  0.00    +0.210 C 
ATOM     24  O   UNL     1      10.173  -2.152  22.434  0.00  0.00    -0.276 OA
ATOM     25  C   UNL     1       9.424  -0.135  21.384  0.00  0.00    +0.109 C 
ENDBRANCH  16  21
BRANCH  18  26
ATOM     26  O   UNL     1       5.972  -6.349  21.860  0.00  0.00    -0.387 OA
ATOM     27  H   UNL     1       5.032  -6.404  22.137  0.00  0.00    +0.210 HD
ENDBRANCH  18  26
BRANCH  17  28
ATOM     28  O   UNL     1       5.772  -3.759  21.301  0.00  0.00    -0.387 OA
ATOM     29  H   UNL     1       5.764  -4.210  20.427  0.00  0.00    +0.210 HD
ENDBRANCH  17  28
BRANCH  19  30
ATOM     30  C   UNL     1       5.054  -6.233  24.712  0.00  0.00    +0.190 C 
BRANCH  30  31
ATOM     31  O   UNL     1       4.560  -7.320  23.945  0.00  0.00    -0.392 OA
ATOM     32  H   UNL     1       5.211  -7.537  23.259  0.00  0.00    +0.210 HD
ENDBRANCH  30  31
ENDBRANCH  19  30
ENDBRANCH  14  15
ENDBRANCH   4  14
BRANCH   5  33
ATOM     33  C   UNL     1       9.541  -0.452  25.461  0.00  0.00    +0.190 C 
BRANCH  33  34
ATOM     34  O   UNL     1      10.547   0.551  25.324  0.00  0.00    -0.392 OA
ATOM     35  H   UNL     1      10.082   1.384  25.116  0.00  0.00    +0.210 HD
ENDBRANCH  33  34
ENDBRANCH   5  33
BRANCH   1  36
ATOM     36  O   UNL     1       7.111   3.659  25.242  0.00  0.00    -0.343 OA
BRANCH  36  44
ATOM     37  C   UNL     1       5.481   7.084  27.879  0.00  0.00    +0.133 C 
ATOM     38  N   UNL     1       6.878   6.690  27.810  0.00  0.00    -0.292 N 
ATOM     39  C   UNL     1       7.489   6.623  26.590  0.00  0.00    +0.281 C 
ATOM     40  O   UNL     1       8.730   6.070  26.605  0.00  0.00    -0.460 OA
ATOM     41  C   UNL     1       9.169   6.053  25.250  0.00  0.00    +0.211 C 
ATOM     42  C   UNL     1       7.993   6.594  24.454  0.00  0.00    +0.182 C 
ATOM     43  C   UNL     1       7.434   5.422  23.623  0.00  0.00    +0.172 C 
ATOM     44  C   UNL     1       8.038   4.142  24.242  0.00  0.00    +0.161 C 
ATOM     45  C   UNL     1       9.409   4.611  24.799  0.00  0.00    +0.089 C 
ATOM     46  N   UNL     1       7.006   7.013  25.458  0.00  0.00    -0.227 NA
ATOM     47  C   UNL     1       7.628   6.589  29.046  0.00  0.00    +0.133 C 
BRANCH  43  48
ATOM     48  O   UNL     1       7.757   5.561  22.237  0.00  0.00    -0.387 OA
ATOM     49  H   UNL     1       7.824   6.495  21.992  0.00  0.00    +0.210 HD
ENDBRANCH  43  48
BRANCH  45  50
ATOM     50  C   UNL     1      10.539   4.524  23.773  0.00  0.00    +0.165 C 
BRANCH  50  51
ATOM     51  O   UNL     1      10.243   3.546  22.788  0.00  0.00    -0.395 OA
ATOM     52  H   UNL     1      11.034   3.384  22.240  0.00  0.00    +0.209 HD
ENDBRANCH  50  51
ENDBRANCH  45  50
ENDBRANCH  36  44
ENDBRANCH   1  36
TORSDOF 16
ENDMDL
MODEL 3
REMARK VINA RESULT:      -6.5      2.211      8.526
REMARK  Name = 
REMARK  20 active torsions:
REMARK  status: ('A' for Active; 'I' for Inactive)
REMARK    1  A    between atoms: C_1  and  N_2
REMARK    2  A    between atoms: N_2  and  C_3
REMARK    3  A    between atoms: C_8  and  O_10
REMARK    4  A    between atoms: C_11  and  O_13
REMARK    5  A    between atoms: O_13  and  C_14
REMARK    6  A    between atoms: C_17  and  C_19
REMARK    7  A    between atoms: C_19  and  O_20
REMARK    8  A    between atoms: C_21  and  O_23
REMARK    9  A    between atoms: O_23  and  C_24
REMARK   10  A    between atoms: C_27  and  C_29
REMARK   11  A    between atoms: C_29  and  O_30
REMARK   12  A    between atoms: C_31  and  O_33
REMARK   13  A    between atoms: C_34  and  O_36
REMARK   14  A    between atoms: C_37  and  N_39
REMARK   15  A    between atoms: C_40  and  C_41
REMARK   16  A    between atoms: C_43  and  O_45
REMARK   17  A    between atoms: C_46  and  N_48
REMARK   18  A    between atoms: C_49  and  C_50
REMARK   19  A    between atoms: C_52  and  C_54
REMARK   20  A    between atoms: C_54  and  O_55
REMARK                            x       y       z     vdW  Elec       q    Type
REMARK                         _______ _______ _______ _____ _____    ______ ____
ROOT
ATOM      1  C   UNL     1       8.122   0.672  25.108  0.00  0.00    +0.274 C 
ATOM      2  C   UNL     1       7.321   0.217  26.354  0.00  0.00    +0.160 C 
ATOM      3  C   UNL     1       7.637  -1.289  26.533  0.00  0.00    +0.171 C 
ATOM      4  C   UNL     1       7.185  -2.063  25.272  0.00  0.00    +0.183 C 
ATOM      5  C   UNL     1       7.650  -1.357  23.957  0.00  0.00    +0.178 C 
ATOM      6  O   UNL     1       7.465   0.076  23.977  0.00  0.00    -0.341 OA
ENDROOT
BRANCH   2   7
ATOM      7  N   UNL     1       7.545   0.914  27.615  0.00  0.00    -0.305 N 
ATOM      8  H   UNL     1       8.042   0.411  28.342  0.00  0.00    +0.149 HD
ATOM      9  C   UNL     1       6.596   1.844  27.994  0.00  0.00    +0.210 C 
ATOM     10  O   UNL     1       5.684   2.216  27.257  0.00  0.00    -0.276 OA
ATOM     11  C   UNL     1       6.725   2.370  29.393  0.00  0.00    +0.109 C 
ENDBRANCH   2   7
BRANCH   3  12
ATOM     12  O   UNL     1       9.043  -1.410  26.848  0.00  0.00    -0.387 OA
ATOM     13  H   UNL     1       9.285  -0.785  27.548  0.00  0.00    +0.210 HD
ENDBRANCH   3  12
BRANCH   4  14
ATOM     14  O   UNL     1       7.414  -3.496  25.356  0.00  0.00    -0.341 OA
BRANCH  14  15
ATOM     15  C   UNL     1       6.296  -4.275  25.783  0.00  0.00    +0.274 C 
ATOM     16  C   UNL     1       6.099  -5.585  24.983  0.00  0.00    +0.160 C 
ATOM     17  C   UNL     1       4.941  -6.394  25.644  0.00  0.00    +0.171 C 
ATOM     18  C   UNL     1       5.181  -6.572  27.164  0.00  0.00    +0.176 C 
ATOM     19  C   UNL     1       5.387  -5.190  27.785  0.00  0.00    +0.178 C 
ATOM     20  O   UNL     1       6.511  -4.598  27.147  0.00  0.00    -0.341 OA
BRANCH  16  21
ATOM     21  N   UNL     1       5.940  -5.406  23.524  0.00  0.00    -0.305 N 
ATOM     22  H   UNL     1       4.993  -5.303  23.177  0.00  0.00    +0.149 HD
ATOM     23  C   UNL     1       6.937  -5.595  22.599  0.00  0.00    +0.210 C 
ATOM     24  O   UNL     1       8.085  -5.890  22.926  0.00  0.00    -0.276 OA
ATOM     25  C   UNL     1       6.549  -5.366  21.166  0.00  0.00    +0.109 C 
ENDBRANCH  16  21
BRANCH  18  26
ATOM     26  O   UNL     1       4.046  -7.201  27.758  0.00  0.00    -0.387 OA
ATOM     27  H   UNL     1       3.914  -6.733  28.612  0.00  0.00    +0.210 HD
ENDBRANCH  18  26
BRANCH  17  28
ATOM     28  O   UNL     1       3.644  -5.761  25.562  0.00  0.00    -0.387 OA
ATOM     29  H   UNL     1       3.471  -5.502  24.629  0.00  0.00    +0.210 HD
ENDBRANCH  17  28
BRANCH  19  30
ATOM     30  C   UNL     1       5.629  -5.174  29.301  0.00  0.00    +0.190 C 
BRANCH  30  31
ATOM     31  O   UNL     1       6.345  -6.302  29.779  0.00  0.00    -0.392 OA
ATOM     32  H   UNL     1       7.283  -6.065  29.856  0.00  0.00    +0.210 HD
ENDBRANCH  30  31
ENDBRANCH  19  30
ENDBRANCH  14  15
ENDBRANCH   4  14
BRANCH   5  33
ATOM     33  C   UNL     1       6.897  -1.931  22.749  0.00  0.00    +0.190 C 
BRANCH  33  34
ATOM     34  O   UNL     1       5.580  -2.327  23.130  0.00  0.00    -0.392 OA
ATOM     35  H   UNL     1       5.153  -1.539  23.515  0.00  0.00    +0.210 HD
ENDBRANCH  33  34
ENDBRANCH   5  33
BRANCH   1  36
ATOM     36  O   UNL     1       8.245   2.082  24.970  0.00  0.00    -0.343 OA
BRANCH  36  44
ATOM     37  C   UNL     1       4.173   4.252  24.751  0.00  0.00    +0.133 C 
ATOM     38  N   UNL     1       5.447   4.911  24.981  0.00  0.00    -0.292 N 
ATOM     39  C   UNL     1       6.472   4.699  24.103  0.00  0.00    +0.281 C 
ATOM     40  O   UNL     1       7.671   5.202  24.496  0.00  0.00    -0.460 OA
ATOM     41  C   UNL     1       8.600   4.842  23.479  0.00  0.00    +0.211 C 
ATOM     42  C   UNL     1       7.798   4.005  22.497  0.00  0.00    +0.182 C 
ATOM     43  C   UNL     1       8.322   2.559  22.604  0.00  0.00    +0.172 C 
ATOM     44  C   UNL     1       9.139   2.504  23.913  0.00  0.00    +0.161 C 
ATOM     45  C   UNL     1       9.692   3.946  24.066  0.00  0.00    +0.089 C 
ATOM     46  N   UNL     1       6.411   4.073  22.975  0.00  0.00    -0.227 NA
ATOM     47  C   UNL     1       5.520   5.931  26.008  0.00  0.00    +0.133 C 
BRANCH  43  48
ATOM     48  O   UNL     1       9.102   2.199  21.461  0.00  0.00    -0.387 OA
ATOM     49  H   UNL     1       8.550   2.163  20.666  0.00  0.00    +0.210 HD
ENDBRANCH  43  48
BRANCH  45  50
ATOM     50  C   UNL     1      11.033   4.156  23.361  0.00  0.00    +0.165 C 
BRANCH  50  51
ATOM     51  O   UNL     1      11.142   5.488  22.885  0.00  0.00    -0.395 OA
ATOM     52  H   UNL     1      10.253   5.884  22.814  0.00  0.00    +0.209 HD
ENDBRANCH  50  51
ENDBRANCH  45  50
ENDBRANCH  36  44
ENDBRANCH   1  36
TORSDOF 16
ENDMDL
MODEL 4
REMARK VINA RESULT:      -6.3      2.169      8.194
REMARK  Name = 
REMARK  20 active torsions:
REMARK  status: ('A' for Active; 'I' for Inactive)
REMARK    1  A    between atoms: C_1  and  N_2
REMARK    2  A    between atoms: N_2  and  C_3
REMARK    3  A    between atoms: C_8  and  O_10
REMARK    4  A    between atoms: C_11  and  O_13
REMARK    5  A    between atoms: O_13  and  C_14
REMARK    6  A    between atoms: C_17  and  C_19
REMARK    7  A    between atoms: C_19  and  O_20
REMARK    8  A    between atoms: C_21  and  O_23
REMARK    9  A    between atoms: O_23  and  C_24
REMARK   10  A    between atoms: C_27  and  C_29
REMARK   11  A    between atoms: C_29  and  O_30
REMARK   12  A    between atoms: C_31  and  O_33
REMARK   13  A    between atoms: C_34  and  O_36
REMARK   14  A    between atoms: C_37  and  N_39
REMARK   15  A    between atoms: C_40  and  C_41
REMARK   16  A    between atoms: C_43  and  O_45
REMARK   17  A    between atoms: C_46  and  N_48
REMARK   18  A    between atoms: C_49  and  C_50
REMARK   19  A    between atoms: C_52  and  C_54
REMARK   20  A    between atoms: C_54  and  O_55
REMARK                            x       y       z     vdW  Elec       q    Type
REMARK                         _______ _______ _______ _____ _____    ______ ____
ROOT
ATOM      1  C   UNL     1       8.192   0.650  25.332  0.00  0.00    +0.274 C 
ATOM      2  C   UNL     1       6.742   0.106  25.398  0.00  0.00    +0.160 C 
ATOM      3  C   UNL     1       6.844  -1.287  26.067  0.00  0.00    +0.171 C 
ATOM      4  C   UNL     1       7.741  -2.208  25.206  0.00  0.00    +0.183 C 
ATOM      5  C   UNL     1       9.062  -1.494  24.772  0.00  0.00    +0.178 C 
ATOM      6  O   UNL     1       8.862  -0.133  24.329  0.00  0.00    -0.341 OA
ENDROOT
BRANCH   2   7
ATOM      7  N   UNL     1       5.733   0.904  26.085  0.00  0.00    -0.305 N 
ATOM      8  H   UNL     1       5.397   0.558  26.977  0.00  0.00    +0.149 HD
ATOM      9  C   UNL     1       4.863   1.630  25.295  0.00  0.00    +0.210 C 
ATOM     10  O   UNL     1       5.004   1.759  24.080  0.00  0.00    -0.276 OA
ATOM     11  C   UNL     1       3.698   2.248  26.010  0.00  0.00    +0.109 C 
ENDBRANCH   2   7
BRANCH   3  12
ATOM     12  O   UNL     1       7.301  -1.092  27.425  0.00  0.00    -0.387 OA
ATOM     13  H   UNL     1       7.415  -0.147  27.608  0.00  0.00    +0.210 HD
ENDBRANCH   3  12
BRANCH   4  14
ATOM     14  O   UNL     1       7.875  -3.553  25.739  0.00  0.00    -0.341 OA
BRANCH  14  15
ATOM     15  C   UNL     1       6.997  -4.529  25.177  0.00  0.00    +0.274 C 
ATOM     16  C   UNL     1       5.512  -4.343  25.571  0.00  0.00    +0.160 C 
ATOM     17  C   UNL     1       4.659  -5.382  24.779  0.00  0.00    +0.171 C 
ATOM     18  C   UNL     1       4.959  -5.308  23.262  0.00  0.00    +0.176 C 
ATOM     19  C   UNL     1       6.464  -5.477  23.058  0.00  0.00    +0.178 C 
ATOM     20  O   UNL     1       7.113  -4.430  23.767  0.00  0.00    -0.341 OA
BRANCH  16  21
ATOM     21  N   UNL     1       5.249  -4.345  27.026  0.00  0.00    -0.305 N 
ATOM     22  H   UNL     1       5.641  -5.114  27.559  0.00  0.00    +0.149 HD
ATOM     23  C   UNL     1       4.344  -3.531  27.660  0.00  0.00    +0.210 C 
ATOM     24  O   UNL     1       3.697  -2.678  27.055  0.00  0.00    -0.276 OA
ATOM     25  C   UNL     1       4.233  -3.712  29.147  0.00  0.00    +0.109 C 
ENDBRANCH  16  21
BRANCH  18  26
ATOM     26  O   UNL     1       4.262  -6.354  22.584  0.00  0.00    -0.387 OA
ATOM     27  H   UNL     1       3.323  -6.247  22.849  0.00  0.00    +0.210 HD
ENDBRANCH  18  26
BRANCH  17  28
ATOM     28  O   UNL     1       4.920  -6.760  25.126  0.00  0.00    -0.387 OA
ATOM     29  H   UNL     1       5.522  -6.789  25.903  0.00  0.00    +0.210 HD
ENDBRANCH  17  28
BRANCH  19  30
ATOM     30  C   UNL     1       6.945  -5.443  21.600  0.00  0.00    +0.190 C 
BRANCH  30  31
ATOM     31  O   UNL     1       5.935  -5.074  20.673  0.00  0.00    -0.392 OA
ATOM     32  H   UNL     1       5.320  -5.819  20.571  0.00  0.00    +0.210 HD
ENDBRANCH  30  31
ENDBRANCH  19  30
ENDBRANCH  14  15
ENDBRANCH   4  14
BRANCH   5  33
ATOM     33  C   UNL     1       9.747  -2.279  23.646  0.00  0.00    +0.190 C 
BRANCH  33  34
ATOM     34  O   UNL     1      10.145  -3.568  24.111  0.00  0.00    -0.392 OA
ATOM     35  H   UNL     1      10.732  -3.941  23.427  0.00  0.00    +0.210 HD
ENDBRANCH  33  34
ENDBRANCH   5  33
BRANCH   1  36
ATOM     36  O   UNL     1       8.286   2.045  25.069  0.00  0.00    -0.343 OA
BRANCH  36  44
ATOM     37  C   UNL     1       5.280   5.391  26.122  0.00  0.00    +0.133 C 
ATOM     38  N   UNL     1       6.724   5.541  26.152  0.00  0.00    -0.292 N 
ATOM     39  C   UNL     1       7.449   5.214  25.041  0.00  0.00    +0.281 C 
ATOM     40  O   UNL     1       8.795   5.208  25.221  0.00  0.00    -0.460 OA
ATOM     41  C   UNL     1       9.357   4.806  23.976  0.00  0.00    +0.211 C 
ATOM     42  C   UNL     1       8.160   4.509  23.087  0.00  0.00    +0.182 C 
ATOM     43  C   UNL     1       8.143   2.986  22.849  0.00  0.00    +0.172 C 
ATOM     44  C   UNL     1       9.087   2.383  23.913  0.00  0.00    +0.161 C 
ATOM     45  C   UNL     1      10.136   3.502  24.153  0.00  0.00    +0.089 C 
ATOM     46  N   UNL     1       6.986   4.907  23.875  0.00  0.00    -0.227 NA
ATOM     47  C   UNL     1       7.323   6.230  27.278  0.00  0.00    +0.133 C 
BRANCH  43  48
ATOM     48  O   UNL     1       8.545   2.659  21.517  0.00  0.00    -0.387 OA
ATOM     49  H   UNL     1       8.018   1.925  21.169  0.00  0.00    +0.210 HD
ENDBRANCH  43  48
BRANCH  45  50
ATOM     50  C   UNL     1      11.330   3.425  23.200  0.00  0.00    +0.165 C 
BRANCH  50  51
ATOM     51  O   UNL     1      11.730   4.724  22.797  0.00  0.00    -0.395 OA
ATOM     52  H   UNL     1      12.674   4.714  22.551  0.00  0.00    +0.209 HD
ENDBRANCH  50  51
ENDBRANCH  45  50
ENDBRANCH  36  44
ENDBRANCH   1  36
TORSDOF 16
ENDMDL
MODEL 5
REMARK VINA RESULT:      -6.1      3.570      6.448
REMARK  Name = 
REMARK  20 active torsions:
REMARK  status: ('A' for Active; 'I' for Inactive)
REMARK    1  A    between atoms: C_1  and  N_2
REMARK    2  A    between atoms: N_2  and  C_3
REMARK    3  A    between atoms: C_8  and  O_10
REMARK    4  A    between atoms: C_11  and  O_13
REMARK    5  A    between atoms: O_13  and  C_14
REMARK    6  A    between atoms: C_17  and  C_19
REMARK    7  A    between atoms: C_19  and  O_20
REMARK    8  A    between atoms: C_21  and  O_23
REMARK    9  A    between atoms: O_23  and  C_24
REMARK   10  A    between atoms: C_27  and  C_29
REMARK   11  A    between atoms: C_29  and  O_30
REMARK   12  A    between atoms: C_31  and  O_33
REMARK   13  A    between atoms: C_34  and  O_36
REMARK   14  A    between atoms: C_37  and  N_39
REMARK   15  A    between atoms: C_40  and  C_41
REMARK   16  A    between atoms: C_43  and  O_45
REMARK   17  A    between atoms: C_46  and  N_48
REMARK   18  A    between atoms: C_49  and  C_50
REMARK   19  A    between atoms: C_52  and  C_54
REMARK   20  A    between atoms: C_54  and  O_55
REMARK                            x       y       z     vdW  Elec       q    Type
REMARK                         _______ _______ _______ _____ _____    ______ ____
ROOT
ATOM      1  C   UNL     1       4.189  -6.116  24.602  0.00  0.00    +0.274 C 
ATOM      2  C   UNL     1       5.156  -5.444  25.610  0.00  0.00    +0.160 C 
ATOM      3  C   UNL     1       5.435  -4.028  25.048  0.00  0.00    +0.171 C 
ATOM      4  C   UNL     1       6.090  -4.148  23.651  0.00  0.00    +0.183 C 
ATOM      5  C   UNL     1       5.337  -5.174  22.742  0.00  0.00    +0.178 C 
ATOM      6  O   UNL     1       4.973  -6.392  23.429  0.00  0.00    -0.341 OA
ENDROOT
BRANCH   2   7
ATOM      7  N   UNL     1       4.742  -5.341  27.004  0.00  0.00    -0.305 N 
ATOM      8  H   UNL     1       3.999  -4.685  27.221  0.00  0.00    +0.149 HD
ATOM      9  C   UNL     1       5.707  -5.577  27.965  0.00  0.00    +0.210 C 
ATOM     10  O   UNL     1       6.824  -6.019  27.703  0.00  0.00    -0.276 OA
ATOM     11  C   UNL     1       5.318  -5.236  29.373  0.00  0.00    +0.109 C 
ENDBRANCH   2   7
BRANCH   3  12
ATOM     12  O   UNL     1       4.193  -3.290  25.074  0.00  0.00    -0.387 OA
ATOM     13  H   UNL     1       3.696  -3.496  25.881  0.00  0.00    +0.210 HD
ENDBRANCH   3  12
BRANCH   4  14
ATOM     14  O   UNL     1       6.418  -2.867  23.051  0.00  0.00    -0.341 OA
BRANCH  14  15
ATOM     15  C   UNL     1       7.117  -1.951  23.895  0.00  0.00    +0.274 C 
ATOM     16  C   UNL     1       8.658  -2.034  23.775  0.00  0.00    +0.160 C 
ATOM     17  C   UNL     1       9.279  -0.893  24.638  0.00  0.00    +0.171 C 
ATOM     18  C   UNL     1       8.657   0.479  24.279  0.00  0.00    +0.176 C 
ATOM     19  C   UNL     1       7.139   0.372  24.418  0.00  0.00    +0.178 C 
ATOM     20  O   UNL     1       6.698  -0.647  23.530  0.00  0.00    -0.341 OA
BRANCH  16  21
ATOM     21  N   UNL     1       9.233  -3.368  24.052  0.00  0.00    -0.305 N 
ATOM     22  H   UNL     1       9.617  -3.873  23.262  0.00  0.00    +0.149 HD
ATOM     23  C   UNL     1       9.083  -4.055  25.231  0.00  0.00    +0.210 C 
ATOM     24  O   UNL     1       8.481  -3.580  26.192  0.00  0.00    -0.276 OA
ATOM     25  C   UNL     1       9.746  -5.401  25.290  0.00  0.00    +0.109 C 
ENDBRANCH  16  21
BRANCH  18  26
ATOM     26  O   UNL     1       9.152   1.478  25.171  0.00  0.00    -0.387 OA
ATOM     27  H   UNL     1       9.005   2.330  24.705  0.00  0.00    +0.210 HD
ENDBRANCH  18  26
BRANCH  17  28
ATOM     28  O   UNL     1       9.053  -1.024  26.059  0.00  0.00    -0.387 OA
ATOM     29  H   UNL     1       8.376  -1.720  26.214  0.00  0.00    +0.210 HD
ENDBRANCH  17  28
BRANCH  19  30
ATOM     30  C   UNL     1       6.352   1.654  24.111  0.00  0.00    +0.190 C 
BRANCH  30  31
ATOM     31  O   UNL     1       4.943   1.483  24.141  0.00  0.00    -0.392 OA
ATOM     32  H   UNL     1       4.524   2.302  23.834  0.00  0.00    +0.210 HD
ENDBRANCH  30  31
ENDBRANCH  19  30
ENDBRANCH  14  15
ENDBRANCH   4  14
BRANCH   5  33
ATOM     33  C   UNL     1       6.198  -5.538  21.525  0.00  0.00    +0.190 C 
BRANCH  33  34
ATOM     34  O   UNL     1       7.568  -5.229  21.777  0.00  0.00    -0.392 OA
ATOM     35  H   UNL     1       7.574  -4.517  22.445  0.00  0.00    +0.210 HD
ENDBRANCH  33  34
ENDBRANCH   5  33
BRANCH   1  36
ATOM     36  O   UNL     1       3.541  -7.281  25.096  0.00  0.00    -0.343 OA
BRANCH  36  44
ATOM     37  C   UNL     1       1.776  -5.743  29.079  0.00  0.00    +0.133 C 
ATOM     38  N   UNL     1       1.462  -5.193  27.771  0.00  0.00    -0.292 N 
ATOM     39  C   UNL     1       1.024  -6.033  26.786  0.00  0.00    +0.281 C 
ATOM     40  O   UNL     1       0.935  -5.467  25.554  0.00  0.00    -0.460 OA
ATOM     41  C   UNL     1       0.510  -6.504  24.676  0.00  0.00    +0.211 C 
ATOM     42  C   UNL     1       0.443  -7.748  25.545  0.00  0.00    +0.182 C 
ATOM     43  C   UNL     1       1.575  -8.685  25.079  0.00  0.00    +0.172 C 
ATOM     44  C   UNL     1       2.517  -7.812  24.221  0.00  0.00    +0.161 C 
ATOM     45  C   UNL     1       1.574  -6.746  23.603  0.00  0.00    +0.089 C 
ATOM     46  N   UNL     1       0.710  -7.279  26.911  0.00  0.00    -0.227 NA
ATOM     47  C   UNL     1       1.420  -3.752  27.620  0.00  0.00    +0.133 C 
BRANCH  43  48
ATOM     48  O   UNL     1       1.062  -9.806  24.355  0.00  0.00    -0.387 OA
ATOM     49  H   UNL     1       0.853  -9.558  23.442  0.00  0.00    +0.210 HD
ENDBRANCH  43  48
BRANCH  45  50
ATOM     50  C   UNL     1       0.949  -7.188  22.280  0.00  0.00    +0.165 C 
BRANCH  50  51
ATOM     51  O   UNL     1       1.568  -8.373  21.808  0.00  0.00    -0.395 OA
ATOM     52  H   UNL     1       2.318  -8.143  21.228  0.00  0.00    +0.209 HD
ENDBRANCH  50  51
ENDBRANCH  45  50
ENDBRANCH  36  44
ENDBRANCH   1  36
TORSDOF 16
ENDMDL
MODEL 6
REMARK VINA RESULT:      -6.1      1.758      3.315
REMARK  Name = 
REMARK  20 active torsions:
REMARK  status: ('A' for Active; 'I' for Inactive)
REMARK    1  A    between atoms: C_1  and  N_2
REMARK    2  A    between atoms: N_2  and  C_3
REMARK    3  A    between atoms: C_8  and  O_10
REMARK    4  A    between atoms: C_11  and  O_13
REMARK    5  A    between atoms: O_13  and  C_14
REMARK    6  A    between atoms: C_17  and  C_19
REMARK    7  A    between atoms: C_19  and  O_20
REMARK    8  A    between atoms: C_21  and  O_23
REMARK    9  A    between atoms: O_23  and  C_24
REMARK   10  A    between atoms: C_27  and  C_29
REMARK   11  A    between atoms: C_29  and  O_30
REMARK   12  A    between atoms: C_31  and  O_33
REMARK   13  A    between atoms: C_34  and  O_36
REMARK   14  A    between atoms: C_37  and  N_39
REMARK   15  A    between atoms: C_40  and  C_41
REMARK   16  A    between atoms: C_43  and  O_45
REMARK   17  A    between atoms: C_46  and  N_48
REMARK   18  A    between atoms: C_49  and  C_50
REMARK   19  A    between atoms: C_52  and  C_54
REMARK   20  A    between atoms: C_54  and  O_55
REMARK                            x       y       z     vdW  Elec       q    Type
REMARK                         _______ _______ _______ _____ _____    ______ ____
ROOT
ATOM      1  C   UNL     1       6.996  -0.957  24.067  0.00  0.00    +0.274 C 
ATOM      2  C   UNL     1       7.008   0.259  25.028  0.00  0.00    +0.160 C 
ATOM      3  C   UNL     1       6.661   1.491  24.155  0.00  0.00    +0.171 C 
ATOM      4  C   UNL     1       7.728   1.653  23.046  0.00  0.00    +0.183 C 
ATOM      5  C   UNL     1       8.034   0.297  22.330  0.00  0.00    +0.178 C 
ATOM      6  O   UNL     1       8.164  -0.818  23.241  0.00  0.00    -0.341 OA
ENDROOT
BRANCH   2   7
ATOM      7  N   UNL     1       6.135   0.229  26.195  0.00  0.00    -0.305 N 
ATOM      8  H   UNL     1       5.243   0.707  26.121  0.00  0.00    +0.149 HD
ATOM      9  C   UNL     1       6.744   0.171  27.434  0.00  0.00    +0.210 C 
ATOM     10  O   UNL     1       7.951  -0.017  27.583  0.00  0.00    -0.276 OA
ATOM     11  C   UNL     1       5.841   0.378  28.613  0.00  0.00    +0.109 C 
ENDBRANCH   2   7
BRANCH   3  12
ATOM     12  O   UNL     1       5.308   1.325  23.675  0.00  0.00    -0.387 OA
ATOM     13  H   UNL     1       5.151   1.895  22.907  0.00  0.00    +0.210 HD
ENDBRANCH   3  12
BRANCH   4  14
ATOM     14  O   UNL     1       7.505   2.804  22.188  0.00  0.00    -0.341 OA
BRANCH  14  15
ATOM     15  C   UNL     1       6.778   3.882  22.779  0.00  0.00    +0.274 C 
ATOM     16  C   UNL     1       7.266   5.285  22.343  0.00  0.00    +0.160 C 
ATOM     17  C   UNL     1       6.300   6.350  22.949  0.00  0.00    +0.171 C 
ATOM     18  C   UNL     1       4.825   6.023  22.609  0.00  0.00    +0.176 C 
ATOM     19  C   UNL     1       4.527   4.598  23.077  0.00  0.00    +0.178 C 
ATOM     20  O   UNL     1       5.422   3.728  22.397  0.00  0.00    -0.341 OA
BRANCH  16  21
ATOM     21  N   UNL     1       8.693   5.559  22.610  0.00  0.00    -0.305 N 
ATOM     22  H   UNL     1       9.266   5.816  21.813  0.00  0.00    +0.149 HD
ATOM     23  C   UNL     1       9.338   5.274  23.787  0.00  0.00    +0.210 C 
ATOM     24  O   UNL     1       8.750   4.799  24.757  0.00  0.00    -0.276 OA
ATOM     25  C   UNL     1      10.797   5.629  23.834  0.00  0.00    +0.109 C 
ENDBRANCH  16  21
BRANCH  18  26
ATOM     26  O   UNL     1       3.963   6.939  23.283  0.00  0.00    -0.387 OA
ATOM     27  H   UNL     1       4.363   7.058  24.172  0.00  0.00    +0.210 HD
ENDBRANCH  18  26
BRANCH  17  28
ATOM     28  O   UNL     1       6.323   6.429  24.391  0.00  0.00    -0.387 OA
ATOM     29  H   UNL     1       6.804   5.649  24.749  0.00  0.00    +0.210 HD
ENDBRANCH  17  28
BRANCH  19  30
ATOM     30  C   UNL     1       3.093   4.105  22.831  0.00  0.00    +0.190 C 
BRANCH  30  31
ATOM     31  O   UNL     1       2.977   2.692  22.768  0.00  0.00    -0.392 OA
ATOM     32  H   UNL     1       3.379   2.384  21.940  0.00  0.00    +0.210 HD
ENDBRANCH  30  31
ENDBRANCH  19  30
ENDBRANCH  14  15
ENDBRANCH   4  14
BRANCH   5  33
ATOM     33  C   UNL     1       9.324   0.409  21.507  0.00  0.00    +0.190 C 
BRANCH  33  34
ATOM     34  O   UNL     1      10.005  -0.845  21.482  0.00  0.00    -0.392 OA
ATOM     35  H   UNL     1       9.515  -1.440  22.080  0.00  0.00    +0.210 HD
ENDBRANCH  33  34
ENDBRANCH   5  33
BRANCH   1  36
ATOM     36  O   UNL     1       6.951  -2.221  24.718  0.00  0.00    -0.343 OA
BRANCH  36  44
ATOM     37  C   UNL     1       4.942  -3.740  28.590  0.00  0.00    +0.133 C 
ATOM     38  N   UNL     1       4.570  -4.158  27.250  0.00  0.00    -0.292 N 
ATOM     39  C   UNL     1       5.536  -4.643  26.414  0.00  0.00    +0.281 C 
ATOM     40  O   UNL     1       5.134  -4.832  25.130  0.00  0.00    -0.460 OA
ATOM     41  C   UNL     1       6.282  -5.292  24.423  0.00  0.00    +0.211 C 
ATOM     42  C   UNL     1       7.405  -5.267  25.447  0.00  0.00    +0.182 C 
ATOM     43  C   UNL     1       8.376  -4.147  25.022  0.00  0.00    +0.172 C 
ATOM     44  C   UNL     1       7.606  -3.289  23.994  0.00  0.00    +0.161 C 
ATOM     45  C   UNL     1       6.643  -4.300  23.316  0.00  0.00    +0.089 C 
ATOM     46  N   UNL     1       6.760  -4.917  26.719  0.00  0.00    -0.227 NA
ATOM     47  C   UNL     1       3.161  -4.246  26.921  0.00  0.00    +0.133 C 
BRANCH  43  48
ATOM     48  O   UNL     1       9.589  -4.681  24.485  0.00  0.00    -0.387 OA
ATOM     49  H   UNL     1       9.894  -4.151  23.734  0.00  0.00    +0.210 HD
ENDBRANCH  43  48
BRANCH  45  50
ATOM     50  C   UNL     1       7.261  -5.005  22.108  0.00  0.00    +0.165 C 
BRANCH  50  51
ATOM     51  O   UNL     1       6.278  -5.246  21.114  0.00  0.00    -0.395 OA
ATOM     52  H   UNL     1       6.692  -5.675  20.342  0.00  0.00    +0.209 HD
ENDBRANCH  50  51
ENDBRANCH  45  50
ENDBRANCH  36  44
ENDBRANCH   1  36
TORSDOF 16
ENDMDL
MODEL 7
REMARK VINA RESULT:      -6.0      2.575      4.250
REMARK  Name = 
REMARK  20 active torsions:
REMARK  status: ('A' for Active; 'I' for Inactive)
REMARK    1  A    between atoms: C_1  and  N_2
REMARK    2  A    between atoms: N_2  and  C_3
REMARK    3  A    between atoms: C_8  and  O_10
REMARK    4  A    between atoms: C_11  and  O_13
REMARK    5  A    between atoms: O_13  and  C_14
REMARK    6  A    between atoms: C_17  and  C_19
REMARK    7  A    between atoms: C_19  and  O_20
REMARK    8  A    between atoms: C_21  and  O_23
REMARK    9  A    between atoms: O_23  and  C_24
REMARK   10  A    between atoms: C_27  and  C_29
REMARK   11  A    between atoms: C_29  and  O_30
REMARK   12  A    between atoms: C_31  and  O_33
REMARK   13  A    between atoms: C_34  and  O_36
REMARK   14  A    between atoms: C_37  and  N_39
REMARK   15  A    between atoms: C_40  and  C_41
REMARK   16  A    between atoms: C_43  and  O_45
REMARK   17  A    between atoms: C_46  and  N_48
REMARK   18  A    between atoms: C_49  and  C_50
REMARK   19  A    between atoms: C_52  and  C_54
REMARK   20  A    between atoms: C_54  and  O_55
REMARK                            x       y       z     vdW  Elec       q    Type
REMARK                         _______ _______ _______ _____ _____    ______ ____
ROOT
ATOM      1  C   UNL     1       6.717  -1.287  26.141  0.00  0.00    +0.274 C 
ATOM      2  C   UNL     1       7.221  -0.615  24.839  0.00  0.00    +0.160 C 
ATOM      3  C   UNL     1       7.918   0.695  25.282  0.00  0.00    +0.171 C 
ATOM      4  C   UNL     1       6.897   1.600  26.012  0.00  0.00    +0.183 C 
ATOM      5  C   UNL     1       6.067   0.805  27.071  0.00  0.00    +0.178 C 
ATOM      6  O   UNL     1       5.616  -0.484  26.599  0.00  0.00    -0.341 OA
ENDROOT
BRANCH   2   7
ATOM      7  N   UNL     1       8.114  -1.371  23.970  0.00  0.00    -0.305 N 
ATOM      8  H   UNL     1       8.790  -1.982  24.416  0.00  0.00    +0.149 HD
ATOM      9  C   UNL     1       8.454  -0.792  22.762  0.00  0.00    +0.210 C 
ATOM     10  O   UNL     1       7.920   0.229  22.331  0.00  0.00    -0.276 OA
ATOM     11  C   UNL     1       9.549  -1.476  21.999  0.00  0.00    +0.109 C 
ENDBRANCH   2   7
BRANCH   3  12
ATOM     12  O   UNL     1       9.078   0.334  26.067  0.00  0.00    -0.387 OA
ATOM     13  H   UNL     1       8.805  -0.113  26.883  0.00  0.00    +0.210 HD
ENDBRANCH   3  12
BRANCH   4  14
ATOM     14  O   UNL     1       7.452   2.872  26.444  0.00  0.00    -0.341 OA
BRANCH  14  15
ATOM     15  C   UNL     1       7.902   3.735  25.398  0.00  0.00    +0.274 C 
ATOM     16  C   UNL     1       8.230   5.173  25.866  0.00  0.00    +0.160 C 
ATOM     17  C   UNL     1       8.839   5.954  24.660  0.00  0.00    +0.171 C 
ATOM     18  C   UNL     1      10.018   5.174  24.028  0.00  0.00    +0.176 C 
ATOM     19  C   UNL     1       9.527   3.774  23.659  0.00  0.00    +0.178 C 
ATOM     20  O   UNL     1       9.072   3.151  24.852  0.00  0.00    -0.341 OA
BRANCH  16  21
ATOM     21  N   UNL     1       7.116   5.882  26.531  0.00  0.00    -0.305 N 
ATOM     22  H   UNL     1       6.628   6.581  25.982  0.00  0.00    +0.149 HD
ATOM     23  C   UNL     1       6.846   5.829  27.875  0.00  0.00    +0.210 C 
ATOM     24  O   UNL     1       7.500   5.129  28.646  0.00  0.00    -0.276 OA
ATOM     25  C   UNL     1       5.667   6.638  28.336  0.00  0.00    +0.109 C 
ENDBRANCH  16  21
BRANCH  18  26
ATOM     26  O   UNL     1      10.466   5.851  22.854  0.00  0.00    -0.387 OA
ATOM     27  H   UNL     1      10.442   5.172  22.144  0.00  0.00    +0.210 HD
ENDBRANCH  18  26
BRANCH  17  28
ATOM     28  O   UNL     1       7.924   6.167  23.562  0.00  0.00    -0.387 OA
ATOM     29  H   UNL     1       7.793   5.319  23.082  0.00  0.00    +0.210 HD
ENDBRANCH  17  28
BRANCH  19  30
ATOM     30  C   UNL     1      10.570   2.857  23.002  0.00  0.00    +0.190 C 
BRANCH  30  31
ATOM     31  O   UNL     1      10.149   2.306  21.764  0.00  0.00    -0.392 OA
ATOM     32  H   UNL     1       9.416   1.691  21.932  0.00  0.00    +0.210 HD
ENDBRANCH  30  31
ENDBRANCH  19  30
ENDBRANCH  14  15
ENDBRANCH   4  14
BRANCH   5  33
ATOM     33  C   UNL     1       4.843   1.620  27.510  0.00  0.00    +0.190 C 
BRANCH  33  34
ATOM     34  O   UNL     1       5.254   2.778  28.237  0.00  0.00    -0.392 OA
ATOM     35  H   UNL     1       4.443   3.285  28.432  0.00  0.00    +0.210 HD
ENDBRANCH  33  34
ENDBRANCH   5  33
BRANCH   1  36
ATOM     36  O   UNL     1       6.354  -2.655  25.995  0.00  0.00    -0.343 OA
BRANCH  36  44
ATOM     37  C   UNL     1       3.335  -4.851  23.275  0.00  0.00    +0.133 C 
ATOM     38  N   UNL     1       4.778  -4.912  23.121  0.00  0.00    -0.292 N 
ATOM     39  C   UNL     1       5.545  -5.272  24.194  0.00  0.00    +0.281 C 
ATOM     40  O   UNL     1       6.883  -5.120  24.013  0.00  0.00    -0.460 OA
ATOM     41  C   UNL     1       7.491  -5.502  25.242  0.00  0.00    +0.211 C 
ATOM     42  C   UNL     1       6.329  -5.815  26.171  0.00  0.00    +0.182 C 
ATOM     43  C   UNL     1       6.310  -4.717  27.253  0.00  0.00    +0.172 C 
ATOM     44  C   UNL     1       7.205  -3.579  26.714  0.00  0.00    +0.161 C 
ATOM     45  C   UNL     1       8.252  -4.315  25.836  0.00  0.00    +0.089 C 
ATOM     46  N   UNL     1       5.128  -5.715  25.332  0.00  0.00    -0.227 NA
ATOM     47  C   UNL     1       5.336  -4.797  21.789  0.00  0.00    +0.133 C 
BRANCH  43  48
ATOM     48  O   UNL     1       6.764  -5.215  28.514  0.00  0.00    -0.387 OA
ATOM     49  H   UNL     1       7.468  -5.869  28.391  0.00  0.00    +0.210 HD
ENDBRANCH  43  48
BRANCH  45  50
ATOM     50  C   UNL     1       9.483  -4.771  26.621  0.00  0.00    +0.165 C 
BRANCH  50  51
ATOM     51  O   UNL     1      10.397  -5.442  25.769  0.00  0.00    -0.395 OA
ATOM     52  H   UNL     1      10.606  -6.320  26.139  0.00  0.00    +0.209 HD
ENDBRANCH  50  51
ENDBRANCH  45  50
ENDBRANCH  36  44
ENDBRANCH   1  36
TORSDOF 16
ENDMDL
MODEL 8
REMARK VINA RESULT:      -6.0      1.584      3.021
REMARK  Name = 
REMARK  20 active torsions:
REMARK  status: ('A' for Active; 'I' for Inactive)
REMARK    1  A    between atoms: C_1  and  N_2
REMARK    2  A    between atoms: N_2  and  C_3
REMARK    3  A    between atoms: C_8  and  O_10
REMARK    4  A    between atoms: C_11  and  O_13
REMARK    5  A    between atoms: O_13  and  C_14
REMARK    6  A    between atoms: C_17  and  C_19
REMARK    7  A    between atoms: C_19  and  O_20
REMARK    8  A    between atoms: C_21  and  O_23
REMARK    9  A    between atoms: O_23  and  C_24
REMARK   10  A    between atoms: C_27  and  C_29
REMARK   11  A    between atoms: C_29  and  O_30
REMARK   12  A    between atoms: C_31  and  O_33
REMARK   13  A    between atoms: C_34  and  O_36
REMARK   14  A    between atoms: C_37  and  N_39
REMARK   15  A    between atoms: C_40  and  C_41
REMARK   16  A    between atoms: C_43  and  O_45
REMARK   17  A    between atoms: C_46  and  N_48
REMARK   18  A    between atoms: C_49  and  C_50
REMARK   19  A    between atoms: C_52  and  C_54
REMARK   20  A    between atoms: C_54  and  O_55
REMARK                            x       y       z     vdW  Elec       q    Type
REMARK                         _______ _______ _______ _____ _____    ______ ____
ROOT
ATOM      1  C   UNL     1       6.058  -0.838  25.757  0.00  0.00    +0.274 C 
ATOM      2  C   UNL     1       6.285   0.623  26.221  0.00  0.00    +0.160 C 
ATOM      3  C   UNL     1       5.835   1.518  25.039  0.00  0.00    +0.171 C 
ATOM      4  C   UNL     1       6.695   1.194  23.794  0.00  0.00    +0.183 C 
ATOM      5  C   UNL     1       6.818  -0.345  23.555  0.00  0.00    +0.178 C 
ATOM      6  O   UNL     1       7.066  -1.097  24.765  0.00  0.00    -0.341 OA
ENDROOT
BRANCH   2   7
ATOM      7  N   UNL     1       5.631   1.070  27.446  0.00  0.00    -0.305 N 
ATOM      8  H   UNL     1       4.853   1.714  27.348  0.00  0.00    +0.149 HD
ATOM      9  C   UNL     1       6.416   1.159  28.579  0.00  0.00    +0.210 C 
ATOM     10  O   UNL     1       7.568   0.733  28.637  0.00  0.00    -0.276 OA
ATOM     11  C   UNL     1       5.782   1.841  29.756  0.00  0.00    +0.109 C 
ENDBRANCH   2   7
BRANCH   3  12
ATOM     12  O   UNL     1       4.413   1.331  24.860  0.00  0.00    -0.387 OA
ATOM     13  H   UNL     1       4.048   0.809  25.592  0.00  0.00    +0.210 HD
ENDBRANCH   3  12
BRANCH   4  14
ATOM     14  O   UNL     1       6.366   2.007  22.634  0.00  0.00    -0.341 OA
BRANCH  14  15
ATOM     15  C   UNL     1       7.151   3.188  22.467  0.00  0.00    +0.274 C 
ATOM     16  C   UNL     1       6.451   4.483  22.945  0.00  0.00    +0.160 C 
ATOM     17  C   UNL     1       7.469   5.660  22.836  0.00  0.00    +0.171 C 
ATOM     18  C   UNL     1       8.797   5.318  23.554  0.00  0.00    +0.176 C 
ATOM     19  C   UNL     1       9.329   4.002  22.985  0.00  0.00    +0.178 C 
ATOM     20  O   UNL     1       8.341   3.006  23.216  0.00  0.00    -0.341 OA
BRANCH  16  21
ATOM     21  N   UNL     1       5.150   4.761  22.301  0.00  0.00    -0.305 N 
ATOM     22  H   UNL     1       5.174   5.270  21.425  0.00  0.00    +0.149 HD
ATOM     23  C   UNL     1       3.927   4.589  22.900  0.00  0.00    +0.210 C 
ATOM     24  O   UNL     1       3.814   4.131  24.036  0.00  0.00    -0.276 OA
ATOM     25  C   UNL     1       2.733   4.945  22.061  0.00  0.00    +0.109 C 
ENDBRANCH  16  21
BRANCH  18  26
ATOM     26  O   UNL     1       9.748   6.358  23.325  0.00  0.00    -0.387 OA
ATOM     27  H   UNL     1       9.240   7.074  22.885  0.00  0.00    +0.210 HD
ENDBRANCH  18  26
BRANCH  17  28
ATOM     28  O   UNL     1       7.869   5.983  21.485  0.00  0.00    -0.387 OA
ATOM     29  H   UNL     1       8.688   6.526  21.513  0.00  0.00    +0.210 HD
ENDBRANCH  17  28
BRANCH  19  30
ATOM     30  C   UNL     1      10.658   3.511  23.578  0.00  0.00    +0.190 C 
BRANCH  30  31
ATOM     31  O   UNL     1      11.798   4.168  23.047  0.00  0.00    -0.392 OA
ATOM     32  H   UNL     1      11.506   4.796  22.366  0.00  0.00    +0.210 HD
ENDBRANCH  30  31
ENDBRANCH  19  30
ENDBRANCH  14  15
ENDBRANCH   4  14
BRANCH   5  33
ATOM     33  C   UNL     1       7.946  -0.641  22.557  0.00  0.00    +0.190 C 
BRANCH  33  34
ATOM     34  O   UNL     1       9.016   0.287  22.730  0.00  0.00    -0.392 OA
ATOM     35  H   UNL     1       9.603  -0.090  23.413  0.00  0.00    +0.210 HD
ENDBRANCH  33  34
ENDBRANCH   5  33
BRANCH   1  36
ATOM     36  O   UNL     1       6.081  -1.799  26.804  0.00  0.00    -0.343 OA
BRANCH  36  44
ATOM     37  C   UNL     1       8.318  -4.142  23.511  0.00  0.00    +0.133 C 
ATOM     38  N   UNL     1       7.958  -4.686  24.809  0.00  0.00    -0.292 N 
ATOM     39  C   UNL     1       6.657  -4.612  25.222  0.00  0.00    +0.281 C 
ATOM     40  O   UNL     1       6.450  -4.972  26.515  0.00  0.00    -0.460 OA
ATOM     41  C   UNL     1       5.059  -4.786  26.756  0.00  0.00    +0.211 C 
ATOM     42  C   UNL     1       4.515  -4.200  25.464  0.00  0.00    +0.182 C 
ATOM     43  C   UNL     1       4.116  -2.741  25.763  0.00  0.00    +0.172 C 
ATOM     44  C   UNL     1       4.794  -2.387  27.105  0.00  0.00    +0.161 C 
ATOM     45  C   UNL     1       4.858  -3.743  27.858  0.00  0.00    +0.089 C 
ATOM     46  N   UNL     1       5.642  -4.230  24.523  0.00  0.00    -0.227 NA
ATOM     47  C   UNL     1       8.942  -5.473  25.524  0.00  0.00    +0.133 C 
BRANCH  43  48
ATOM     48  O   UNL     1       2.695  -2.586  25.813  0.00  0.00    -0.387 OA
ATOM     49  H   UNL     1       2.400  -2.423  26.721  0.00  0.00    +0.210 HD
ENDBRANCH  43  48
BRANCH  45  50
ATOM     50  C   UNL     1       3.605  -4.033  28.686  0.00  0.00    +0.165 C 
BRANCH  50  51
ATOM     51  O   UNL     1       3.958  -4.559  29.955  0.00  0.00    -0.395 OA
ATOM     52  H   UNL     1       3.907  -3.855  30.627  0.00  0.00    +0.209 HD
ENDBRANCH  50  51
ENDBRANCH  45  50
ENDBRANCH  36  44
ENDBRANCH   1  36
TORSDOF 16
ENDMDL
MODEL 9
REMARK VINA RESULT:      -5.9      2.473      8.544
REMARK  Name = 
REMARK  20 active torsions:
REMARK  status: ('A' for Active; 'I' for Inactive)
REMARK    1  A    between atoms: C_1  and  N_2
REMARK    2  A    between atoms: N_2  and  C_3
REMARK    3  A    between atoms: C_8  and  O_10
REMARK    4  A    between atoms: C_11  and  O_13
REMARK    5  A    between atoms: O_13  and  C_14
REMARK    6  A    between atoms: C_17  and  C_19
REMARK    7  A    between atoms: C_19  and  O_20
REMARK    8  A    between atoms: C_21  and  O_23
REMARK    9  A    between atoms: O_23  and  C_24
REMARK   10  A    between atoms: C_27  and  C_29
REMARK   11  A    between atoms: C_29  and  O_30
REMARK   12  A    between atoms: C_31  and  O_33
REMARK   13  A    between atoms: C_34  and  O_36
REMARK   14  A    between atoms: C_37  and  N_39
REMARK   15  A    between atoms: C_40  and  C_41
REMARK   16  A    between atoms: C_43  and  O_45
REMARK   17  A    between atoms: C_46  and  N_48
REMARK   18  A    between atoms: C_49  and  C_50
REMARK   19  A    between atoms: C_52  and  C_54
REMARK   20  A    between atoms: C_54  and  O_55
REMARK                            x       y       z     vdW  Elec       q    Type
REMARK                         _______ _______ _______ _____ _____    ______ ____
ROOT
ATOM      1  C   UNL     1       7.122   0.530  25.381  0.00  0.00    +0.274 C 
ATOM      2  C   UNL     1       7.784  -0.782  24.888  0.00  0.00    +0.160 C 
ATOM      3  C   UNL     1       6.633  -1.649  24.319  0.00  0.00    +0.171 C 
ATOM      4  C   UNL     1       5.604  -1.936  25.439  0.00  0.00    +0.183 C 
ATOM      5  C   UNL     1       5.236  -0.644  26.237  0.00  0.00    +0.178 C 
ATOM      6  O   UNL     1       6.381   0.178  26.561  0.00  0.00    -0.341 OA
ENDROOT
BRANCH   2   7
ATOM      7  N   UNL     1       8.855  -0.690  23.903  0.00  0.00    -0.305 N 
ATOM      8  H   UNL     1       8.702  -0.081  23.106  0.00  0.00    +0.149 HD
ATOM      9  C   UNL     1       9.646  -1.809  23.729  0.00  0.00    +0.210 C 
ATOM     10  O   UNL     1       9.591  -2.794  24.463  0.00  0.00    -0.276 OA
ATOM     11  C   UNL     1      10.579  -1.769  22.555  0.00  0.00    +0.109 C 
ENDBRANCH   2   7
BRANCH   3  12
ATOM     12  O   UNL     1       6.096  -0.967  23.163  0.00  0.00    -0.387 OA
ATOM     13  H   UNL     1       6.407  -1.391  22.348  0.00  0.00    +0.210 HD
ENDBRANCH   3  12
BRANCH   4  14
ATOM     14  O   UNL     1       4.495  -2.771  25.009  0.00  0.00    -0.341 OA
BRANCH  14  15
ATOM     15  C   UNL     1       4.470  -4.091  25.553  0.00  0.00    +0.274 C 
ATOM     16  C   UNL     1       5.531  -5.043  24.948  0.00  0.00    +0.160 C 
ATOM     17  C   UNL     1       5.482  -6.392  25.730  0.00  0.00    +0.171 C 
ATOM     18  C   UNL     1       5.592  -6.157  27.256  0.00  0.00    +0.176 C 
ATOM     19  C   UNL     1       4.498  -5.174  27.674  0.00  0.00    +0.178 C 
ATOM     20  O   UNL     1       4.703  -3.971  26.946  0.00  0.00    -0.341 OA
BRANCH  16  21
ATOM     21  N   UNL     1       5.457  -5.204  23.481  0.00  0.00    -0.305 N 
ATOM     22  H   UNL     1       4.546  -5.415  23.089  0.00  0.00    +0.149 HD
ATOM     23  C   UNL     1       6.544  -5.314  22.650  0.00  0.00    +0.210 C 
ATOM     24  O   UNL     1       7.698  -5.237  23.069  0.00  0.00    -0.276 OA
ATOM     25  C   UNL     1       6.235  -5.482  21.190  0.00  0.00    +0.109 C 
ENDBRANCH  16  21
BRANCH  18  26
ATOM     26  O   UNL     1       5.415  -7.394  27.946  0.00  0.00    -0.387 OA
ATOM     27  H   UNL     1       5.875  -8.062  27.393  0.00  0.00    +0.210 HD
ENDBRANCH  18  26
BRANCH  17  28
ATOM     28  O   UNL     1       4.250  -7.131  25.573  0.00  0.00    -0.387 OA
ATOM     29  H   UNL     1       4.450  -8.094  25.572  0.00  0.00    +0.210 HD
ENDBRANCH  17  28
BRANCH  19  30
ATOM     30  C   UNL     1       4.449  -4.832  29.170  0.00  0.00    +0.190 C 
BRANCH  30  31
ATOM     31  O   UNL     1       5.638  -5.162  29.872  0.00  0.00    -0.392 OA
ATOM     32  H   UNL     1       5.992  -5.990  29.511  0.00  0.00    +0.210 HD
ENDBRANCH  30  31
ENDBRANCH  19  30
ENDBRANCH  14  15
ENDBRANCH   4  14
BRANCH   5  33
ATOM     33  C   UNL     1       4.514  -1.011  27.541  0.00  0.00    +0.190 C 
BRANCH  33  34
ATOM     34  O   UNL     1       3.173  -1.416  27.266  0.00  0.00    -0.392 OA
ATOM     35  H   UNL     1       2.671  -0.602  27.071  0.00  0.00    +0.210 HD
ENDBRANCH  33  34
ENDBRANCH   5  33
BRANCH   1  36
ATOM     36  O   UNL     1       8.033   1.595  25.622  0.00  0.00    -0.343 OA
BRANCH  36  44
ATOM     37  C   UNL     1       5.055   2.402  29.060  0.00  0.00    +0.133 C 
ATOM     38  N   UNL     1       6.192   3.247  28.739  0.00  0.00    -0.292 N 
ATOM     39  C   UNL     1       6.335   3.711  27.461  0.00  0.00    +0.281 C 
ATOM     40  O   UNL     1       7.516   4.333  27.210  0.00  0.00    -0.460 OA
ATOM     41  C   UNL     1       7.483   4.696  25.834  0.00  0.00    +0.211 C 
ATOM     42  C   UNL     1       6.171   4.134  25.313  0.00  0.00    +0.182 C 
ATOM     43  C   UNL     1       6.523   2.985  24.348  0.00  0.00    +0.172 C 
ATOM     44  C   UNL     1       8.004   2.643  24.625  0.00  0.00    +0.161 C 
ATOM     45  C   UNL     1       8.617   3.994  25.084  0.00  0.00    +0.089 C 
ATOM     46  N   UNL     1       5.482   3.603  26.497  0.00  0.00    -0.227 NA
ATOM     47  C   UNL     1       7.014   3.741  29.826  0.00  0.00    +0.133 C 
BRANCH  43  48
ATOM     48  O   UNL     1       6.295   3.356  22.986  0.00  0.00    -0.387 OA
ATOM     49  H   UNL     1       6.686   4.222  22.796  0.00  0.00    +0.210 HD
ENDBRANCH  43  48
BRANCH  45  50
ATOM     50  C   UNL     1       9.138   4.845  23.925  0.00  0.00    +0.165 C 
BRANCH  50  51
ATOM     51  O   UNL     1       9.809   4.034  22.974  0.00  0.00    -0.395 OA
ATOM     52  H   UNL     1      10.767   4.213  23.010  0.00  0.00    +0.209 HD
ENDBRANCH  50  51
ENDBRANCH  45  50
ENDBRANCH  36  44
ENDBRANCH   1  36
TORSDOF 16
ENDMDL
