MODEL 1
REMARK VINA RESULT:      -6.2      0.000      0.000
REMARK  Name = 
REMARK  5 active torsions:
REMARK  status: ('A' for Active; 'I' for Inactive)
REMARK    1  A    between atoms: C_2  and  C_4
REMARK    2  A    between atoms: C_4  and  S_5
REMARK    3  A    between atoms: S_5  and  C_7
REMARK    4  A    between atoms: C_7  and  C_8
REMARK    5  A    between atoms: C_7  and  C_14
REMARK                            x       y       z     vdW  Elec       q    Type
REMARK                         _______ _______ _______ _____ _____    ______ ____
ROOT
ATOM      1  C   UNL     1       8.236  -3.023  23.908  0.00  0.00    +0.139 C 
ENDROOT
BRANCH   1   2
ATOM      2  C   UNL     1       8.579  -1.675  23.265  0.00  0.00    -0.028 A 
ATOM      3  C   UNL     1       9.508  -1.572  22.212  0.00  0.00    +0.005 A 
ATOM      4  C   UNL     1       9.773  -0.348  21.599  0.00  0.00    +0.000 A 
ATOM      5  C   UNL     1       9.106   0.795  22.022  0.00  0.00    +0.000 A 
ATOM      6  C   UNL     1       8.187   0.720  23.066  0.00  0.00    +0.000 A 
ATOM      7  C   UNL     1       7.931  -0.505  23.691  0.00  0.00    +0.005 A 
ENDBRANCH   1   2
BRANCH   1   8
ATOM      8  C   UNL     1       7.454  -3.958  22.989  0.00  0.00    -0.028 A 
ATOM      9  C   UNL     1       7.795  -5.323  22.931  0.00  0.00    +0.005 A 
ATOM     10  C   UNL     1       7.130  -6.196  22.064  0.00  0.00    +0.000 A 
ATOM     11  C   UNL     1       6.122  -5.721  21.229  0.00  0.00    +0.000 A 
ATOM     12  C   UNL     1       5.770  -4.376  21.272  0.00  0.00    +0.000 A 
ATOM     13  C   UNL     1       6.421  -3.506  22.152  0.00  0.00    +0.005 A 
ENDBRANCH   1   8
BRANCH   1  14
ATOM     14  S   UNL     1       7.436  -2.735  25.555  0.00  0.00    +0.043 S 
ATOM     15  O   UNL     1       8.532  -2.622  26.582  0.00  0.00    -0.256 OA
BRANCH  14  16
ATOM     16  C   UNL     1       6.691  -4.373  25.776  0.00  0.00    +0.200 C 
BRANCH  16  20
ATOM     17  N   UNL     1       8.597  -5.713  26.509  0.00  0.00    -0.329 N 
ATOM     18  H   UNL     1       9.123  -5.298  25.739  0.00  0.00    +0.145 HD
ATOM     19  H   UNL     1       9.157  -6.085  27.267  0.00  0.00    +0.145 HD
ATOM     20  C   UNL     1       7.423  -5.112  26.876  0.00  0.00    +0.223 C 
ATOM     21  O   UNL     1       6.994  -5.213  28.020  0.00  0.00    -0.275 OA
ENDBRANCH  16  20
ENDBRANCH  14  16
ENDBRANCH   1  14
TORSDOF 5
ENDMDL
MODEL 2
REMARK VINA RESULT:      -6.0      1.471      4.542
REMARK  Name = 
REMARK  5 active torsions:
REMARK  status: ('A' for Active; 'I' for Inactive)
REMARK    1  A    between atoms: C_2  and  C_4
REMARK    2  A    between atoms: C_4  and  S_5
REMARK    3  A    between atoms: S_5  and  C_7
REMARK    4  A    between atoms: C_7  and  C_8
REMARK    5  A    between atoms: C_7  and  C_14
REMARK                            x       y       z     vdW  Elec       q    Type
REMARK                         _______ _______ _______ _____ _____    ______ ____
ROOT
ATOM      1  C   UNL     1       7.421  -3.202  24.442  0.00  0.00    +0.139 C 
ENDROOT
BRANCH   1   2
ATOM      2  C   UNL     1       6.793  -4.256  23.523  0.00  0.00    -0.028 A 
ATOM      3  C   UNL     1       5.435  -4.612  23.625  0.00  0.00    +0.005 A 
ATOM      4  C   UNL     1       4.861  -5.533  22.749  0.00  0.00    +0.000 A 
ATOM      5  C   UNL     1       5.634  -6.109  21.748  0.00  0.00    +0.000 A 
ATOM      6  C   UNL     1       6.982  -5.778  21.631  0.00  0.00    +0.000 A 
ATOM      7  C   UNL     1       7.562  -4.864  22.519  0.00  0.00    +0.005 A 
ENDBRANCH   1   2
BRANCH   1   8
ATOM      8  C   UNL     1       8.308  -2.201  23.708  0.00  0.00    -0.028 A 
ATOM      9  C   UNL     1       7.721  -1.104  23.047  0.00  0.00    +0.005 A 
ATOM     10  C   UNL     1       8.501  -0.195  22.326  0.00  0.00    +0.000 A 
ATOM     11  C   UNL     1       9.879  -0.371  22.238  0.00  0.00    +0.000 A 
ATOM     12  C   UNL     1      10.478  -1.447  22.884  0.00  0.00    +0.000 A 
ATOM     13  C   UNL     1       9.702  -2.346  23.622  0.00  0.00    +0.005 A 
ENDBRANCH   1   8
BRANCH   1  14
ATOM     14  S   UNL     1       8.249  -4.045  25.871  0.00  0.00    +0.043 S 
ATOM     15  O   UNL     1       8.579  -5.450  25.442  0.00  0.00    -0.256 OA
BRANCH  14  16
ATOM     16  C   UNL     1       6.813  -4.166  26.971  0.00  0.00    +0.200 C 
BRANCH  16  20
ATOM     17  N   UNL     1       5.838  -6.371  26.575  0.00  0.00    -0.329 N 
ATOM     18  H   UNL     1       5.802  -6.123  25.585  0.00  0.00    +0.145 HD
ATOM     19  H   UNL     1       5.827  -7.365  26.775  0.00  0.00    +0.145 HD
ATOM     20  C   UNL     1       6.626  -5.609  27.394  0.00  0.00    +0.223 C 
ATOM     21  O   UNL     1       7.108  -6.077  28.420  0.00  0.00    -0.275 OA
ENDBRANCH  16  20
ENDBRANCH  14  16
ENDBRANCH   1  14
TORSDOF 5
ENDMDL
MODEL 3
REMARK VINA RESULT:      -5.8      5.824      9.079
REMARK  Name = 
REMARK  5 active torsions:
REMARK  status: ('A' for Active; 'I' for Inactive)
REMARK    1  A    between atoms: C_2  and  C_4
REMARK    2  A    between atoms: C_4  and  S_5
REMARK    3  A    between atoms: S_5  and  C_7
REMARK    4  A    between atoms: C_7  and  C_8
REMARK    5  A    between atoms: C_7  and  C_14
REMARK                            x       y       z     vdW  Elec       q    Type
REMARK                         _______ _______ _______ _____ _____    ______ ____
ROOT
ATOM      1  C   UNL     1       9.031   4.018  23.546  0.00  0.00    +0.139 C 
ENDROOT
BRANCH   1   2
ATOM      2  C   UNL     1       9.477   2.563  23.363  0.00  0.00    -0.028 A 
ATOM      3  C   UNL     1       9.398   1.916  22.115  0.00  0.00    +0.005 A 
ATOM      4  C   UNL     1       9.857   0.609  21.948  0.00  0.00    +0.000 A 
ATOM      5  C   UNL     1      10.412  -0.071  23.025  0.00  0.00    +0.000 A 
ATOM      6  C   UNL     1      10.496   0.546  24.271  0.00  0.00    +0.000 A 
ATOM      7  C   UNL     1      10.023   1.851  24.443  0.00  0.00    +0.005 A 
ENDBRANCH   1   2
BRANCH   1   8
ATOM      8  C   UNL     1      10.164   4.960  23.943  0.00  0.00    -0.028 A 
ATOM      9  C   UNL     1      11.450   4.769  23.402  0.00  0.00    +0.005 A 
ATOM     10  C   UNL     1      12.520   5.586  23.782  0.00  0.00    +0.000 A 
ATOM     11  C   UNL     1      12.330   6.598  24.718  0.00  0.00    +0.000 A 
ATOM     12  C   UNL     1      11.067   6.804  25.263  0.00  0.00    +0.000 A 
ATOM     13  C   UNL     1       9.992   6.001  24.871  0.00  0.00    +0.005 A 
ENDBRANCH   1   8
BRANCH   1  14
ATOM     14  S   UNL     1       7.564   4.074  24.679  0.00  0.00    +0.043 S 
ATOM     15  O   UNL     1       6.739   2.841  24.419  0.00  0.00    -0.256 OA
BRANCH  14  16
ATOM     16  C   UNL     1       6.685   5.455  23.900  0.00  0.00    +0.200 C 
BRANCH  16  20
ATOM     17  N   UNL     1       6.052   4.193  21.906  0.00  0.00    -0.329 N 
ATOM     18  H   UNL     1       5.255   3.844  22.440  0.00  0.00    +0.145 HD
ATOM     19  H   UNL     1       5.951   4.155  20.898  0.00  0.00    +0.145 HD
ATOM     20  C   UNL     1       6.717   5.285  22.395  0.00  0.00    +0.223 C 
ATOM     21  O   UNL     1       7.324   6.041  21.645  0.00  0.00    -0.275 OA
ENDBRANCH  16  20
ENDBRANCH  14  16
ENDBRANCH   1  14
TORSDOF 5
ENDMDL
MODEL 4
REMARK VINA RESULT:      -5.7      1.689      2.305
REMARK  Name = 
REMARK  5 active torsions:
REMARK  status: ('A' for Active; 'I' for Inactive)
REMARK    1  A    between atoms: C_2  and  C_4
REMARK    2  A    between atoms: C_4  and  S_5
REMARK    3  A    between atoms: S_5  and  C_7
REMARK    4  A    between atoms: C_7  and  C_8
REMARK    5  A    between atoms: C_7  and  C_14
REMARK                            x       y       z     vdW  Elec       q    Type
REMARK                         _______ _______ _______ _____ _____    ______ ____
ROOT
ATOM      1  C   UNL     1       9.061  -3.580  24.157  0.00  0.00    +0.139 C 
ENDROOT
BRANCH   1   2
ATOM      2  C   UNL     1       9.414  -2.089  24.197  0.00  0.00    -0.028 A 
ATOM      3  C   UNL     1       9.134  -1.292  25.323  0.00  0.00    +0.005 A 
ATOM      4  C   UNL     1       9.507   0.051  25.370  0.00  0.00    +0.000 A 
ATOM      5  C   UNL     1      10.176   0.619  24.294  0.00  0.00    +0.000 A 
ATOM      6  C   UNL     1      10.459  -0.147  23.165  0.00  0.00    +0.000 A 
ATOM      7  C   UNL     1      10.073  -1.490  23.112  0.00  0.00    +0.005 A 
ENDBRANCH   1   2
BRANCH   1   8
ATOM      8  C   UNL     1       7.783  -3.885  23.381  0.00  0.00    -0.028 A 
ATOM      9  C   UNL     1       6.836  -2.864  23.170  0.00  0.00    +0.005 A 
ATOM     10  C   UNL     1       5.633  -3.123  22.505  0.00  0.00    +0.000 A 
ATOM     11  C   UNL     1       5.346  -4.407  22.051  0.00  0.00    +0.000 A 
ATOM     12  C   UNL     1       6.269  -5.429  22.248  0.00  0.00    +0.000 A 
ATOM     13  C   UNL     1       7.480  -5.168  22.896  0.00  0.00    +0.005 A 
ENDBRANCH   1   8
BRANCH   1  14
ATOM     14  S   UNL     1       9.087  -4.266  25.878  0.00  0.00    +0.043 S 
ATOM     15  O   UNL     1       9.460  -5.723  25.784  0.00  0.00    -0.256 OA
BRANCH  14  16
ATOM     16  C   UNL     1       7.306  -4.211  26.210  0.00  0.00    +0.200 C 
BRANCH  16  20
ATOM     17  N   UNL     1       7.427  -6.123  27.726  0.00  0.00    -0.329 N 
ATOM     18  H   UNL     1       7.774  -5.476  28.436  0.00  0.00    +0.145 HD
ATOM     19  H   UNL     1       7.013  -6.977  28.081  0.00  0.00    +0.145 HD
ATOM     20  C   UNL     1       6.829  -5.590  26.616  0.00  0.00    +0.223 C 
ATOM     21  O   UNL     1       5.990  -6.225  25.986  0.00  0.00    -0.275 OA
ENDBRANCH  16  20
ENDBRANCH  14  16
ENDBRANCH   1  14
TORSDOF 5
ENDMDL
MODEL 5
REMARK VINA RESULT:      -5.7      2.143      4.925
REMARK  Name = 
REMARK  5 active torsions:
REMARK  status: ('A' for Active; 'I' for Inactive)
REMARK    1  A    between atoms: C_2  and  C_4
REMARK    2  A    between atoms: C_4  and  S_5
REMARK    3  A    between atoms: S_5  and  C_7
REMARK    4  A    between atoms: C_7  and  C_8
REMARK    5  A    between atoms: C_7  and  C_14
REMARK                            x       y       z     vdW  Elec       q    Type
REMARK                         _______ _______ _______ _____ _____    ______ ____
ROOT
ATOM      1  C   UNL     1       6.666  -1.988  23.537  0.00  0.00    +0.139 C 
ENDROOT
BRANCH   1   2
ATOM      2  C   UNL     1       6.728  -3.393  22.929  0.00  0.00    -0.028 A 
ATOM      3  C   UNL     1       6.060  -3.711  21.731  0.00  0.00    +0.005 A 
ATOM      4  C   UNL     1       6.166  -4.978  21.158  0.00  0.00    +0.000 A 
ATOM      5  C   UNL     1       6.951  -5.949  21.769  0.00  0.00    +0.000 A 
ATOM      6  C   UNL     1       7.617  -5.660  22.957  0.00  0.00    +0.000 A 
ATOM      7  C   UNL     1       7.500  -4.393  23.540  0.00  0.00    +0.005 A 
ENDBRANCH   1   2
BRANCH   1   8
ATOM      8  C   UNL     1       7.507  -0.959  22.787  0.00  0.00    -0.028 A 
ATOM      9  C   UNL     1       8.685  -1.366  22.131  0.00  0.00    +0.005 A 
ATOM     10  C   UNL     1       9.502  -0.441  21.475  0.00  0.00    +0.000 A 
ATOM     11  C   UNL     1       9.167   0.911  21.472  0.00  0.00    +0.000 A 
ATOM     12  C   UNL     1       8.007   1.333  22.112  0.00  0.00    +0.000 A 
ATOM     13  C   UNL     1       7.179   0.407  22.752  0.00  0.00    +0.005 A 
ENDBRANCH   1   8
BRANCH   1  14
ATOM     14  S   UNL     1       7.029  -2.086  25.353  0.00  0.00    +0.043 S 
ATOM     15  O   UNL     1       6.444  -0.860  26.002  0.00  0.00    -0.256 OA
BRANCH  14  16
ATOM     16  C   UNL     1       8.821  -1.824  25.276  0.00  0.00    +0.200 C 
BRANCH  16  20
ATOM     17  N   UNL     1       9.009  -0.452  27.290  0.00  0.00    -0.329 N 
ATOM     18  H   UNL     1       9.125  -1.322  27.812  0.00  0.00    +0.145 HD
ATOM     19  H   UNL     1       9.369   0.379  27.744  0.00  0.00    +0.145 HD
ATOM     20  C   UNL     1       9.162  -0.500  25.930  0.00  0.00    +0.223 C 
ATOM     21  O   UNL     1       9.517   0.490  25.300  0.00  0.00    -0.275 OA
ENDBRANCH  16  20
ENDBRANCH  14  16
ENDBRANCH   1  14
TORSDOF 5
ENDMDL
MODEL 6
REMARK VINA RESULT:      -5.5      2.673      3.894
REMARK  Name = 
REMARK  5 active torsions:
REMARK  status: ('A' for Active; 'I' for Inactive)
REMARK    1  A    between atoms: C_2  and  C_4
REMARK    2  A    between atoms: C_4  and  S_5
REMARK    3  A    between atoms: S_5  and  C_7
REMARK    4  A    between atoms: C_7  and  C_8
REMARK    5  A    between atoms: C_7  and  C_14
REMARK                            x       y       z     vdW  Elec       q    Type
REMARK                         _______ _______ _______ _____ _____    ______ ____
ROOT
ATOM      1  C   UNL     1       7.078  -2.594  23.898  0.00  0.00    +0.139 C 
ENDROOT
BRANCH   1   2
ATOM      2  C   UNL     1       8.336  -1.722  23.814  0.00  0.00    -0.028 A 
ATOM      3  C   UNL     1       9.247  -1.839  22.748  0.00  0.00    +0.005 A 
ATOM      4  C   UNL     1      10.361  -1.003  22.653  0.00  0.00    +0.000 A 
ATOM      5  C   UNL     1      10.578  -0.030  23.620  0.00  0.00    +0.000 A 
ATOM      6  C   UNL     1       9.693   0.101  24.689  0.00  0.00    +0.000 A 
ATOM      7  C   UNL     1       8.584  -0.746  24.792  0.00  0.00    +0.005 A 
ENDBRANCH   1   2
BRANCH   1   8
ATOM      8  C   UNL     1       7.096  -3.582  25.062  0.00  0.00    -0.028 A 
ATOM      9  C   UNL     1       5.893  -3.902  25.722  0.00  0.00    +0.005 A 
ATOM     10  C   UNL     1       5.882  -4.766  26.821  0.00  0.00    +0.000 A 
ATOM     11  C   UNL     1       7.071  -5.316  27.292  0.00  0.00    +0.000 A 
ATOM     12  C   UNL     1       8.269  -5.014  26.653  0.00  0.00    +0.000 A 
ATOM     13  C   UNL     1       8.280  -4.165  25.542  0.00  0.00    +0.005 A 
ENDBRANCH   1   8
BRANCH   1  14
ATOM     14  S   UNL     1       6.756  -3.372  22.247  0.00  0.00    +0.043 S 
ATOM     15  O   UNL     1       5.265  -3.407  22.042  0.00  0.00    -0.256 OA
BRANCH  14  16
ATOM     16  C   UNL     1       7.260  -5.066  22.653  0.00  0.00    +0.200 C 
BRANCH  16  20
ATOM     17  N   UNL     1       5.736  -6.275  21.174  0.00  0.00    -0.329 N 
ATOM     18  H   UNL     1       6.475  -6.249  20.471  0.00  0.00    +0.145 HD
ATOM     19  H   UNL     1       5.043  -7.004  21.049  0.00  0.00    +0.145 HD
ATOM     20  C   UNL     1       6.079  -5.997  22.470  0.00  0.00    +0.223 C 
ATOM     21  O   UNL     1       5.432  -6.455  23.405  0.00  0.00    -0.275 OA
ENDBRANCH  16  20
ENDBRANCH  14  16
ENDBRANCH   1  14
TORSDOF 5
ENDMDL
MODEL 7
REMARK VINA RESULT:      -5.5      2.769      5.623
REMARK  Name = 
REMARK  5 active torsions:
REMARK  status: ('A' for Active; 'I' for Inactive)
REMARK    1  A    between atoms: C_2  and  C_4
REMARK    2  A    between atoms: C_4  and  S_5
REMARK    3  A    between atoms: S_5  and  C_7
REMARK    4  A    between atoms: C_7  and  C_8
REMARK    5  A    between atoms: C_7  and  C_14
REMARK                            x       y       z     vdW  Elec       q    Type
REMARK                         _______ _______ _______ _____ _____    ______ ____
ROOT
ATOM      1  C   UNL     1       8.196  -2.892  23.660  0.00  0.00    +0.139 C 
ENDROOT
BRANCH   1   2
ATOM      2  C   UNL     1       7.730  -3.527  24.974  0.00  0.00    -0.028 A 
ATOM      3  C   UNL     1       6.806  -2.884  25.821  0.00  0.00    +0.005 A 
ATOM      4  C   UNL     1       6.348  -3.494  26.988  0.00  0.00    +0.000 A 
ATOM      5  C   UNL     1       6.800  -4.764  27.326  0.00  0.00    +0.000 A 
ATOM      6  C   UNL     1       7.718  -5.418  26.509  0.00  0.00    +0.000 A 
ATOM      7  C   UNL     1       8.188  -4.800  25.344  0.00  0.00    +0.005 A 
ENDBRANCH   1   2
BRANCH   1   8
ATOM      8  C   UNL     1       8.611  -1.430  23.800  0.00  0.00    -0.028 A 
ATOM      9  C   UNL     1       9.776  -1.102  24.520  0.00  0.00    +0.005 A 
ATOM     10  C   UNL     1      10.157   0.230  24.708  0.00  0.00    +0.000 A 
ATOM     11  C   UNL     1       9.377   1.261  24.191  0.00  0.00    +0.000 A 
ATOM     12  C   UNL     1       8.224   0.958  23.475  0.00  0.00    +0.000 A 
ATOM     13  C   UNL     1       7.850  -0.373  23.271  0.00  0.00    +0.005 A 
ENDBRANCH   1   8
BRANCH   1  14
ATOM     14  S   UNL     1       6.927  -3.198  22.344  0.00  0.00    +0.043 S 
ATOM     15  O   UNL     1       5.571  -3.146  22.997  0.00  0.00    -0.256 OA
BRANCH  14  16
ATOM     16  C   UNL     1       7.285  -4.949  22.037  0.00  0.00    +0.200 C 
BRANCH  16  20
ATOM     17  N   UNL     1       5.192  -6.206  22.135  0.00  0.00    -0.329 N 
ATOM     18  H   UNL     1       5.083  -5.856  23.088  0.00  0.00    +0.145 HD
ATOM     19  H   UNL     1       4.337  -6.506  21.681  0.00  0.00    +0.145 HD
ATOM     20  C   UNL     1       6.106  -5.584  21.328  0.00  0.00    +0.223 C 
ATOM     21  O   UNL     1       5.976  -5.588  20.109  0.00  0.00    -0.275 OA
ENDBRANCH  16  20
ENDBRANCH  14  16
ENDBRANCH   1  14
TORSDOF 5
ENDMDL
MODEL 8
REMARK VINA RESULT:      -5.5      1.302      4.396
REMARK  Name = 
REMARK  5 active torsions:
REMARK  status: ('A' for Active; 'I' for Inactive)
REMARK    1  A    between atoms: C_2  and  C_4
REMARK    2  A    between atoms: C_4  and  S_5
REMARK    3  A    between atoms: S_5  and  C_7
REMARK    4  A    between atoms: C_7  and  C_8
REMARK    5  A    between atoms: C_7  and  C_14
REMARK                            x       y       z     vdW  Elec       q    Type
REMARK                         _______ _______ _______ _____ _____    ______ ____
ROOT
ATOM      1  C   UNL     1       7.073  -2.132  24.165  0.00  0.00    +0.139 C 
ENDROOT
BRANCH   1   2
ATOM      2  C   UNL     1       6.696  -3.465  23.508  0.00  0.00    -0.028 A 
ATOM      3  C   UNL     1       7.186  -3.830  22.240  0.00  0.00    +0.005 A 
ATOM      4  C   UNL     1       6.880  -5.068  21.675  0.00  0.00    +0.000 A 
ATOM      5  C   UNL     1       6.084  -5.968  22.373  0.00  0.00    +0.000 A 
ATOM      6  C   UNL     1       5.582  -5.627  23.627  0.00  0.00    +0.000 A 
ATOM      7  C   UNL     1       5.878  -4.380  24.189  0.00  0.00    +0.005 A 
ENDBRANCH   1   2
BRANCH   1   8
ATOM      8  C   UNL     1       7.908  -1.223  23.267  0.00  0.00    -0.028 A 
ATOM      9  C   UNL     1       7.398   0.031  22.879  0.00  0.00    +0.005 A 
ATOM     10  C   UNL     1       8.117   0.867  22.019  0.00  0.00    +0.000 A 
ATOM     11  C   UNL     1       9.352   0.462  21.520  0.00  0.00    +0.000 A 
ATOM     12  C   UNL     1       9.874  -0.772  21.893  0.00  0.00    +0.000 A 
ATOM     13  C   UNL     1       9.165  -1.601  22.767  0.00  0.00    +0.005 A 
ENDBRANCH   1   8
BRANCH   1  14
ATOM     14  S   UNL     1       7.825  -2.456  25.828  0.00  0.00    +0.043 S 
ATOM     15  O   UNL     1       8.514  -1.192  26.271  0.00  0.00    -0.256 OA
BRANCH  14  16
ATOM     16  C   UNL     1       9.132  -3.599  25.306  0.00  0.00    +0.200 C 
BRANCH  16  20
ATOM     17  N   UNL     1       9.775  -5.930  25.660  0.00  0.00    -0.329 N 
ATOM     18  H   UNL     1      10.628  -5.723  25.139  0.00  0.00    +0.145 HD
ATOM     19  H   UNL     1       9.826  -6.733  26.276  0.00  0.00    +0.145 HD
ATOM     20  C   UNL     1       9.037  -4.873  26.121  0.00  0.00    +0.223 C 
ATOM     21  O   UNL     1       8.324  -4.987  27.112  0.00  0.00    -0.275 OA
ENDBRANCH  16  20
ENDBRANCH  14  16
ENDBRANCH   1  14
TORSDOF 5
ENDMDL
MODEL 9
REMARK VINA RESULT:      -5.4      3.414      5.026
REMARK  Name = 
REMARK  5 active torsions:
REMARK  status: ('A' for Active; 'I' for Inactive)
REMARK    1  A    between atoms: C_2  and  C_4
REMARK    2  A    between atoms: C_4  and  S_5
REMARK    3  A    between atoms: S_5  and  C_7
REMARK    4  A    between atoms: C_7  and  C_8
REMARK    5  A    between atoms: C_7  and  C_14
REMARK                            x       y       z     vdW  Elec       q    Type
REMARK                         _______ _______ _______ _____ _____    ______ ____
ROOT
ATOM      1  C   UNL     1       7.423  -1.220  23.141  0.00  0.00    +0.139 C 
ENDROOT
BRANCH   1   2
ATOM      2  C   UNL     1       6.769  -0.544  24.351  0.00  0.00    -0.028 A 
ATOM      3  C   UNL     1       6.084   0.680  24.235  0.00  0.00    +0.005 A 
ATOM      4  C   UNL     1       5.447   1.260  25.332  0.00  0.00    +0.000 A 
ATOM      5  C   UNL     1       5.476   0.620  26.564  0.00  0.00    +0.000 A 
ATOM      6  C   UNL     1       6.152  -0.589  26.706  0.00  0.00    +0.000 A 
ATOM      7  C   UNL     1       6.803  -1.165  25.610  0.00  0.00    +0.005 A 
ENDBRANCH   1   2
BRANCH   1   8
ATOM      8  C   UNL     1       7.071  -2.699  23.003  0.00  0.00    -0.028 A 
ATOM      9  C   UNL     1       5.791  -3.072  22.551  0.00  0.00    +0.005 A 
ATOM     10  C   UNL     1       5.422  -4.417  22.459  0.00  0.00    +0.000 A 
ATOM     11  C   UNL     1       6.319  -5.416  22.829  0.00  0.00    +0.000 A 
ATOM     12  C   UNL     1       7.589  -5.069  23.276  0.00  0.00    +0.000 A 
ATOM     13  C   UNL     1       7.966  -3.725  23.351  0.00  0.00    +0.005 A 
ENDBRANCH   1   8
BRANCH   1  14
ATOM     14  S   UNL     1       9.243  -0.869  23.148  0.00  0.00    +0.043 S 
ATOM     15  O   UNL     1       9.483   0.275  24.098  0.00  0.00    -0.256 OA
BRANCH  14  16
ATOM     16  C   UNL     1       9.385  -0.188  21.474  0.00  0.00    +0.200 C 
BRANCH  16  20
ATOM     17  N   UNL     1      10.121   2.127  21.737  0.00  0.00    -0.329 N 
ATOM     18  H   UNL     1      11.046   1.815  21.437  0.00  0.00    +0.145 HD
ATOM     19  H   UNL     1       9.936   3.116  21.618  0.00  0.00    +0.145 HD
ATOM     20  C   UNL     1       9.062   1.291  21.506  0.00  0.00    +0.223 C 
ATOM     21  O   UNL     1       7.926   1.735  21.375  0.00  0.00    -0.275 OA
ENDBRANCH  16  20
ENDBRANCH  14  16
ENDBRANCH   1  14
TORSDOF 5
ENDMDL
