MODEL 1
REMARK VINA RESULT:      -6.2      0.000      0.000
REMARK  Name = 
REMARK  7 active torsions:
REMARK  status: ('A' for Active; 'I' for Inactive)
REMARK    1  A    between atoms: C_1  and  C_2
REMARK    2  A    between atoms: C_2  and  N_4
REMARK    3  A    between atoms: C_2  and  C_17
REMARK    4  A    between atoms: C_5  and  C_7
REMARK    5  A    between atoms: C_7  and  S_14
REMARK    6  A    between atoms: C_8  and  C_10
REMARK    7  A    between atoms: S_14  and  C_15
REMARK                            x       y       z     vdW  Elec       q    Type
REMARK                         _______ _______ _______ _____ _____    ______ ____
ROOT
ATOM      1  N   UNL     1       8.354  -1.554  23.688  0.00  0.00    -0.307 N 
ATOM      2  H   UNL     1       7.447  -1.118  23.736  0.00  0.00    +0.149 HD
ATOM      3  C   UNL     1       8.506  -2.890  23.998  0.00  0.00    +0.235 C 
ATOM      4  O   UNL     1       9.570  -3.486  23.888  0.00  0.00    -0.274 OA
ENDROOT
BRANCH   3   5
ATOM      5  C   UNL     1       7.283  -3.579  24.482  0.00  0.00    +0.159 C 
ATOM      6  C   UNL     1       6.010  -3.545  23.640  0.00  0.00    +0.148 C 
ATOM      7 CL   UNL     1       5.988  -2.866  22.006  0.00  0.00    -0.098 Cl
ATOM      8 CL   UNL     1       4.377  -3.491  24.349  0.00  0.00    -0.098 Cl
ATOM      9  C   UNL     1       6.744  -4.853  23.862  0.00  0.00    +0.054 C 
ATOM     10  C   UNL     1       7.421  -5.562  22.734  0.00  0.00    +0.012 C 
BRANCH   5  11
ATOM     11  S   UNL     1       6.924  -3.391  26.310  0.00  0.00    +0.037 S 
ATOM     12  C   UNL     1       7.816  -4.846  26.895  0.00  0.00    +0.122 C 
ATOM     13  O   UNL     1       7.697  -2.195  26.768  0.00  0.00    -0.256 OA
ENDBRANCH   5  11
ENDBRANCH   3   5
BRANCH   1  15
ATOM     14  C   UNL     1       9.448  -0.925  21.573  0.00  0.00    +0.033 C 
ATOM     15  C   UNL     1       9.437  -0.781  23.099  0.00  0.00    +0.100 C 
BRANCH  15  16
ATOM     16  C   UNL     1       9.329   0.654  23.588  0.00  0.00    -0.027 A 
ATOM     17  C   UNL     1      10.119   1.695  23.073  0.00  0.00    +0.006 A 
ATOM     18  C   UNL     1       9.954   3.007  23.527  0.00  0.00    +0.015 A 
ATOM     19  C   UNL     1       8.993   3.292  24.493  0.00  0.00    +0.018 A 
ATOM     20 BR   UNL     1       8.766   5.068  25.100  0.00  0.00    -0.050 Br
ATOM     21  C   UNL     1       8.192   2.277  25.009  0.00  0.00    +0.015 A 
ATOM     22  C   UNL     1       8.358   0.966  24.555  0.00  0.00    +0.006 A 
ENDBRANCH  15  16
ENDBRANCH   1  15
TORSDOF 4
ENDMDL
MODEL 2
REMARK VINA RESULT:      -6.0      1.930      2.878
REMARK  Name = 
REMARK  7 active torsions:
REMARK  status: ('A' for Active; 'I' for Inactive)
REMARK    1  A    between atoms: C_1  and  C_2
REMARK    2  A    between atoms: C_2  and  N_4
REMARK    3  A    between atoms: C_2  and  C_17
REMARK    4  A    between atoms: C_5  and  C_7
REMARK    5  A    between atoms: C_7  and  S_14
REMARK    6  A    between atoms: C_8  and  C_10
REMARK    7  A    between atoms: S_14  and  C_15
REMARK                            x       y       z     vdW  Elec       q    Type
REMARK                         _______ _______ _______ _____ _____    ______ ____
ROOT
ATOM      1  N   UNL     1       8.597  -1.501  23.611  0.00  0.00    -0.307 N 
ATOM      2  H   UNL     1       7.679  -1.088  23.562  0.00  0.00    +0.149 HD
ATOM      3  C   UNL     1       8.758  -2.800  24.047  0.00  0.00    +0.235 C 
ATOM      4  O   UNL     1       9.840  -3.374  24.059  0.00  0.00    -0.274 OA
ENDROOT
BRANCH   3   5
ATOM      5  C   UNL     1       7.521  -3.478  24.512  0.00  0.00    +0.159 C 
ATOM      6  C   UNL     1       7.561  -4.363  25.755  0.00  0.00    +0.148 C 
ATOM      7 CL   UNL     1       9.000  -4.468  26.780  0.00  0.00    -0.098 Cl
ATOM      8 CL   UNL     1       6.572  -5.833  25.934  0.00  0.00    -0.098 Cl
ATOM      9  C   UNL     1       6.768  -3.071  25.763  0.00  0.00    +0.054 C 
ATOM     10  C   UNL     1       7.175  -1.919  26.623  0.00  0.00    +0.012 C 
BRANCH   5  11
ATOM     11  S   UNL     1       6.448  -4.207  23.162  0.00  0.00    +0.037 S 
ATOM     12  C   UNL     1       4.889  -3.427  23.625  0.00  0.00    +0.122 C 
ATOM     13  O   UNL     1       6.890  -3.568  21.883  0.00  0.00    -0.256 OA
ENDBRANCH   5  11
ENDBRANCH   3   5
BRANCH   1  15
ATOM     14  C   UNL     1       9.794  -1.005  21.517  0.00  0.00    +0.033 C 
ATOM     15  C   UNL     1       9.699  -0.753  23.026  0.00  0.00    +0.100 C 
BRANCH  15  16
ATOM     16  C   UNL     1       9.545   0.712  23.404  0.00  0.00    -0.027 A 
ATOM     17  C   UNL     1       8.804   1.136  24.519  0.00  0.00    +0.006 A 
ATOM     18  C   UNL     1       8.725   2.492  24.849  0.00  0.00    +0.015 A 
ATOM     19  C   UNL     1       9.393   3.435  24.073  0.00  0.00    +0.018 A 
ATOM     20 BR   UNL     1       9.292   5.268  24.525  0.00  0.00    -0.050 Br
ATOM     21  C   UNL     1      10.141   3.036  22.969  0.00  0.00    +0.015 A 
ATOM     22  C   UNL     1      10.220   1.680  22.640  0.00  0.00    +0.006 A 
ENDBRANCH  15  16
ENDBRANCH   1  15
TORSDOF 4
ENDMDL
MODEL 3
REMARK VINA RESULT:      -6.0      4.365      6.631
REMARK  Name = 
REMARK  7 active torsions:
REMARK  status: ('A' for Active; 'I' for Inactive)
REMARK    1  A    between atoms: C_1  and  C_2
REMARK    2  A    between atoms: C_2  and  N_4
REMARK    3  A    between atoms: C_2  and  C_17
REMARK    4  A    between atoms: C_5  and  C_7
REMARK    5  A    between atoms: C_7  and  S_14
REMARK    6  A    between atoms: C_8  and  C_10
REMARK    7  A    between atoms: S_14  and  C_15
REMARK                            x       y       z     vdW  Elec       q    Type
REMARK                         _______ _______ _______ _____ _____    ______ ____
ROOT
ATOM      1  N   UNL     1       8.371  -0.278  24.609  0.00  0.00    -0.307 N 
ATOM      2  H   UNL     1       7.388  -0.182  24.412  0.00  0.00    +0.149 HD
ATOM      3  C   UNL     1       9.187   0.834  24.664  0.00  0.00    +0.235 C 
ATOM      4  O   UNL     1      10.371   0.781  24.969  0.00  0.00    -0.274 OA
ENDROOT
BRANCH   3   5
ATOM      5  C   UNL     1       8.534   2.124  24.326  0.00  0.00    +0.159 C 
ATOM      6  C   UNL     1       9.368   3.271  23.758  0.00  0.00    +0.148 C 
ATOM      7 CL   UNL     1      11.067   3.057  23.311  0.00  0.00    -0.098 Cl
ATOM      8 CL   UNL     1       9.039   4.984  24.119  0.00  0.00    -0.098 Cl
ATOM      9  C   UNL     1       8.312   2.598  22.904  0.00  0.00    +0.054 C 
ATOM     10  C   UNL     1       8.687   1.788  21.705  0.00  0.00    +0.012 C 
BRANCH   5  11
ATOM     11  S   UNL     1       7.255   2.725  25.554  0.00  0.00    +0.037 S 
ATOM     12  C   UNL     1       5.779   2.364  24.582  0.00  0.00    +0.122 C 
ATOM     13  O   UNL     1       7.275   1.751  26.690  0.00  0.00    -0.256 OA
ENDBRANCH   5  11
ENDBRANCH   3   5
BRANCH   1  15
ATOM     14  C   UNL     1       8.547  -1.842  26.503  0.00  0.00    +0.033 C 
ATOM     15  C   UNL     1       8.845  -1.591  25.021  0.00  0.00    +0.100 C 
BRANCH  15  16
ATOM     16  C   UNL     1       8.259  -2.633  24.082  0.00  0.00    -0.027 A 
ATOM     17  C   UNL     1       8.386  -4.014  24.303  0.00  0.00    +0.006 A 
ATOM     18  C   UNL     1       7.794  -4.933  23.432  0.00  0.00    +0.015 A 
ATOM     19  C   UNL     1       7.063  -4.480  22.337  0.00  0.00    +0.018 A 
ATOM     20 BR   UNL     1       6.256  -5.725  21.165  0.00  0.00    -0.050 Br
ATOM     21  C   UNL     1       6.916  -3.116  22.105  0.00  0.00    +0.015 A 
ATOM     22  C   UNL     1       7.507  -2.198  22.976  0.00  0.00    +0.006 A 
ENDBRANCH  15  16
ENDBRANCH   1  15
TORSDOF 4
ENDMDL
MODEL 4
REMARK VINA RESULT:      -5.9      1.635      2.126
REMARK  Name = 
REMARK  7 active torsions:
REMARK  status: ('A' for Active; 'I' for Inactive)
REMARK    1  A    between atoms: C_1  and  C_2
REMARK    2  A    between atoms: C_2  and  N_4
REMARK    3  A    between atoms: C_2  and  C_17
REMARK    4  A    between atoms: C_5  and  C_7
REMARK    5  A    between atoms: C_7  and  S_14
REMARK    6  A    between atoms: C_8  and  C_10
REMARK    7  A    between atoms: S_14  and  C_15
REMARK                            x       y       z     vdW  Elec       q    Type
REMARK                         _______ _______ _______ _____ _____    ______ ____
ROOT
ATOM      1  N   UNL     1       8.278  -1.558  24.107  0.00  0.00    -0.307 N 
ATOM      2  H   UNL     1       7.627  -1.396  23.356  0.00  0.00    +0.149 HD
ATOM      3  C   UNL     1       7.962  -2.419  25.137  0.00  0.00    +0.235 C 
ATOM      4  O   UNL     1       8.744  -2.705  26.035  0.00  0.00    -0.274 OA
ENDROOT
BRANCH   3   5
ATOM      5  C   UNL     1       6.592  -2.991  25.096  0.00  0.00    +0.159 C 
ATOM      6  C   UNL     1       6.226  -4.005  24.014  0.00  0.00    +0.148 C 
ATOM      7 CL   UNL     1       7.438  -4.669  22.908  0.00  0.00    -0.098 Cl
ATOM      8 CL   UNL     1       4.606  -4.100  23.280  0.00  0.00    -0.098 Cl
ATOM      9  C   UNL     1       6.278  -4.426  25.470  0.00  0.00    +0.054 C 
ATOM     10  C   UNL     1       7.311  -5.388  25.961  0.00  0.00    +0.012 C 
BRANCH   5  11
ATOM     11  S   UNL     1       5.204  -1.780  25.425  0.00  0.00    +0.037 S 
ATOM     12  C   UNL     1       5.593  -1.407  27.146  0.00  0.00    +0.122 C 
ATOM     13  O   UNL     1       5.522  -0.551  24.632  0.00  0.00    -0.256 OA
ENDBRANCH   5  11
ENDBRANCH   3   5
BRANCH   1  15
ATOM     14  C   UNL     1      10.305  -1.569  22.708  0.00  0.00    +0.033 C 
ATOM     15  C   UNL     1       9.618  -1.009  23.958  0.00  0.00    +0.100 C 
BRANCH  15  16
ATOM     16  C   UNL     1       9.526   0.508  23.992  0.00  0.00    -0.027 A 
ATOM     17  C   UNL     1       8.637   1.198  24.831  0.00  0.00    +0.006 A 
ATOM     18  C   UNL     1       8.618   2.596  24.855  0.00  0.00    +0.015 A 
ATOM     19  C   UNL     1       9.495   3.316  24.048  0.00  0.00    +0.018 A 
ATOM     20 BR   UNL     1       9.473   5.206  24.088  0.00  0.00    -0.050 Br
ATOM     21  C   UNL     1      10.391   2.652  23.216  0.00  0.00    +0.015 A 
ATOM     22  C   UNL     1      10.409   1.255  23.193  0.00  0.00    +0.006 A 
ENDBRANCH  15  16
ENDBRANCH   1  15
TORSDOF 4
ENDMDL
MODEL 5
REMARK VINA RESULT:      -5.9      2.918      4.157
REMARK  Name = 
REMARK  7 active torsions:
REMARK  status: ('A' for Active; 'I' for Inactive)
REMARK    1  A    between atoms: C_1  and  C_2
REMARK    2  A    between atoms: C_2  and  N_4
REMARK    3  A    between atoms: C_2  and  C_17
REMARK    4  A    between atoms: C_5  and  C_7
REMARK    5  A    between atoms: C_7  and  S_14
REMARK    6  A    between atoms: C_8  and  C_10
REMARK    7  A    between atoms: S_14  and  C_15
REMARK                            x       y       z     vdW  Elec       q    Type
REMARK                         _______ _______ _______ _____ _____    ______ ____
ROOT
ATOM      1  N   UNL     1       8.000   1.779  24.755  0.00  0.00    -0.307 N 
ATOM      2  H   UNL     1       8.322   1.327  25.596  0.00  0.00    +0.149 HD
ATOM      3  C   UNL     1       7.528   1.032  23.695  0.00  0.00    +0.235 C 
ATOM      4  O   UNL     1       7.059   1.533  22.680  0.00  0.00    -0.274 OA
ENDROOT
BRANCH   3   5
ATOM      5  C   UNL     1       7.621  -0.440  23.856  0.00  0.00    +0.159 C 
ATOM      6  C   UNL     1       8.348  -1.275  22.803  0.00  0.00    +0.148 C 
ATOM      7 CL   UNL     1       9.250  -0.526  21.478  0.00  0.00    -0.098 Cl
ATOM      8 CL   UNL     1       7.841  -2.921  22.348  0.00  0.00    -0.098 Cl
ATOM      9  C   UNL     1       8.908  -1.160  24.207  0.00  0.00    +0.054 C 
ATOM     10  C   UNL     1      10.196  -0.448  24.470  0.00  0.00    +0.012 C 
BRANCH   5  11
ATOM     11  S   UNL     1       6.067  -1.282  24.473  0.00  0.00    +0.037 S 
ATOM     12  C   UNL     1       6.786  -2.142  25.886  0.00  0.00    +0.122 C 
ATOM     13  O   UNL     1       5.194  -0.199  25.023  0.00  0.00    -0.256 OA
ENDBRANCH   5  11
ENDBRANCH   3   5
BRANCH   1  15
ATOM     14  C   UNL     1       7.469   3.716  26.179  0.00  0.00    +0.033 C 
ATOM     15  C   UNL     1       7.871   3.228  24.783  0.00  0.00    +0.100 C 
BRANCH  15  16
ATOM     16  C   UNL     1       9.160   3.839  24.256  0.00  0.00    -0.027 A 
ATOM     17  C   UNL     1       9.433   5.214  24.322  0.00  0.00    +0.006 A 
ATOM     18  C   UNL     1      10.650   5.723  23.861  0.00  0.00    +0.015 A 
ATOM     19  C   UNL     1      11.610   4.860  23.338  0.00  0.00    +0.018 A 
ATOM     20 BR   UNL     1      13.259   5.549  22.723  0.00  0.00    -0.050 Br
ATOM     21  C   UNL     1      11.364   3.492  23.273  0.00  0.00    +0.015 A 
ATOM     22  C   UNL     1      10.147   2.985  23.734  0.00  0.00    +0.006 A 
ENDBRANCH  15  16
ENDBRANCH   1  15
TORSDOF 4
ENDMDL
MODEL 6
REMARK VINA RESULT:      -5.8      2.081      2.874
REMARK  Name = 
REMARK  7 active torsions:
REMARK  status: ('A' for Active; 'I' for Inactive)
REMARK    1  A    between atoms: C_1  and  C_2
REMARK    2  A    between atoms: C_2  and  N_4
REMARK    3  A    between atoms: C_2  and  C_17
REMARK    4  A    between atoms: C_5  and  C_7
REMARK    5  A    between atoms: C_7  and  S_14
REMARK    6  A    between atoms: C_8  and  C_10
REMARK    7  A    between atoms: S_14  and  C_15
REMARK                            x       y       z     vdW  Elec       q    Type
REMARK                         _______ _______ _______ _____ _____    ______ ____
ROOT
ATOM      1  N   UNL     1       8.317  -2.301  24.447  0.00  0.00    -0.307 N 
ATOM      2  H   UNL     1       7.516  -1.851  24.034  0.00  0.00    +0.149 HD
ATOM      3  C   UNL     1       8.223  -3.586  24.940  0.00  0.00    +0.235 C 
ATOM      4  O   UNL     1       9.181  -4.203  25.388  0.00  0.00    -0.274 OA
ENDROOT
BRANCH   3   5
ATOM      5  C   UNL     1       6.868  -4.191  24.897  0.00  0.00    +0.159 C 
ATOM      6  C   UNL     1       6.417  -5.124  26.019  0.00  0.00    +0.148 C 
ATOM      7 CL   UNL     1       7.388  -5.368  27.477  0.00  0.00    -0.098 Cl
ATOM      8 CL   UNL     1       5.352  -6.525  25.748  0.00  0.00    -0.098 Cl
ATOM      9  C   UNL     1       5.742  -3.780  25.824  0.00  0.00    +0.054 C 
ATOM     10  C   UNL     1       5.876  -2.692  26.840  0.00  0.00    +0.012 C 
BRANCH   5  11
ATOM     11  S   UNL     1       6.309  -4.791  23.214  0.00  0.00    +0.037 S 
ATOM     12  C   UNL     1       4.966  -3.616  22.957  0.00  0.00    +0.122 C 
ATOM     13  O   UNL     1       7.397  -4.423  22.255  0.00  0.00    -0.256 OA
ENDBRANCH   5  11
ENDBRANCH   3   5
BRANCH   1  15
ATOM     14  C   UNL     1      10.298  -2.003  23.015  0.00  0.00    +0.033 C 
ATOM     15  C   UNL     1       9.600  -1.624  24.326  0.00  0.00    +0.100 C 
BRANCH  15  16
ATOM     16  C   UNL     1       9.379  -0.131  24.504  0.00  0.00    -0.027 A 
ATOM     17  C   UNL     1      10.234   0.837  23.954  0.00  0.00    +0.006 A 
ATOM     18  C   UNL     1       9.966   2.199  24.111  0.00  0.00    +0.015 A 
ATOM     19  C   UNL     1       8.834   2.607  24.813  0.00  0.00    +0.018 A 
ATOM     20 BR   UNL     1       8.468   4.450  25.019  0.00  0.00    -0.050 Br
ATOM     21  C   UNL     1       7.967   1.665  25.359  0.00  0.00    +0.015 A 
ATOM     22  C   UNL     1       8.237   0.303  25.200  0.00  0.00    +0.006 A 
ENDBRANCH  15  16
ENDBRANCH   1  15
TORSDOF 4
ENDMDL
MODEL 7
REMARK VINA RESULT:      -5.7      3.607      5.092
REMARK  Name = 
REMARK  7 active torsions:
REMARK  status: ('A' for Active; 'I' for Inactive)
REMARK    1  A    between atoms: C_1  and  C_2
REMARK    2  A    between atoms: C_2  and  N_4
REMARK    3  A    between atoms: C_2  and  C_17
REMARK    4  A    between atoms: C_5  and  C_7
REMARK    5  A    between atoms: C_7  and  S_14
REMARK    6  A    between atoms: C_8  and  C_10
REMARK    7  A    between atoms: S_14  and  C_15
REMARK                            x       y       z     vdW  Elec       q    Type
REMARK                         _______ _______ _______ _____ _____    ______ ____
ROOT
ATOM      1  N   UNL     1       5.991  -5.136  24.057  0.00  0.00    -0.307 N 
ATOM      2  H   UNL     1       5.232  -4.853  23.458  0.00  0.00    +0.149 HD
ATOM      3  C   UNL     1       5.751  -5.514  25.363  0.00  0.00    +0.235 C 
ATOM      4  O   UNL     1       6.626  -5.933  26.110  0.00  0.00    -0.274 OA
ENDROOT
BRANCH   3   5
ATOM      5  C   UNL     1       4.345  -5.383  25.819  0.00  0.00    +0.159 C 
ATOM      6  C   UNL     1       4.045  -4.791  27.195  0.00  0.00    +0.148 C 
ATOM      7 CL   UNL     1       5.315  -4.080  28.202  0.00  0.00    -0.098 Cl
ATOM      8 CL   UNL     1       2.687  -5.334  28.212  0.00  0.00    -0.098 Cl
ATOM      9  C   UNL     1       3.628  -4.052  25.939  0.00  0.00    +0.054 C 
ATOM     10  C   UNL     1       4.257  -2.749  25.563  0.00  0.00    +0.012 C 
BRANCH   5  11
ATOM     11  S   UNL     1       3.230  -6.832  25.418  0.00  0.00    +0.037 S 
ATOM     12  C   UNL     1       2.025  -5.954  24.403  0.00  0.00    +0.122 C 
ATOM     13  O   UNL     1       4.009  -7.718  24.497  0.00  0.00    -0.256 OA
ENDBRANCH   5  11
ENDBRANCH   3   5
BRANCH   1  15
ATOM     14  C   UNL     1       7.171  -5.988  22.071  0.00  0.00    +0.033 C 
ATOM     15  C   UNL     1       7.297  -5.314  23.441  0.00  0.00    +0.100 C 
BRANCH  15  16
ATOM     16  C   UNL     1       8.005  -3.968  23.410  0.00  0.00    -0.027 A 
ATOM     17  C   UNL     1       9.057  -3.642  24.281  0.00  0.00    +0.006 A 
ATOM     18  C   UNL     1       9.704  -2.406  24.186  0.00  0.00    +0.015 A 
ATOM     19  C   UNL     1       9.311  -1.490  23.214  0.00  0.00    +0.018 A 
ATOM     20 BR   UNL     1      10.192   0.178  23.082  0.00  0.00    -0.050 Br
ATOM     21  C   UNL     1       8.277  -1.797  22.334  0.00  0.00    +0.015 A 
ATOM     22  C   UNL     1       7.632  -3.033  22.429  0.00  0.00    +0.006 A 
ENDBRANCH  15  16
ENDBRANCH   1  15
TORSDOF 4
ENDMDL
MODEL 8
REMARK VINA RESULT:      -5.5      2.309      3.475
REMARK  Name = 
REMARK  7 active torsions:
REMARK  status: ('A' for Active; 'I' for Inactive)
REMARK    1  A    between atoms: C_1  and  C_2
REMARK    2  A    between atoms: C_2  and  N_4
REMARK    3  A    between atoms: C_2  and  C_17
REMARK    4  A    between atoms: C_5  and  C_7
REMARK    5  A    between atoms: C_7  and  S_14
REMARK    6  A    between atoms: C_8  and  C_10
REMARK    7  A    between atoms: S_14  and  C_15
REMARK                            x       y       z     vdW  Elec       q    Type
REMARK                         _______ _______ _______ _____ _____    ______ ____
ROOT
ATOM      1  N   UNL     1       7.977  -0.361  25.257  0.00  0.00    -0.307 N 
ATOM      2  H   UNL     1       8.928  -0.505  25.558  0.00  0.00    +0.149 HD
ATOM      3  C   UNL     1       7.319  -1.328  24.526  0.00  0.00    +0.235 C 
ATOM      4  O   UNL     1       6.143  -1.234  24.196  0.00  0.00    -0.274 OA
ENDROOT
BRANCH   3   5
ATOM      5  C   UNL     1       8.132  -2.513  24.153  0.00  0.00    +0.159 C 
ATOM      6  C   UNL     1       8.262  -3.681  25.128  0.00  0.00    +0.148 C 
ATOM      7 CL   UNL     1       7.323  -3.757  26.625  0.00  0.00    -0.098 Cl
ATOM      8 CL   UNL     1       9.744  -4.657  25.283  0.00  0.00    -0.098 Cl
ATOM      9  C   UNL     1       7.530  -3.862  23.812  0.00  0.00    +0.054 C 
ATOM     10  C   UNL     1       6.057  -4.114  23.775  0.00  0.00    +0.012 C 
BRANCH   5  11
ATOM     11  S   UNL     1       9.746  -2.140  23.281  0.00  0.00    +0.037 S 
ATOM     12  C   UNL     1       9.065  -1.341  21.814  0.00  0.00    +0.122 C 
ATOM     13  O   UNL     1      10.419  -1.071  24.083  0.00  0.00    -0.256 OA
ENDBRANCH   5  11
ENDBRANCH   3   5
BRANCH   1  15
ATOM     14  C   UNL     1       7.129   0.707  27.308  0.00  0.00    +0.033 C 
ATOM     15  C   UNL     1       7.278   0.801  25.786  0.00  0.00    +0.100 C 
BRANCH  15  16
ATOM     16  C   UNL     1       7.992   2.055  25.306  0.00  0.00    -0.027 A 
ATOM     17  C   UNL     1       8.967   2.036  24.296  0.00  0.00    +0.006 A 
ATOM     18  C   UNL     1       9.566   3.221  23.860  0.00  0.00    +0.015 A 
ATOM     19  C   UNL     1       9.190   4.437  24.425  0.00  0.00    +0.018 A 
ATOM     20 BR   UNL     1       9.996   6.040  23.830  0.00  0.00    -0.050 Br
ATOM     21  C   UNL     1       8.219   4.480  25.421  0.00  0.00    +0.015 A 
ATOM     22  C   UNL     1       7.620   3.294  25.854  0.00  0.00    +0.006 A 
ENDBRANCH  15  16
ENDBRANCH   1  15
TORSDOF 4
ENDMDL
MODEL 9
REMARK VINA RESULT:      -5.5      1.736      2.656
REMARK  Name = 
REMARK  7 active torsions:
REMARK  status: ('A' for Active; 'I' for Inactive)
REMARK    1  A    between atoms: C_1  and  C_2
REMARK    2  A    between atoms: C_2  and  N_4
REMARK    3  A    between atoms: C_2  and  C_17
REMARK    4  A    between atoms: C_5  and  C_7
REMARK    5  A    between atoms: C_7  and  S_14
REMARK    6  A    between atoms: C_8  and  C_10
REMARK    7  A    between atoms: S_14  and  C_15
REMARK                            x       y       z     vdW  Elec       q    Type
REMARK                         _______ _______ _______ _____ _____    ______ ____
ROOT
ATOM      1  N   UNL     1       7.622  -0.959  25.096  0.00  0.00    -0.307 N 
ATOM      2  H   UNL     1       8.575  -1.270  25.197  0.00  0.00    +0.149 HD
ATOM      3  C   UNL     1       6.635  -1.840  24.703  0.00  0.00    +0.235 C 
ATOM      4  O   UNL     1       5.452  -1.533  24.633  0.00  0.00    -0.274 OA
ENDROOT
BRANCH   3   5
ATOM      5  C   UNL     1       7.097  -3.209  24.363  0.00  0.00    +0.159 C 
ATOM      6  C   UNL     1       6.593  -3.887  23.092  0.00  0.00    +0.148 C 
ATOM      7 CL   UNL     1       5.610  -3.024  21.900  0.00  0.00    -0.098 Cl
ATOM      8 CL   UNL     1       6.298  -5.640  22.976  0.00  0.00    -0.098 Cl
ATOM      9  C   UNL     1       8.054  -3.507  23.226  0.00  0.00    +0.054 C 
ATOM     10  C   UNL     1       8.660  -2.444  22.368  0.00  0.00    +0.012 C 
BRANCH   5  11
ATOM     11  S   UNL     1       7.205  -4.402  25.802  0.00  0.00    +0.037 S 
ATOM     12  C   UNL     1       8.954  -4.820  25.657  0.00  0.00    +0.122 C 
ATOM     13  O   UNL     1       7.057  -3.578  27.042  0.00  0.00    -0.256 OA
ENDBRANCH   5  11
ENDBRANCH   3   5
BRANCH   1  15
ATOM     14  C   UNL     1       7.215   0.423  27.093  0.00  0.00    +0.033 C 
ATOM     15  C   UNL     1       7.303   0.382  25.563  0.00  0.00    +0.100 C 
BRANCH  15  16
ATOM     16  C   UNL     1       8.311   1.354  24.971  0.00  0.00    -0.027 A 
ATOM     17  C   UNL     1       8.102   2.742  24.940  0.00  0.00    +0.006 A 
ATOM     18  C   UNL     1       9.077   3.598  24.422  0.00  0.00    +0.015 A 
ATOM     19  C   UNL     1      10.273   3.076  23.937  0.00  0.00    +0.018 A 
ATOM     20 BR   UNL     1      11.594   4.236  23.243  0.00  0.00    -0.050 Br
ATOM     21  C   UNL     1      10.505   1.704  23.966  0.00  0.00    +0.015 A 
ATOM     22  C   UNL     1       9.530   0.849  24.486  0.00  0.00    +0.006 A 
ENDBRANCH  15  16
ENDBRANCH   1  15
TORSDOF 4
ENDMDL
