MODEL 1
REMARK VINA RESULT:      -7.3      0.000      0.000
REMARK  Name = 
REMARK  9 active torsions:
REMARK  status: ('A' for Active; 'I' for Inactive)
REMARK    1  A    between atoms: C_2  and  N_3
REMARK    2  A    between atoms: C_2  and  C_14
REMARK    3  A    between atoms: C_2  and  P_23
REMARK    4  A    between atoms: C_4  and  O_6
REMARK    5  A    between atoms: O_6  and  C_7
REMARK    6  A    between atoms: C_7  and  C_8
REMARK    7  A    between atoms: C_17  and  C_20
REMARK    8  A    between atoms: P_23  and  O_24
REMARK    9  A    between atoms: P_23  and  O_25
REMARK                            x       y       z     vdW  Elec       q    Type
REMARK                         _______ _______ _______ _____ _____    ______ ____
ROOT
ATOM      1  C   UNL     1       7.594  -4.026  24.622  0.00  0.00    +0.220 C 
ENDROOT
BRANCH   1   2
ATOM      2  C   UNL     1       6.479  -5.056  24.584  0.00  0.00    -0.015 A 
ATOM      3  C   UNL     1       5.976  -5.651  25.750  0.00  0.00    +0.007 A 
ATOM      4  C   UNL     1       4.897  -6.541  25.684  0.00  0.00    +0.016 A 
ATOM      5  C   UNL     1       4.302  -6.840  24.450  0.00  0.00    +0.065 A 
ATOM      6  C   UNL     1       4.817  -6.273  23.282  0.00  0.00    +0.016 A 
ATOM      7  C   UNL     1       5.896  -5.388  23.349  0.00  0.00    +0.007 A 
BRANCH   5   8
ATOM      8  C   UNL     1       3.121  -7.745  24.384  0.00  0.00    +0.308 C 
ATOM      9  N   UNL     1       2.822  -8.579  25.330  0.00  0.00    -0.099 NA
ATOM     10  H   UNL     1       3.516  -8.568  26.079  0.00  0.00    +0.363 HD
ATOM     11  N   UNL     1       2.292  -7.732  23.304  0.00  0.00    -0.247 N 
ATOM     12  H   UNL     1       1.439  -8.247  23.500  0.00  0.00    +0.288 HD
ATOM     13  H   UNL     1       2.109  -6.823  22.894  0.00  0.00    +0.288 HD
ENDBRANCH   5   8
ENDBRANCH   1   2
BRANCH   1  14
ATOM     14  N   UNL     1       7.763  -3.375  23.330  0.00  0.00    -0.263 N 
ATOM     15  H   UNL     1       8.442  -3.733  22.672  0.00  0.00    +0.153 HD
ATOM     16  C   UNL     1       7.471  -2.052  23.192  0.00  0.00    +0.402 C 
ATOM     17  O   UNL     1       6.925  -1.394  24.070  0.00  0.00    -0.226 OA
BRANCH  16  18
ATOM     18  O   UNL     1       7.887  -1.605  21.989  0.00  0.00    -0.446 OA
BRANCH  18  19
ATOM     19  C   UNL     1       9.308  -1.467  21.830  0.00  0.00    +0.269 C 
BRANCH  19  20
ATOM     20  C   UNL     1       9.826  -0.194  22.451  0.00  0.00    -0.010 A 
ATOM     21  C   UNL     1      10.453  -0.219  23.706  0.00  0.00    +0.007 A 
ATOM     22  C   UNL     1      10.883   0.964  24.312  0.00  0.00    +0.000 A 
ATOM     23  C   UNL     1      10.693   2.185  23.670  0.00  0.00    +0.000 A 
ATOM     24  C   UNL     1      10.070   2.225  22.422  0.00  0.00    +0.000 A 
ATOM     25  C   UNL     1       9.642   1.043  21.816  0.00  0.00    +0.007 A 
ENDBRANCH  19  20
ENDBRANCH  18  19
ENDBRANCH  16  18
ENDBRANCH   1  14
BRANCH   1  26
ATOM     26  P   UNL     1       9.233  -4.657  25.213  0.00  0.00    +0.352 P 
ATOM     27  O   UNL     1       9.364  -4.660  26.702  0.00  0.00    -0.257 OA
BRANCH  26  28
ATOM     28  O   UNL     1      10.311  -3.760  24.428  0.00  0.00    -0.323 OA
ATOM     29  H   UNL     1      10.045  -3.428  23.550  0.00  0.00    +0.220 HD
ENDBRANCH  26  28
BRANCH  26  30
ATOM     30  O   UNL     1       9.395  -6.083  24.491  0.00  0.00    -0.323 OA
ATOM     31  H   UNL     1       9.117  -6.112  23.546  0.00  0.00    +0.220 HD
ENDBRANCH  26  30
ENDBRANCH   1  26
TORSDOF 9
ENDMDL
MODEL 2
REMARK VINA RESULT:      -6.9      2.422      3.441
REMARK  Name = 
REMARK  9 active torsions:
REMARK  status: ('A' for Active; 'I' for Inactive)
REMARK    1  A    between atoms: C_2  and  N_3
REMARK    2  A    between atoms: C_2  and  C_14
REMARK    3  A    between atoms: C_2  and  P_23
REMARK    4  A    between atoms: C_4  and  O_6
REMARK    5  A    between atoms: O_6  and  C_7
REMARK    6  A    between atoms: C_7  and  C_8
REMARK    7  A    between atoms: C_17  and  C_20
REMARK    8  A    between atoms: P_23  and  O_24
REMARK    9  A    between atoms: P_23  and  O_25
REMARK                            x       y       z     vdW  Elec       q    Type
REMARK                         _______ _______ _______ _____ _____    ______ ____
ROOT
ATOM      1  C   UNL     1       7.012  -5.024  24.174  0.00  0.00    +0.220 C 
ENDROOT
BRANCH   1   2
ATOM      2  C   UNL     1       6.318  -5.466  25.451  0.00  0.00    -0.015 A 
ATOM      3  C   UNL     1       5.238  -6.361  25.438  0.00  0.00    +0.007 A 
ATOM      4  C   UNL     1       4.671  -6.806  26.638  0.00  0.00    +0.016 A 
ATOM      5  C   UNL     1       5.184  -6.368  27.867  0.00  0.00    +0.065 A 
ATOM      6  C   UNL     1       6.241  -5.455  27.886  0.00  0.00    +0.016 A 
ATOM      7  C   UNL     1       6.803  -5.009  26.688  0.00  0.00    +0.007 A 
BRANCH   5   8
ATOM      8  C   UNL     1       4.616  -6.881  29.145  0.00  0.00    +0.308 C 
ATOM      9  N   UNL     1       5.183  -6.685  30.294  0.00  0.00    -0.099 NA
ATOM     10  H   UNL     1       6.072  -6.193  30.199  0.00  0.00    +0.363 HD
ATOM     11  N   UNL     1       3.454  -7.591  29.156  0.00  0.00    -0.247 N 
ATOM     12  H   UNL     1       3.103  -7.689  30.104  0.00  0.00    +0.288 HD
ATOM     13  H   UNL     1       2.738  -7.284  28.507  0.00  0.00    +0.288 HD
ENDBRANCH   5   8
ENDBRANCH   1   2
BRANCH   1  14
ATOM     14  N   UNL     1       7.683  -3.742  24.349  0.00  0.00    -0.263 N 
ATOM     15  H   UNL     1       7.251  -2.897  24.000  0.00  0.00    +0.153 HD
ATOM     16  C   UNL     1       9.040  -3.695  24.452  0.00  0.00    +0.402 C 
ATOM     17  O   UNL     1       9.738  -4.697  24.555  0.00  0.00    -0.226 OA
BRANCH  16  18
ATOM     18  O   UNL     1       9.467  -2.416  24.401  0.00  0.00    -0.446 OA
BRANCH  18  19
ATOM     19  C   UNL     1      10.038  -1.997  23.152  0.00  0.00    +0.269 C 
BRANCH  19  20
ATOM     20  C   UNL     1      10.151  -0.496  23.056  0.00  0.00    -0.010 A 
ATOM     21  C   UNL     1      10.593   0.256  24.156  0.00  0.00    +0.007 A 
ATOM     22  C   UNL     1      10.643   1.650  24.091  0.00  0.00    +0.000 A 
ATOM     23  C   UNL     1      10.257   2.310  22.928  0.00  0.00    +0.000 A 
ATOM     24  C   UNL     1       9.815   1.574  21.826  0.00  0.00    +0.000 A 
ATOM     25  C   UNL     1       9.766   0.182  21.890  0.00  0.00    +0.007 A 
ENDBRANCH  19  20
ENDBRANCH  18  19
ENDBRANCH  16  18
ENDBRANCH   1  14
BRANCH   1  26
ATOM     26  P   UNL     1       5.930  -4.953  22.671  0.00  0.00    +0.352 P 
ATOM     27  O   UNL     1       4.601  -4.320  22.929  0.00  0.00    -0.257 OA
BRANCH  26  28
ATOM     28  O   UNL     1       5.882  -6.471  22.145  0.00  0.00    -0.323 OA
ATOM     29  H   UNL     1       5.018  -6.920  22.190  0.00  0.00    +0.220 HD
ENDBRANCH  26  28
BRANCH  26  30
ATOM     30  O   UNL     1       6.843  -4.241  21.557  0.00  0.00    -0.323 OA
ATOM     31  H   UNL     1       7.206  -3.360  21.808  0.00  0.00    +0.220 HD
ENDBRANCH  26  30
ENDBRANCH   1  26
TORSDOF 9
ENDMDL
MODEL 3
REMARK VINA RESULT:      -6.7      2.607      7.610
REMARK  Name = 
REMARK  9 active torsions:
REMARK  status: ('A' for Active; 'I' for Inactive)
REMARK    1  A    between atoms: C_2  and  N_3
REMARK    2  A    between atoms: C_2  and  C_14
REMARK    3  A    between atoms: C_2  and  P_23
REMARK    4  A    between atoms: C_4  and  O_6
REMARK    5  A    between atoms: O_6  and  C_7
REMARK    6  A    between atoms: C_7  and  C_8
REMARK    7  A    between atoms: C_17  and  C_20
REMARK    8  A    between atoms: P_23  and  O_24
REMARK    9  A    between atoms: P_23  and  O_25
REMARK                            x       y       z     vdW  Elec       q    Type
REMARK                         _______ _______ _______ _____ _____    ______ ____
ROOT
ATOM      1  C   UNL     1       7.696  -3.483  22.764  0.00  0.00    +0.220 C 
ENDROOT
BRANCH   1   2
ATOM      2  C   UNL     1       8.161  -2.045  22.616  0.00  0.00    -0.015 A 
ATOM      3  C   UNL     1       9.223  -1.690  21.771  0.00  0.00    +0.007 A 
ATOM      4  C   UNL     1       9.576  -0.346  21.602  0.00  0.00    +0.016 A 
ATOM      5  C   UNL     1       8.866   0.661  22.269  0.00  0.00    +0.065 A 
ATOM      6  C   UNL     1       7.826   0.312  23.135  0.00  0.00    +0.016 A 
ATOM      7  C   UNL     1       7.477  -1.029  23.305  0.00  0.00    +0.007 A 
BRANCH   5   8
ATOM      8  C   UNL     1       9.207   2.094  22.050  0.00  0.00    +0.308 C 
ATOM      9  N   UNL     1      10.422   2.508  21.871  0.00  0.00    -0.099 NA
ATOM     10  H   UNL     1      11.098   1.746  21.952  0.00  0.00    +0.363 HD
ATOM     11  N   UNL     1       8.234   3.047  22.029  0.00  0.00    -0.247 N 
ATOM     12  H   UNL     1       8.599   3.925  21.672  0.00  0.00    +0.288 HD
ATOM     13  H   UNL     1       7.361   2.782  21.586  0.00  0.00    +0.288 HD
ENDBRANCH   5   8
ENDBRANCH   1   2
BRANCH   1  14
ATOM     14  N   UNL     1       6.243  -3.580  22.715  0.00  0.00    -0.263 N 
ATOM     15  H   UNL     1       5.682  -3.060  23.376  0.00  0.00    +0.153 HD
ATOM     16  C   UNL     1       5.654  -4.703  22.219  0.00  0.00    +0.402 C 
ATOM     17  O   UNL     1       6.281  -5.597  21.664  0.00  0.00    -0.226 OA
BRANCH  16  18
ATOM     18  O   UNL     1       4.325  -4.675  22.452  0.00  0.00    -0.446 OA
BRANCH  18  19
ATOM     19  C   UNL     1       3.790  -5.801  23.163  0.00  0.00    +0.269 C 
BRANCH  19  20
ATOM     20  C   UNL     1       4.042  -5.706  24.647  0.00  0.00    -0.010 A 
ATOM     21  C   UNL     1       3.693  -4.546  25.355  0.00  0.00    +0.007 A 
ATOM     22  C   UNL     1       3.978  -4.430  26.718  0.00  0.00    +0.000 A 
ATOM     23  C   UNL     1       4.611  -5.472  27.390  0.00  0.00    +0.000 A 
ATOM     24  C   UNL     1       4.964  -6.632  26.698  0.00  0.00    +0.000 A 
ATOM     25  C   UNL     1       4.678  -6.748  25.337  0.00  0.00    +0.007 A 
ENDBRANCH  19  20
ENDBRANCH  18  19
ENDBRANCH  16  18
ENDBRANCH   1  14
BRANCH   1  26
ATOM     26  P   UNL     1       8.322  -4.366  24.267  0.00  0.00    +0.352 P 
ATOM     27  O   UNL     1       7.418  -4.236  25.449  0.00  0.00    -0.257 OA
BRANCH  26  28
ATOM     28  O   UNL     1       9.811  -3.795  24.472  0.00  0.00    -0.323 OA
ATOM     29  H   UNL     1      10.154  -3.210  23.770  0.00  0.00    +0.220 HD
ENDBRANCH  26  28
BRANCH  26  30
ATOM     30  O   UNL     1       8.606  -5.864  23.761  0.00  0.00    -0.323 OA
ATOM     31  H   UNL     1       8.115  -6.571  24.240  0.00  0.00    +0.220 HD
ENDBRANCH  26  30
ENDBRANCH   1  26
TORSDOF 9
ENDMDL
MODEL 4
REMARK VINA RESULT:      -6.6      2.451      7.957
REMARK  Name = 
REMARK  9 active torsions:
REMARK  status: ('A' for Active; 'I' for Inactive)
REMARK    1  A    between atoms: C_2  and  N_3
REMARK    2  A    between atoms: C_2  and  C_14
REMARK    3  A    between atoms: C_2  and  P_23
REMARK    4  A    between atoms: C_4  and  O_6
REMARK    5  A    between atoms: O_6  and  C_7
REMARK    6  A    between atoms: C_7  and  C_8
REMARK    7  A    between atoms: C_17  and  C_20
REMARK    8  A    between atoms: P_23  and  O_24
REMARK    9  A    between atoms: P_23  and  O_25
REMARK                            x       y       z     vdW  Elec       q    Type
REMARK                         _______ _______ _______ _____ _____    ______ ____
ROOT
ATOM      1  C   UNL     1       8.268  -4.060  23.732  0.00  0.00    +0.220 C 
ENDROOT
BRANCH   1   2
ATOM      2  C   UNL     1       8.721  -2.625  23.526  0.00  0.00    -0.015 A 
ATOM      3  C   UNL     1      10.077  -2.283  23.416  0.00  0.00    +0.007 A 
ATOM      4  C   UNL     1      10.455  -0.961  23.150  0.00  0.00    +0.016 A 
ATOM      5  C   UNL     1       9.482   0.033  22.982  0.00  0.00    +0.065 A 
ATOM      6  C   UNL     1       8.131  -0.297  23.119  0.00  0.00    +0.016 A 
ATOM      7  C   UNL     1       7.755  -1.614  23.387  0.00  0.00    +0.007 A 
BRANCH   5   8
ATOM      8  C   UNL     1       9.881   1.428  22.648  0.00  0.00    +0.308 C 
ATOM      9  N   UNL     1       9.723   1.941  21.469  0.00  0.00    -0.099 NA
ATOM     10  H   UNL     1       9.348   1.260  20.806  0.00  0.00    +0.363 HD
ATOM     11  N   UNL     1      10.441   2.238  23.590  0.00  0.00    -0.247 N 
ATOM     12  H   UNL     1      10.465   3.200  23.267  0.00  0.00    +0.288 HD
ATOM     13  H   UNL     1      10.067   2.154  24.528  0.00  0.00    +0.288 HD
ENDBRANCH   5   8
ENDBRANCH   1   2
BRANCH   1  14
ATOM     14  N   UNL     1       6.897  -4.256  23.278  0.00  0.00    -0.263 N 
ATOM     15  H   UNL     1       6.132  -4.155  23.931  0.00  0.00    +0.153 HD
ATOM     16  C   UNL     1       6.643  -5.070  22.216  0.00  0.00    +0.402 C 
ATOM     17  O   UNL     1       7.527  -5.543  21.511  0.00  0.00    -0.226 OA
BRANCH  16  18
ATOM     18  O   UNL     1       5.315  -5.274  22.092  0.00  0.00    -0.446 OA
BRANCH  18  19
ATOM     19  C   UNL     1       4.506  -4.808  23.182  0.00  0.00    +0.269 C 
BRANCH  19  20
ATOM     20  C   UNL     1       3.523  -5.854  23.646  0.00  0.00    -0.010 A 
ATOM     21  C   UNL     1       3.898  -6.808  24.604  0.00  0.00    +0.007 A 
ATOM     22  C   UNL     1       3.010  -7.814  24.993  0.00  0.00    +0.000 A 
ATOM     23  C   UNL     1       1.737  -7.877  24.431  0.00  0.00    +0.000 A 
ATOM     24  C   UNL     1       1.351  -6.935  23.476  0.00  0.00    +0.000 A 
ATOM     25  C   UNL     1       2.237  -5.929  23.089  0.00  0.00    +0.007 A 
ENDBRANCH  19  20
ENDBRANCH  18  19
ENDBRANCH  16  18
ENDBRANCH   1  14
BRANCH   1  26
ATOM     26  P   UNL     1       8.441  -4.702  25.462  0.00  0.00    +0.352 P 
ATOM     27  O   UNL     1       8.663  -3.625  26.473  0.00  0.00    -0.257 OA
BRANCH  26  28
ATOM     28  O   UNL     1       9.607  -5.804  25.361  0.00  0.00    -0.323 OA
ATOM     29  H   UNL     1       9.427  -6.578  24.797  0.00  0.00    +0.220 HD
ENDBRANCH  26  28
BRANCH  26  30
ATOM     30  O   UNL     1       7.137  -5.614  25.681  0.00  0.00    -0.323 OA
ATOM     31  H   UNL     1       6.517  -5.654  24.916  0.00  0.00    +0.220 HD
ENDBRANCH  26  30
ENDBRANCH   1  26
TORSDOF 9
ENDMDL
MODEL 5
REMARK VINA RESULT:      -6.6      4.559      9.667
REMARK  Name = 
REMARK  9 active torsions:
REMARK  status: ('A' for Active; 'I' for Inactive)
REMARK    1  A    between atoms: C_2  and  N_3
REMARK    2  A    between atoms: C_2  and  C_14
REMARK    3  A    between atoms: C_2  and  P_23
REMARK    4  A    between atoms: C_4  and  O_6
REMARK    5  A    between atoms: O_6  and  C_7
REMARK    6  A    between atoms: C_7  and  C_8
REMARK    7  A    between atoms: C_17  and  C_20
REMARK    8  A    between atoms: P_23  and  O_24
REMARK    9  A    between atoms: P_23  and  O_25
REMARK                            x       y       z     vdW  Elec       q    Type
REMARK                         _______ _______ _______ _____ _____    ______ ____
ROOT
ATOM      1  C   UNL     1       8.088   2.358  23.771  0.00  0.00    +0.220 C 
ENDROOT
BRANCH   1   2
ATOM      2  C   UNL     1       9.231   3.356  23.726  0.00  0.00    -0.015 A 
ATOM      3  C   UNL     1       9.069   4.690  24.125  0.00  0.00    +0.007 A 
ATOM      4  C   UNL     1      10.163   5.564  24.141  0.00  0.00    +0.016 A 
ATOM      5  C   UNL     1      11.436   5.111  23.767  0.00  0.00    +0.065 A 
ATOM      6  C   UNL     1      11.598   3.790  23.341  0.00  0.00    +0.016 A 
ATOM      7  C   UNL     1      10.505   2.921  23.322  0.00  0.00    +0.007 A 
BRANCH   5   8
ATOM      8  C   UNL     1      12.610   6.024  23.834  0.00  0.00    +0.308 C 
ATOM      9  N   UNL     1      12.817   6.830  24.827  0.00  0.00    -0.099 NA
ATOM     10  H   UNL     1      12.059   6.792  25.511  0.00  0.00    +0.363 HD
ATOM     11  N   UNL     1      13.532   6.049  22.832  0.00  0.00    -0.247 N 
ATOM     12  H   UNL     1      14.359   6.564  23.118  0.00  0.00    +0.288 HD
ATOM     13  H   UNL     1      13.758   5.155  22.412  0.00  0.00    +0.288 HD
ENDBRANCH   5   8
ENDBRANCH   1   2
BRANCH   1  14
ATOM     14  N   UNL     1       8.536   1.055  24.246  0.00  0.00    -0.263 N 
ATOM     15  H   UNL     1       8.772   0.332  23.581  0.00  0.00    +0.153 HD
ATOM     16  C   UNL     1       8.141   0.605  25.469  0.00  0.00    +0.402 C 
ATOM     17  O   UNL     1       7.537   1.304  26.275  0.00  0.00    -0.226 OA
BRANCH  16  18
ATOM     18  O   UNL     1       8.492  -0.688  25.626  0.00  0.00    -0.446 OA
BRANCH  18  19
ATOM     19  C   UNL     1       9.310  -1.245  24.586  0.00  0.00    +0.269 C 
BRANCH  19  20
ATOM     20  C   UNL     1       8.727  -2.518  24.027  0.00  0.00    -0.010 A 
ATOM     21  C   UNL     1       7.930  -2.489  22.873  0.00  0.00    +0.007 A 
ATOM     22  C   UNL     1       7.339  -3.657  22.384  0.00  0.00    +0.000 A 
ATOM     23  C   UNL     1       7.540  -4.868  23.042  0.00  0.00    +0.000 A 
ATOM     24  C   UNL     1       8.331  -4.912  24.191  0.00  0.00    +0.000 A 
ATOM     25  C   UNL     1       8.922  -3.746  24.678  0.00  0.00    +0.007 A 
ENDBRANCH  19  20
ENDBRANCH  18  19
ENDBRANCH  16  18
ENDBRANCH   1  14
BRANCH   1  26
ATOM     26  P   UNL     1       7.159   2.148  22.182  0.00  0.00    +0.352 P 
ATOM     27  O   UNL     1       7.974   1.519  21.099  0.00  0.00    -0.257 OA
BRANCH  26  28
ATOM     28  O   UNL     1       6.594   3.616  21.855  0.00  0.00    -0.323 OA
ATOM     29  H   UNL     1       5.682   3.806  22.142  0.00  0.00    +0.220 HD
ENDBRANCH  26  28
BRANCH  26  30
ATOM     30  O   UNL     1       5.823   1.361  22.602  0.00  0.00    -0.323 OA
ATOM     31  H   UNL     1       4.984   1.865  22.491  0.00  0.00    +0.220 HD
ENDBRANCH  26  30
ENDBRANCH   1  26
TORSDOF 9
ENDMDL
MODEL 6
REMARK VINA RESULT:      -6.5      2.977      7.745
REMARK  Name = 
REMARK  9 active torsions:
REMARK  status: ('A' for Active; 'I' for Inactive)
REMARK    1  A    between atoms: C_2  and  N_3
REMARK    2  A    between atoms: C_2  and  C_14
REMARK    3  A    between atoms: C_2  and  P_23
REMARK    4  A    between atoms: C_4  and  O_6
REMARK    5  A    between atoms: O_6  and  C_7
REMARK    6  A    between atoms: C_7  and  C_8
REMARK    7  A    between atoms: C_17  and  C_20
REMARK    8  A    between atoms: P_23  and  O_24
REMARK    9  A    between atoms: P_23  and  O_25
REMARK                            x       y       z     vdW  Elec       q    Type
REMARK                         _______ _______ _______ _____ _____    ______ ____
ROOT
ATOM      1  C   UNL     1       7.846  -3.512  22.764  0.00  0.00    +0.220 C 
ENDROOT
BRANCH   1   2
ATOM      2  C   UNL     1       8.131  -2.041  22.521  0.00  0.00    -0.015 A 
ATOM      3  C   UNL     1       7.275  -1.032  22.985  0.00  0.00    +0.007 A 
ATOM      4  C   UNL     1       7.608   0.318  22.809  0.00  0.00    +0.016 A 
ATOM      5  C   UNL     1       8.805   0.673  22.174  0.00  0.00    +0.065 A 
ATOM      6  C   UNL     1       9.648  -0.327  21.684  0.00  0.00    +0.016 A 
ATOM      7  C   UNL     1       9.314  -1.672  21.857  0.00  0.00    +0.007 A 
BRANCH   5   8
ATOM      8  C   UNL     1       9.185   2.106  22.032  0.00  0.00    +0.308 C 
ATOM      9  N   UNL     1      10.412   2.497  21.884  0.00  0.00    -0.099 NA
ATOM     10  H   UNL     1      11.067   1.715  21.931  0.00  0.00    +0.363 HD
ATOM     11  N   UNL     1       8.237   3.084  22.053  0.00  0.00    -0.247 N 
ATOM     12  H   UNL     1       8.628   3.969  21.745  0.00  0.00    +0.288 HD
ATOM     13  H   UNL     1       7.362   2.866  21.591  0.00  0.00    +0.288 HD
ENDBRANCH   5   8
ENDBRANCH   1   2
BRANCH   1  14
ATOM     14  N   UNL     1       6.465  -3.847  22.445  0.00  0.00    -0.263 N 
ATOM     15  H   UNL     1       5.710  -3.341  22.887  0.00  0.00    +0.153 HD
ATOM     16  C   UNL     1       6.149  -5.106  22.031  0.00  0.00    +0.402 C 
ATOM     17  O   UNL     1       6.994  -5.953  21.765  0.00  0.00    -0.226 OA
BRANCH  16  18
ATOM     18  O   UNL     1       4.810  -5.261  21.988  0.00  0.00    -0.446 OA
BRANCH  18  19
ATOM     19  C   UNL     1       4.230  -6.002  23.072  0.00  0.00    +0.269 C 
BRANCH  19  20
ATOM     20  C   UNL     1       3.151  -5.221  23.780  0.00  0.00    -0.010 A 
ATOM     21  C   UNL     1       1.800  -5.421  23.459  0.00  0.00    +0.007 A 
ATOM     22  C   UNL     1       0.802  -4.659  24.070  0.00  0.00    +0.000 A 
ATOM     23  C   UNL     1       1.141  -3.690  25.010  0.00  0.00    +0.000 A 
ATOM     24  C   UNL     1       2.482  -3.479  25.339  0.00  0.00    +0.000 A 
ATOM     25  C   UNL     1       3.479  -4.242  24.730  0.00  0.00    +0.007 A 
ENDBRANCH  19  20
ENDBRANCH  18  19
ENDBRANCH  16  18
ENDBRANCH   1  14
BRANCH   1  26
ATOM     26  P   UNL     1       8.251  -4.124  24.466  0.00  0.00    +0.352 P 
ATOM     27  O   UNL     1       7.081  -4.106  25.395  0.00  0.00    -0.257 OA
BRANCH  26  28
ATOM     28  O   UNL     1       9.507  -3.231  24.921  0.00  0.00    -0.323 OA
ATOM     29  H   UNL     1      10.390  -3.628  24.801  0.00  0.00    +0.220 HD
ENDBRANCH  26  28
BRANCH  26  30
ATOM     30  O   UNL     1       8.931  -5.559  24.222  0.00  0.00    -0.323 OA
ATOM     31  H   UNL     1       9.881  -5.537  23.961  0.00  0.00    +0.220 HD
ENDBRANCH  26  30
ENDBRANCH   1  26
TORSDOF 9
ENDMDL
MODEL 7
REMARK VINA RESULT:      -6.5      1.632      2.091
REMARK  Name = 
REMARK  9 active torsions:
REMARK  status: ('A' for Active; 'I' for Inactive)
REMARK    1  A    between atoms: C_2  and  N_3
REMARK    2  A    between atoms: C_2  and  C_14
REMARK    3  A    between atoms: C_2  and  P_23
REMARK    4  A    between atoms: C_4  and  O_6
REMARK    5  A    between atoms: O_6  and  C_7
REMARK    6  A    between atoms: C_7  and  C_8
REMARK    7  A    between atoms: C_17  and  C_20
REMARK    8  A    between atoms: P_23  and  O_24
REMARK    9  A    between atoms: P_23  and  O_25
REMARK                            x       y       z     vdW  Elec       q    Type
REMARK                         _______ _______ _______ _____ _____    ______ ____
ROOT
ATOM      1  C   UNL     1       7.812  -3.796  24.803  0.00  0.00    +0.220 C 
ENDROOT
BRANCH   1   2
ATOM      2  C   UNL     1       6.485  -4.328  24.291  0.00  0.00    -0.015 A 
ATOM      3  C   UNL     1       6.412  -5.251  23.238  0.00  0.00    +0.007 A 
ATOM      4  C   UNL     1       5.176  -5.778  22.841  0.00  0.00    +0.016 A 
ATOM      5  C   UNL     1       4.000  -5.394  23.499  0.00  0.00    +0.065 A 
ATOM      6  C   UNL     1       4.064  -4.452  24.529  0.00  0.00    +0.016 A 
ATOM      7  C   UNL     1       5.296  -3.926  24.922  0.00  0.00    +0.007 A 
BRANCH   5   8
ATOM      8  C   UNL     1       2.692  -5.992  23.113  0.00  0.00    +0.308 C 
ATOM      9  N   UNL     1       2.571  -7.221  22.718  0.00  0.00    -0.099 NA
ATOM     10  H   UNL     1       3.476  -7.691  22.658  0.00  0.00    +0.363 HD
ATOM     11  N   UNL     1       1.547  -5.256  23.161  0.00  0.00    -0.247 N 
ATOM     12  H   UNL     1       0.732  -5.854  23.066  0.00  0.00    +0.288 HD
ATOM     13  H   UNL     1       1.465  -4.610  23.937  0.00  0.00    +0.288 HD
ENDBRANCH   5   8
ENDBRANCH   1   2
BRANCH   1  14
ATOM     14  N   UNL     1       8.604  -3.214  23.727  0.00  0.00    -0.263 N 
ATOM     15  H   UNL     1       8.918  -3.797  22.963  0.00  0.00    +0.153 HD
ATOM     16  C   UNL     1       9.373  -2.116  23.967  0.00  0.00    +0.402 C 
ATOM     17  O   UNL     1       9.327  -1.485  25.017  0.00  0.00    -0.226 OA
BRANCH  16  18
ATOM     18  O   UNL     1      10.173  -1.866  22.910  0.00  0.00    -0.446 OA
BRANCH  18  19
ATOM     19  C   UNL     1       9.536  -1.265  21.772  0.00  0.00    +0.269 C 
BRANCH  19  20
ATOM     20  C   UNL     1       9.142   0.167  22.034  0.00  0.00    -0.010 A 
ATOM     21  C   UNL     1      10.122   1.157  22.196  0.00  0.00    +0.007 A 
ATOM     22  C   UNL     1       9.763   2.473  22.497  0.00  0.00    +0.000 A 
ATOM     23  C   UNL     1       8.421   2.815  22.637  0.00  0.00    +0.000 A 
ATOM     24  C   UNL     1       7.435   1.840  22.479  0.00  0.00    +0.000 A 
ATOM     25  C   UNL     1       7.793   0.526  22.177  0.00  0.00    +0.007 A 
ENDBRANCH  19  20
ENDBRANCH  18  19
ENDBRANCH  16  18
ENDBRANCH   1  14
BRANCH   1  26
ATOM     26  P   UNL     1       8.845  -5.017  25.738  0.00  0.00    +0.352 P 
ATOM     27  O   UNL     1       9.766  -4.379  26.726  0.00  0.00    -0.257 OA
BRANCH  26  28
ATOM     28  O   UNL     1       9.559  -5.891  24.593  0.00  0.00    -0.323 OA
ATOM     29  H   UNL     1      10.317  -5.478  24.139  0.00  0.00    +0.220 HD
ENDBRANCH  26  28
BRANCH  26  30
ATOM     30  O   UNL     1       7.782  -6.060  26.340  0.00  0.00    -0.323 OA
ATOM     31  H   UNL     1       7.630  -5.995  27.312  0.00  0.00    +0.220 HD
ENDBRANCH  26  30
ENDBRANCH   1  26
TORSDOF 9
ENDMDL
MODEL 8
REMARK VINA RESULT:      -6.4      3.457      8.407
REMARK  Name = 
REMARK  9 active torsions:
REMARK  status: ('A' for Active; 'I' for Inactive)
REMARK    1  A    between atoms: C_2  and  N_3
REMARK    2  A    between atoms: C_2  and  C_14
REMARK    3  A    between atoms: C_2  and  P_23
REMARK    4  A    between atoms: C_4  and  O_6
REMARK    5  A    between atoms: O_6  and  C_7
REMARK    6  A    between atoms: C_7  and  C_8
REMARK    7  A    between atoms: C_17  and  C_20
REMARK    8  A    between atoms: P_23  and  O_24
REMARK    9  A    between atoms: P_23  and  O_25
REMARK                            x       y       z     vdW  Elec       q    Type
REMARK                         _______ _______ _______ _____ _____    ______ ____
ROOT
ATOM      1  C   UNL     1       9.226  -0.466  24.892  0.00  0.00    +0.220 C 
ENDROOT
BRANCH   1   2
ATOM      2  C   UNL     1       9.392   1.026  24.659  0.00  0.00    -0.015 A 
ATOM      3  C   UNL     1      10.491   1.551  23.963  0.00  0.00    +0.007 A 
ATOM      4  C   UNL     1      10.574   2.924  23.702  0.00  0.00    +0.016 A 
ATOM      5  C   UNL     1       9.554   3.787  24.125  0.00  0.00    +0.065 A 
ATOM      6  C   UNL     1       8.472   3.274  24.844  0.00  0.00    +0.016 A 
ATOM      7  C   UNL     1       8.392   1.905  25.107  0.00  0.00    +0.007 A 
BRANCH   5   8
ATOM      8  C   UNL     1       9.616   5.240  23.802  0.00  0.00    +0.308 C 
ATOM      9  N   UNL     1      10.577   5.766  23.110  0.00  0.00    -0.099 NA
ATOM     10  H   UNL     1      11.292   5.077  22.871  0.00  0.00    +0.363 HD
ATOM     11  N   UNL     1       8.643   6.091  24.231  0.00  0.00    -0.247 N 
ATOM     12  H   UNL     1       8.721   6.990  23.764  0.00  0.00    +0.288 HD
ATOM     13  H   UNL     1       7.696   5.729  24.216  0.00  0.00    +0.288 HD
ENDBRANCH   5   8
ENDBRANCH   1   2
BRANCH   1  14
ATOM     14  N   UNL     1       8.562  -1.110  23.766  0.00  0.00    -0.263 N 
ATOM     15  H   UNL     1       7.571  -1.304  23.810  0.00  0.00    +0.153 HD
ATOM     16  C   UNL     1       9.271  -1.924  22.935  0.00  0.00    +0.402 C 
ATOM     17  O   UNL     1      10.490  -2.037  22.990  0.00  0.00    -0.226 OA
BRANCH  16  18
ATOM     18  O   UNL     1       8.437  -2.573  22.095  0.00  0.00    -0.446 OA
BRANCH  18  19
ATOM     19  C   UNL     1       7.038  -2.301  22.268  0.00  0.00    +0.269 C 
BRANCH  19  20
ATOM     20  C   UNL     1       6.235  -3.564  22.458  0.00  0.00    -0.010 A 
ATOM     21  C   UNL     1       6.649  -4.766  21.865  0.00  0.00    +0.007 A 
ATOM     22  C   UNL     1       5.878  -5.924  21.989  0.00  0.00    +0.000 A 
ATOM     23  C   UNL     1       4.687  -5.895  22.710  0.00  0.00    +0.000 A 
ATOM     24  C   UNL     1       4.263  -4.706  23.305  0.00  0.00    +0.000 A 
ATOM     25  C   UNL     1       5.034  -3.550  23.182  0.00  0.00    +0.007 A 
ENDBRANCH  19  20
ENDBRANCH  18  19
ENDBRANCH  16  18
ENDBRANCH   1  14
BRANCH   1  26
ATOM     26  P   UNL     1       8.360  -0.928  26.463  0.00  0.00    +0.352 P 
ATOM     27  O   UNL     1       6.949  -0.440  26.527  0.00  0.00    -0.257 OA
BRANCH  26  28
ATOM     28  O   UNL     1       9.330  -0.388  27.625  0.00  0.00    -0.323 OA
ATOM     29  H   UNL     1       9.364  -0.914  28.445  0.00  0.00    +0.220 HD
ENDBRANCH  26  28
BRANCH  26  30
ATOM     30  O   UNL     1       8.559  -2.518  26.575  0.00  0.00    -0.323 OA
ATOM     31  H   UNL     1       9.023  -2.830  27.386  0.00  0.00    +0.220 HD
ENDBRANCH  26  30
ENDBRANCH   1  26
TORSDOF 9
ENDMDL
MODEL 9
REMARK VINA RESULT:      -6.3      2.459      3.375
REMARK  Name = 
REMARK  9 active torsions:
REMARK  status: ('A' for Active; 'I' for Inactive)
REMARK    1  A    between atoms: C_2  and  N_3
REMARK    2  A    between atoms: C_2  and  C_14
REMARK    3  A    between atoms: C_2  and  P_23
REMARK    4  A    between atoms: C_4  and  O_6
REMARK    5  A    between atoms: O_6  and  C_7
REMARK    6  A    between atoms: C_7  and  C_8
REMARK    7  A    between atoms: C_17  and  C_20
REMARK    8  A    between atoms: P_23  and  O_24
REMARK    9  A    between atoms: P_23  and  O_25
REMARK                            x       y       z     vdW  Elec       q    Type
REMARK                         _______ _______ _______ _____ _____    ______ ____
ROOT
ATOM      1  C   UNL     1       6.809  -2.365  24.830  0.00  0.00    +0.220 C 
ENDROOT
BRANCH   1   2
ATOM      2  C   UNL     1       6.366  -3.586  25.615  0.00  0.00    -0.015 A 
ATOM      3  C   UNL     1       7.166  -4.158  26.615  0.00  0.00    +0.007 A 
ATOM      4  C   UNL     1       6.693  -5.238  27.371  0.00  0.00    +0.016 A 
ATOM      5  C   UNL     1       5.410  -5.754  27.141  0.00  0.00    +0.065 A 
ATOM      6  C   UNL     1       4.620  -5.207  26.127  0.00  0.00    +0.016 A 
ATOM      7  C   UNL     1       5.094  -4.132  25.372  0.00  0.00    +0.007 A 
BRANCH   5   8
ATOM      8  C   UNL     1       4.887  -6.868  27.979  0.00  0.00    +0.308 C 
ATOM      9  N   UNL     1       5.647  -7.596  28.735  0.00  0.00    -0.099 NA
ATOM     10  H   UNL     1       6.632  -7.343  28.639  0.00  0.00    +0.363 HD
ATOM     11  N   UNL     1       3.560  -7.173  27.983  0.00  0.00    -0.247 N 
ATOM     12  H   UNL     1       3.340  -7.808  28.744  0.00  0.00    +0.288 HD
ATOM     13  H   UNL     1       2.922  -6.386  27.939  0.00  0.00    +0.288 HD
ENDBRANCH   5   8
ENDBRANCH   1   2
BRANCH   1  14
ATOM     14  N   UNL     1       8.255  -2.347  24.643  0.00  0.00    -0.263 N 
ATOM     15  H   UNL     1       8.832  -1.773  25.244  0.00  0.00    +0.153 HD
ATOM     16  C   UNL     1       8.784  -2.611  23.417  0.00  0.00    +0.402 C 
ATOM     17  O   UNL     1       8.115  -3.014  22.473  0.00  0.00    -0.226 OA
BRANCH  16  18
ATOM     18  O   UNL     1      10.107  -2.343  23.413  0.00  0.00    -0.446 OA
BRANCH  18  19
ATOM     19  C   UNL     1      10.560  -1.444  22.390  0.00  0.00    +0.269 C 
BRANCH  19  20
ATOM     20  C   UNL     1      10.138  -0.021  22.659  0.00  0.00    -0.010 A 
ATOM     21  C   UNL     1       9.370   0.683  21.719  0.00  0.00    +0.007 A 
ATOM     22  C   UNL     1       9.027   2.019  21.937  0.00  0.00    +0.000 A 
ATOM     23  C   UNL     1       9.444   2.667  23.097  0.00  0.00    +0.000 A 
ATOM     24  C   UNL     1      10.209   1.979  24.041  0.00  0.00    +0.000 A 
ATOM     25  C   UNL     1      10.551   0.643  23.823  0.00  0.00    +0.007 A 
ENDBRANCH  19  20
ENDBRANCH  18  19
ENDBRANCH  16  18
ENDBRANCH   1  14
BRANCH   1  26
ATOM     26  P   UNL     1       6.258  -0.737  25.523  0.00  0.00    +0.352 P 
ATOM     27  O   UNL     1       4.772  -0.579  25.551  0.00  0.00    -0.257 OA
BRANCH  26  28
ATOM     28  O   UNL     1       7.052   0.355  24.651  0.00  0.00    -0.323 OA
ATOM     29  H   UNL     1       6.820   0.410  23.705  0.00  0.00    +0.220 HD
ENDBRANCH  26  28
BRANCH  26  30
ATOM     30  O   UNL     1       7.002  -0.636  26.943  0.00  0.00    -0.323 OA
ATOM     31  H   UNL     1       6.677   0.077  27.540  0.00  0.00    +0.220 HD
ENDBRANCH  26  30
ENDBRANCH   1  26
TORSDOF 9
ENDMDL
