MODEL 1
REMARK VINA RESULT:      -6.5      0.000      0.000
REMARK  Name = 
REMARK  14 active torsions:
REMARK  status: ('A' for Active; 'I' for Inactive)
REMARK    1  A    between atoms: O_1  and  C_2
REMARK    2  A    between atoms: C_2  and  C_3
REMARK    3  A    between atoms: C_3  and  O_5
REMARK    4  A    between atoms: C_3  and  C_6
REMARK    5  A    between atoms: C_6  and  O_8
REMARK    6  A    between atoms: C_6  and  C_9
REMARK    7  A    between atoms: C_9  and  O_11
REMARK    8  A    between atoms: C_9  and  C_12
REMARK    9  A    between atoms: C_12  and  N_13
REMARK   10  A    between atoms: C_14  and  O_15
REMARK   11  A    between atoms: C_16  and  C_17
REMARK   12  A    between atoms: C_17  and  C_18
REMARK   13  A    between atoms: C_18  and  C_19
REMARK   14  A    between atoms: C_19  and  O_20
REMARK                            x       y       z     vdW  Elec       q    Type
REMARK                         _______ _______ _______ _____ _____    ______ ____
ROOT
ATOM      1  N   UNL     1       7.913  -4.183  24.424  0.00  0.00    -0.291 N 
ATOM      2  C   UNL     1       7.014  -4.944  23.674  0.00  0.00    +0.173 A 
ATOM      3  C   UNL     1       5.963  -5.712  24.445  0.00  0.00    +0.171 A 
ATOM      4  C   UNL     1       4.928  -6.456  23.655  0.00  0.00    +0.282 A 
ATOM      5  N   UNL     1       5.030  -6.276  22.311  0.00  0.00    -0.272 N 
ATOM      6  H   UNL     1       4.358  -6.737  21.716  0.00  0.00    +0.174 HD
ATOM      7  C   UNL     1       6.055  -5.649  21.663  0.00  0.00    +0.351 A 
ATOM      8  O   UNL     1       6.046  -5.642  20.436  0.00  0.00    -0.245 OA
ATOM      9  O   UNL     1       4.097  -7.178  24.187  0.00  0.00    -0.265 OA
ATOM     10  N   UNL     1       5.944  -5.766  25.748  0.00  0.00    -0.238 NA
ATOM     11  C   UNL     1       6.935  -5.077  26.424  0.00  0.00    +0.102 A 
ATOM     12  N   UNL     1       7.035  -5.046  22.385  0.00  0.00    -0.173 NA
ATOM     13  C   UNL     1       7.860  -4.296  25.816  0.00  0.00    +0.216 A 
ENDROOT
BRANCH  13  14
ATOM     14  O   UNL     1       8.765  -3.619  26.603  0.00  0.00    -0.492 OA
ATOM     15  H   UNL     1       8.276  -3.133  27.284  0.00  0.00    +0.294 HD
ENDBRANCH  13  14
BRANCH   1  16
ATOM     16  C   UNL     1       8.942  -3.410  23.694  0.00  0.00    +0.160 C 
BRANCH  16  17
ATOM     17  C   UNL     1       8.566  -1.941  23.377  0.00  0.00    +0.165 C 
BRANCH  17  18
ATOM     18  O   UNL     1       7.722  -1.826  22.219  0.00  0.00    -0.387 OA
ATOM     19  H   UNL     1       7.512  -2.725  21.916  0.00  0.00    +0.210 HD
ENDBRANCH  17  18
BRANCH  17  20
ATOM     20  C   UNL     1       9.838  -1.134  23.026  0.00  0.00    +0.175 C 
BRANCH  20  21
ATOM     21  O   UNL     1      10.248  -1.467  21.687  0.00  0.00    -0.387 OA
ATOM     22  H   UNL     1       9.502  -1.209  21.113  0.00  0.00    +0.210 HD
ENDBRANCH  20  21
BRANCH  20  23
ATOM     23  C   UNL     1       9.663   0.383  23.178  0.00  0.00    +0.171 C 
BRANCH  23  24
ATOM     24  O   UNL     1       8.343   0.695  23.637  0.00  0.00    -0.387 OA
ATOM     25  H   UNL     1       7.783  -0.050  23.341  0.00  0.00    +0.210 HD
ENDBRANCH  23  24
BRANCH  23  26
ATOM     26  C   UNL     1       9.967   1.140  21.888  0.00  0.00    +0.189 C 
BRANCH  26  27
ATOM     27  O   UNL     1       8.859   0.944  21.004  0.00  0.00    -0.392 OA
ATOM     28  H   UNL     1       8.454   0.093  21.251  0.00  0.00    +0.210 HD
ENDBRANCH  26  27
ENDBRANCH  23  26
ENDBRANCH  20  23
ENDBRANCH  17  20
ENDBRANCH  16  17
ENDBRANCH   1  16
BRANCH  11  29
ATOM     29  C   UNL     1       6.945  -5.343  27.919  0.00  0.00    +0.072 C 
BRANCH  29  30
ATOM     30  C   UNL     1       5.565  -5.430  28.555  0.00  0.00    +0.127 C 
BRANCH  30  31
ATOM     31  C   UNL     1       5.028  -6.780  28.970  0.00  0.00    +0.305 C 
ATOM     32  O   UNL     1       4.360  -6.906  29.993  0.00  0.00    -0.251 OA
BRANCH  31  33
ATOM     33  O   UNL     1       5.304  -7.841  28.197  0.00  0.00    -0.481 OA
ATOM     34  H   UNL     1       5.499  -8.689  28.656  0.00  0.00    +0.295 HD
ENDBRANCH  31  33
ENDBRANCH  30  31
ENDBRANCH  29  30
ENDBRANCH  11  29
TORSDOF 14
ENDMDL
MODEL 2
REMARK VINA RESULT:      -6.3      2.656      6.033
REMARK  Name = 
REMARK  14 active torsions:
REMARK  status: ('A' for Active; 'I' for Inactive)
REMARK    1  A    between atoms: O_1  and  C_2
REMARK    2  A    between atoms: C_2  and  C_3
REMARK    3  A    between atoms: C_3  and  O_5
REMARK    4  A    between atoms: C_3  and  C_6
REMARK    5  A    between atoms: C_6  and  O_8
REMARK    6  A    between atoms: C_6  and  C_9
REMARK    7  A    between atoms: C_9  and  O_11
REMARK    8  A    between atoms: C_9  and  C_12
REMARK    9  A    between atoms: C_12  and  N_13
REMARK   10  A    between atoms: C_14  and  O_15
REMARK   11  A    between atoms: C_16  and  C_17
REMARK   12  A    between atoms: C_17  and  C_18
REMARK   13  A    between atoms: C_18  and  C_19
REMARK   14  A    between atoms: C_19  and  O_20
REMARK                            x       y       z     vdW  Elec       q    Type
REMARK                         _______ _______ _______ _____ _____    ______ ____
ROOT
ATOM      1  N   UNL     1       7.972  -2.478  25.294  0.00  0.00    -0.291 N 
ATOM      2  C   UNL     1       7.253  -3.497  24.665  0.00  0.00    +0.173 A 
ATOM      3  C   UNL     1       7.734  -3.922  23.295  0.00  0.00    +0.171 A 
ATOM      4  C   UNL     1       7.038  -5.080  22.644  0.00  0.00    +0.282 A 
ATOM      5  N   UNL     1       6.088  -5.658  23.427  0.00  0.00    -0.272 N 
ATOM      6  H   UNL     1       5.586  -6.452  23.058  0.00  0.00    +0.174 HD
ATOM      7  C   UNL     1       5.629  -5.175  24.617  0.00  0.00    +0.351 A 
ATOM      8  O   UNL     1       4.704  -5.767  25.165  0.00  0.00    -0.245 OA
ATOM      9  O   UNL     1       7.293  -5.435  21.503  0.00  0.00    -0.265 OA
ATOM     10  N   UNL     1       8.698  -3.310  22.665  0.00  0.00    -0.238 NA
ATOM     11  C   UNL     1       9.291  -2.236  23.306  0.00  0.00    +0.102 A 
ATOM     12  N   UNL     1       6.211  -4.075  25.164  0.00  0.00    -0.173 NA
ATOM     13  C   UNL     1       8.982  -1.844  24.565  0.00  0.00    +0.216 A 
ENDROOT
BRANCH  13  14
ATOM     14  O   UNL     1       9.679  -0.790  25.112  0.00  0.00    -0.492 OA
ATOM     15  H   UNL     1       9.432   0.019  24.640  0.00  0.00    +0.294 HD
ENDBRANCH  13  14
BRANCH   1  16
ATOM     16  C   UNL     1       7.533  -2.053  26.642  0.00  0.00    +0.160 C 
BRANCH  16  17
ATOM     17  C   UNL     1       6.536  -0.868  26.672  0.00  0.00    +0.165 C 
BRANCH  17  18
ATOM     18  O   UNL     1       6.159  -0.431  25.355  0.00  0.00    -0.387 OA
ATOM     19  H   UNL     1       5.637  -1.143  24.946  0.00  0.00    +0.210 HD
ENDBRANCH  17  18
BRANCH  17  20
ATOM     20  C   UNL     1       7.200   0.366  27.326  0.00  0.00    +0.175 C 
BRANCH  20  21
ATOM     21  O   UNL     1       8.529   0.013  27.748  0.00  0.00    -0.387 OA
ATOM     22  H   UNL     1       9.031   0.849  27.760  0.00  0.00    +0.210 HD
ENDBRANCH  20  21
BRANCH  20  23
ATOM     23  C   UNL     1       7.229   1.601  26.417  0.00  0.00    +0.171 C 
BRANCH  23  24
ATOM     24  O   UNL     1       8.439   1.636  25.653  0.00  0.00    -0.387 OA
ATOM     25  H   UNL     1       9.032   0.984  26.077  0.00  0.00    +0.210 HD
ENDBRANCH  23  24
BRANCH  23  26
ATOM     26  C   UNL     1       7.057   2.904  27.194  0.00  0.00    +0.189 C 
BRANCH  26  27
ATOM     27  O   UNL     1       7.490   2.664  28.536  0.00  0.00    -0.392 OA
ATOM     28  H   UNL     1       8.310   2.142  28.474  0.00  0.00    +0.210 HD
ENDBRANCH  26  27
ENDBRANCH  23  26
ENDBRANCH  20  23
ENDBRANCH  17  20
ENDBRANCH  16  17
ENDBRANCH   1  16
BRANCH  11  29
ATOM     29  C   UNL     1      10.272  -1.476  22.430  0.00  0.00    +0.072 C 
BRANCH  29  30
ATOM     30  C   UNL     1       9.664  -0.310  21.665  0.00  0.00    +0.127 C 
BRANCH  30  31
ATOM     31  C   UNL     1       9.903   1.100  22.156  0.00  0.00    +0.305 C 
ATOM     32  O   UNL     1      10.355   1.309  23.278  0.00  0.00    -0.251 OA
BRANCH  31  33
ATOM     33  O   UNL     1       9.602   2.119  21.337  0.00  0.00    -0.481 OA
ATOM     34  H   UNL     1      10.154   2.930  21.414  0.00  0.00    +0.295 HD
ENDBRANCH  31  33
ENDBRANCH  30  31
ENDBRANCH  29  30
ENDBRANCH  11  29
TORSDOF 14
ENDMDL
MODEL 3
REMARK VINA RESULT:      -6.3      1.328      7.172
REMARK  Name = 
REMARK  14 active torsions:
REMARK  status: ('A' for Active; 'I' for Inactive)
REMARK    1  A    between atoms: O_1  and  C_2
REMARK    2  A    between atoms: C_2  and  C_3
REMARK    3  A    between atoms: C_3  and  O_5
REMARK    4  A    between atoms: C_3  and  C_6
REMARK    5  A    between atoms: C_6  and  O_8
REMARK    6  A    between atoms: C_6  and  C_9
REMARK    7  A    between atoms: C_9  and  O_11
REMARK    8  A    between atoms: C_9  and  C_12
REMARK    9  A    between atoms: C_12  and  N_13
REMARK   10  A    between atoms: C_14  and  O_15
REMARK   11  A    between atoms: C_16  and  C_17
REMARK   12  A    between atoms: C_17  and  C_18
REMARK   13  A    between atoms: C_18  and  C_19
REMARK   14  A    between atoms: C_19  and  O_20
REMARK                            x       y       z     vdW  Elec       q    Type
REMARK                         _______ _______ _______ _____ _____    ______ ____
ROOT
ATOM      1  N   UNL     1       7.032  -3.889  25.231  0.00  0.00    -0.291 N 
ATOM      2  C   UNL     1       6.391  -4.765  24.352  0.00  0.00    +0.173 A 
ATOM      3  C   UNL     1       6.903  -4.796  22.928  0.00  0.00    +0.171 A 
ATOM      4  C   UNL     1       6.294  -5.798  21.994  0.00  0.00    +0.282 A 
ATOM      5  N   UNL     1       5.388  -6.621  22.587  0.00  0.00    -0.272 N 
ATOM      6  H   UNL     1       4.947  -7.330  22.021  0.00  0.00    +0.174 HD
ATOM      7  C   UNL     1       4.894  -6.488  23.852  0.00  0.00    +0.351 A 
ATOM      8  O   UNL     1       4.015  -7.262  24.215  0.00  0.00    -0.245 OA
ATOM      9  O   UNL     1       6.576  -5.835  20.805  0.00  0.00    -0.265 OA
ATOM     10  N   UNL     1       7.820  -3.978  22.491  0.00  0.00    -0.238 NA
ATOM     11  C   UNL     1       8.331  -3.061  23.393  0.00  0.00    +0.102 A 
ATOM     12  N   UNL     1       5.393  -5.523  24.668  0.00  0.00    -0.173 NA
ATOM     13  C   UNL     1       7.993  -3.022  24.704  0.00  0.00    +0.216 A 
ENDROOT
BRANCH  13  14
ATOM     14  O   UNL     1       8.610  -2.094  25.512  0.00  0.00    -0.492 OA
ATOM     15  H   UNL     1       9.338  -1.691  25.016  0.00  0.00    +0.294 HD
ENDBRANCH  13  14
BRANCH   1  16
ATOM     16  C   UNL     1       6.561  -3.850  26.633  0.00  0.00    +0.160 C 
BRANCH  16  17
ATOM     17  C   UNL     1       7.032  -5.026  27.524  0.00  0.00    +0.165 C 
BRANCH  17  18
ATOM     18  O   UNL     1       7.827  -5.982  26.801  0.00  0.00    -0.387 OA
ATOM     19  H   UNL     1       8.328  -6.502  27.452  0.00  0.00    +0.210 HD
ENDBRANCH  17  18
BRANCH  17  20
ATOM     20  C   UNL     1       5.811  -5.827  28.033  0.00  0.00    +0.175 C 
BRANCH  20  21
ATOM     21  O   UNL     1       5.542  -6.902  27.115  0.00  0.00    -0.387 OA
ATOM     22  H   UNL     1       6.146  -7.624  27.374  0.00  0.00    +0.210 HD
ENDBRANCH  20  21
BRANCH  20  23
ATOM     23  C   UNL     1       5.980  -6.362  29.461  0.00  0.00    +0.171 C 
BRANCH  23  24
ATOM     24  O   UNL     1       6.772  -7.555  29.462  0.00  0.00    -0.387 OA
ATOM     25  H   UNL     1       6.194  -8.248  29.840  0.00  0.00    +0.210 HD
ENDBRANCH  23  24
BRANCH  23  26
ATOM     26  C   UNL     1       4.643  -6.614  30.154  0.00  0.00    +0.189 C 
BRANCH  26  27
ATOM     27  O   UNL     1       3.915  -7.550  29.354  0.00  0.00    -0.392 OA
ATOM     28  H   UNL     1       3.029  -7.622  29.750  0.00  0.00    +0.210 HD
ENDBRANCH  26  27
ENDBRANCH  23  26
ENDBRANCH  20  23
ENDBRANCH  17  20
ENDBRANCH  16  17
ENDBRANCH   1  16
BRANCH  11  29
ATOM     29  C   UNL     1       9.255  -2.037  22.756  0.00  0.00    +0.072 C 
BRANCH  29  30
ATOM     30  C   UNL     1       8.546  -0.828  22.165  0.00  0.00    +0.127 C 
BRANCH  30  31
ATOM     31  C   UNL     1       9.325   0.447  21.939  0.00  0.00    +0.305 C 
ATOM     32  O   UNL     1      10.303   0.720  22.629  0.00  0.00    -0.251 OA
BRANCH  31  33
ATOM     33  O   UNL     1       8.917   1.280  20.968  0.00  0.00    -0.481 OA
ATOM     34  H   UNL     1       9.385   1.219  20.104  0.00  0.00    +0.295 HD
ENDBRANCH  31  33
ENDBRANCH  30  31
ENDBRANCH  29  30
ENDBRANCH  11  29
TORSDOF 14
ENDMDL
MODEL 4
REMARK VINA RESULT:      -6.3      2.976      4.900
REMARK  Name = 
REMARK  14 active torsions:
REMARK  status: ('A' for Active; 'I' for Inactive)
REMARK    1  A    between atoms: O_1  and  C_2
REMARK    2  A    between atoms: C_2  and  C_3
REMARK    3  A    between atoms: C_3  and  O_5
REMARK    4  A    between atoms: C_3  and  C_6
REMARK    5  A    between atoms: C_6  and  O_8
REMARK    6  A    between atoms: C_6  and  C_9
REMARK    7  A    between atoms: C_9  and  O_11
REMARK    8  A    between atoms: C_9  and  C_12
REMARK    9  A    between atoms: C_12  and  N_13
REMARK   10  A    between atoms: C_14  and  O_15
REMARK   11  A    between atoms: C_16  and  C_17
REMARK   12  A    between atoms: C_17  and  C_18
REMARK   13  A    between atoms: C_18  and  C_19
REMARK   14  A    between atoms: C_19  and  O_20
REMARK                            x       y       z     vdW  Elec       q    Type
REMARK                         _______ _______ _______ _____ _____    ______ ____
ROOT
ATOM      1  N   UNL     1       9.068  -0.746  23.372  0.00  0.00    -0.291 N 
ATOM      2  C   UNL     1       7.803  -0.261  23.712  0.00  0.00    +0.173 A 
ATOM      3  C   UNL     1       6.881  -1.214  24.440  0.00  0.00    +0.171 A 
ATOM      4  C   UNL     1       5.556  -0.682  24.900  0.00  0.00    +0.282 A 
ATOM      5  N   UNL     1       5.385   0.646  24.660  0.00  0.00    -0.272 N 
ATOM      6  H   UNL     1       4.521   1.075  24.955  0.00  0.00    +0.174 HD
ATOM      7  C   UNL     1       6.210   1.437  23.915  0.00  0.00    +0.351 A 
ATOM      8  O   UNL     1       5.875   2.601  23.718  0.00  0.00    -0.245 OA
ATOM      9  O   UNL     1       4.710  -1.399  25.413  0.00  0.00    -0.265 OA
ATOM     10  N   UNL     1       7.186  -2.464  24.654  0.00  0.00    -0.238 NA
ATOM     11  C   UNL     1       8.413  -2.904  24.190  0.00  0.00    +0.102 A 
ATOM     12  N   UNL     1       7.373   0.925  23.431  0.00  0.00    -0.173 NA
ATOM     13  C   UNL     1       9.332  -2.099  23.607  0.00  0.00    +0.216 A 
ENDROOT
BRANCH  13  14
ATOM     14  O   UNL     1      10.539  -2.646  23.232  0.00  0.00    -0.492 OA
ATOM     15  H   UNL     1      11.226  -1.970  23.331  0.00  0.00    +0.294 HD
ENDBRANCH  13  14
BRANCH   1  16
ATOM     16  C   UNL     1       9.995   0.170  22.673  0.00  0.00    +0.160 C 
BRANCH  16  17
ATOM     17  C   UNL     1      10.697   1.218  23.573  0.00  0.00    +0.165 C 
BRANCH  17  18
ATOM     18  O   UNL     1      10.103   1.308  24.879  0.00  0.00    -0.387 OA
ATOM     19  H   UNL     1      10.532   2.044  25.348  0.00  0.00    +0.210 HD
ENDBRANCH  17  18
BRANCH  17  20
ATOM     20  C   UNL     1      10.537   2.630  22.964  0.00  0.00    +0.175 C 
BRANCH  20  21
ATOM     21  O   UNL     1       9.684   2.547  21.808  0.00  0.00    -0.387 OA
ATOM     22  H   UNL     1      10.086   3.137  21.143  0.00  0.00    +0.210 HD
ENDBRANCH  20  21
BRANCH  20  23
ATOM     23  C   UNL     1      10.004   3.670  23.958  0.00  0.00    +0.171 C 
BRANCH  23  24
ATOM     24  O   UNL     1       8.573   3.708  23.930  0.00  0.00    -0.387 OA
ATOM     25  H   UNL     1       8.287   2.787  24.090  0.00  0.00    +0.210 HD
ENDBRANCH  23  24
BRANCH  23  26
ATOM     26  C   UNL     1      10.575   5.064  23.709  0.00  0.00    +0.189 C 
BRANCH  26  27
ATOM     27  O   UNL     1      11.643   4.929  22.767  0.00  0.00    -0.392 OA
ATOM     28  H   UNL     1      11.250   4.572  21.951  0.00  0.00    +0.210 HD
ENDBRANCH  26  27
ENDBRANCH  23  26
ENDBRANCH  20  23
ENDBRANCH  17  20
ENDBRANCH  16  17
ENDBRANCH   1  16
BRANCH  11  29
ATOM     29  C   UNL     1       8.605  -4.405  24.319  0.00  0.00    +0.072 C 
BRANCH  29  30
ATOM     30  C   UNL     1       7.698  -5.073  25.342  0.00  0.00    +0.127 C 
BRANCH  30  31
ATOM     31  C   UNL     1       8.183  -5.236  26.764  0.00  0.00    +0.305 C 
ATOM     32  O   UNL     1       7.457  -5.719  27.627  0.00  0.00    -0.251 OA
BRANCH  31  33
ATOM     33  O   UNL     1       9.428  -4.832  27.062  0.00  0.00    -0.481 OA
ATOM     34  H   UNL     1       9.626  -3.875  26.947  0.00  0.00    +0.295 HD
ENDBRANCH  31  33
ENDBRANCH  30  31
ENDBRANCH  29  30
ENDBRANCH  11  29
TORSDOF 14
ENDMDL
MODEL 5
REMARK VINA RESULT:      -6.2      2.991      6.394
REMARK  Name = 
REMARK  14 active torsions:
REMARK  status: ('A' for Active; 'I' for Inactive)
REMARK    1  A    between atoms: O_1  and  C_2
REMARK    2  A    between atoms: C_2  and  C_3
REMARK    3  A    between atoms: C_3  and  O_5
REMARK    4  A    between atoms: C_3  and  C_6
REMARK    5  A    between atoms: C_6  and  O_8
REMARK    6  A    between atoms: C_6  and  C_9
REMARK    7  A    between atoms: C_9  and  O_11
REMARK    8  A    between atoms: C_9  and  C_12
REMARK    9  A    between atoms: C_12  and  N_13
REMARK   10  A    between atoms: C_14  and  O_15
REMARK   11  A    between atoms: C_16  and  C_17
REMARK   12  A    between atoms: C_17  and  C_18
REMARK   13  A    between atoms: C_18  and  C_19
REMARK   14  A    between atoms: C_19  and  O_20
REMARK                            x       y       z     vdW  Elec       q    Type
REMARK                         _______ _______ _______ _____ _____    ______ ____
ROOT
ATOM      1  N   UNL     1       8.665  -1.503  25.956  0.00  0.00    -0.291 N 
ATOM      2  C   UNL     1       8.440  -2.880  26.011  0.00  0.00    +0.173 A 
ATOM      3  C   UNL     1       9.072  -3.717  24.920  0.00  0.00    +0.171 A 
ATOM      4  C   UNL     1       8.925  -5.206  25.015  0.00  0.00    +0.282 A 
ATOM      5  N   UNL     1       8.289  -5.623  26.142  0.00  0.00    -0.272 N 
ATOM      6  H   UNL     1       8.165  -6.615  26.279  0.00  0.00    +0.174 HD
ATOM      7  C   UNL     1       7.655  -4.822  27.046  0.00  0.00    +0.351 A 
ATOM      8  O   UNL     1       7.050  -5.356  27.970  0.00  0.00    -0.245 OA
ATOM      9  O   UNL     1       9.321  -5.956  24.135  0.00  0.00    -0.265 OA
ATOM     10  N   UNL     1       9.706  -3.193  23.908  0.00  0.00    -0.238 NA
ATOM     11  C   UNL     1       9.793  -1.812  23.862  0.00  0.00    +0.102 A 
ATOM     12  N   UNL     1       7.723  -3.471  26.909  0.00  0.00    -0.173 NA
ATOM     13  C   UNL     1       9.333  -0.994  24.838  0.00  0.00    +0.216 A 
ENDROOT
BRANCH  13  14
ATOM     14  O   UNL     1       9.525   0.362  24.700  0.00  0.00    -0.492 OA
ATOM     15  H   UNL     1       9.576   0.570  23.756  0.00  0.00    +0.294 HD
ENDBRANCH  13  14
BRANCH   1  16
ATOM     16  C   UNL     1       8.071  -0.662  27.019  0.00  0.00    +0.160 C 
BRANCH  16  17
ATOM     17  C   UNL     1       6.582  -0.288  26.815  0.00  0.00    +0.165 C 
BRANCH  17  18
ATOM     18  O   UNL     1       5.958  -1.057  25.773  0.00  0.00    -0.387 OA
ATOM     19  H   UNL     1       6.652  -1.580  25.336  0.00  0.00    +0.210 HD
ENDBRANCH  17  18
BRANCH  17  20
ATOM     20  C   UNL     1       6.464   1.182  26.351  0.00  0.00    +0.175 C 
BRANCH  20  21
ATOM     21  O   UNL     1       7.764   1.797  26.414  0.00  0.00    -0.387 OA
ATOM     22  H   UNL     1       7.705   2.460  27.129  0.00  0.00    +0.210 HD
ENDBRANCH  20  21
BRANCH  20  23
ATOM     23  C   UNL     1       5.858   1.337  24.951  0.00  0.00    +0.171 C 
BRANCH  23  24
ATOM     24  O   UNL     1       6.881   1.300  23.951  0.00  0.00    -0.387 OA
ATOM     25  H   UNL     1       7.611   1.846  24.306  0.00  0.00    +0.210 HD
ENDBRANCH  23  24
BRANCH  23  26
ATOM     26  C   UNL     1       5.027   2.611  24.810  0.00  0.00    +0.189 C 
BRANCH  26  27
ATOM     27  O   UNL     1       4.007   2.352  23.841  0.00  0.00    -0.392 OA
ATOM     28  H   UNL     1       4.324   2.724  22.999  0.00  0.00    +0.210 HD
ENDBRANCH  26  27
ENDBRANCH  23  26
ENDBRANCH  20  23
ENDBRANCH  17  20
ENDBRANCH  16  17
ENDBRANCH   1  16
BRANCH  11  29
ATOM     29  C   UNL     1      10.384  -1.286  22.566  0.00  0.00    +0.072 C 
BRANCH  29  30
ATOM     30  C   UNL     1       9.365  -0.714  21.592  0.00  0.00    +0.127 C 
BRANCH  30  31
ATOM     31  C   UNL     1       9.199   0.785  21.493  0.00  0.00    +0.305 C 
ATOM     32  O   UNL     1       8.130   1.280  21.149  0.00  0.00    -0.251 OA
BRANCH  31  33
ATOM     33  O   UNL     1      10.253   1.563  21.785  0.00  0.00    -0.481 OA
ATOM     34  H   UNL     1      10.067   2.408  22.254  0.00  0.00    +0.295 HD
ENDBRANCH  31  33
ENDBRANCH  30  31
ENDBRANCH  29  30
ENDBRANCH  11  29
TORSDOF 14
ENDMDL
MODEL 6
REMARK VINA RESULT:      -6.0      3.233      6.733
REMARK  Name = 
REMARK  14 active torsions:
REMARK  status: ('A' for Active; 'I' for Inactive)
REMARK    1  A    between atoms: O_1  and  C_2
REMARK    2  A    between atoms: C_2  and  C_3
REMARK    3  A    between atoms: C_3  and  O_5
REMARK    4  A    between atoms: C_3  and  C_6
REMARK    5  A    between atoms: C_6  and  O_8
REMARK    6  A    between atoms: C_6  and  C_9
REMARK    7  A    between atoms: C_9  and  O_11
REMARK    8  A    between atoms: C_9  and  C_12
REMARK    9  A    between atoms: C_12  and  N_13
REMARK   10  A    between atoms: C_14  and  O_15
REMARK   11  A    between atoms: C_16  and  C_17
REMARK   12  A    between atoms: C_17  and  C_18
REMARK   13  A    between atoms: C_18  and  C_19
REMARK   14  A    between atoms: C_19  and  O_20
REMARK                            x       y       z     vdW  Elec       q    Type
REMARK                         _______ _______ _______ _____ _____    ______ ____
ROOT
ATOM      1  N   UNL     1       6.539  -2.553  24.436  0.00  0.00    -0.291 N 
ATOM      2  C   UNL     1       7.246  -3.590  25.048  0.00  0.00    +0.173 A 
ATOM      3  C   UNL     1       8.691  -3.767  24.633  0.00  0.00    +0.171 A 
ATOM      4  C   UNL     1       9.495  -4.811  25.348  0.00  0.00    +0.282 A 
ATOM      5  N   UNL     1       8.822  -5.426  26.356  0.00  0.00    -0.272 N 
ATOM      6  H   UNL     1       9.306  -6.132  26.891  0.00  0.00    +0.174 HD
ATOM      7  C   UNL     1       7.491  -5.296  26.627  0.00  0.00    +0.351 A 
ATOM      8  O   UNL     1       7.010  -5.985  27.520  0.00  0.00    -0.245 OA
ATOM      9  O   UNL     1      10.639  -5.089  25.020  0.00  0.00    -0.265 OA
ATOM     10  N   UNL     1       9.238  -3.072  23.675  0.00  0.00    -0.238 NA
ATOM     11  C   UNL     1       8.442  -2.137  23.037  0.00  0.00    +0.102 A 
ATOM     12  N   UNL     1       6.747  -4.405  25.918  0.00  0.00    -0.173 NA
ATOM     13  C   UNL     1       7.169  -1.854  23.402  0.00  0.00    +0.216 A 
ENDROOT
BRANCH  13  14
ATOM     14  O   UNL     1       6.496  -0.865  22.720  0.00  0.00    -0.492 OA
ATOM     15  H   UNL     1       6.733  -0.010  23.108  0.00  0.00    +0.294 HD
ENDBRANCH  13  14
BRANCH   1  16
ATOM     16  C   UNL     1       5.129  -2.348  24.836  0.00  0.00    +0.160 C 
BRANCH  16  17
ATOM     17  C   UNL     1       4.918  -1.480  26.101  0.00  0.00    +0.165 C 
BRANCH  17  18
ATOM     18  O   UNL     1       3.533  -1.169  26.331  0.00  0.00    -0.387 OA
ATOM     19  H   UNL     1       3.480  -0.645  27.149  0.00  0.00    +0.210 HD
ENDBRANCH  17  18
BRANCH  17  20
ATOM     20  C   UNL     1       5.610  -0.108  25.924  0.00  0.00    +0.175 C 
BRANCH  20  21
ATOM     21  O   UNL     1       4.982   0.595  24.837  0.00  0.00    -0.387 OA
ATOM     22  H   UNL     1       4.128   0.912  25.189  0.00  0.00    +0.210 HD
ENDBRANCH  20  21
BRANCH  20  23
ATOM     23  C   UNL     1       5.610   0.748  27.196  0.00  0.00    +0.171 C 
BRANCH  23  24
ATOM     24  O   UNL     1       5.141  -0.012  28.315  0.00  0.00    -0.387 OA
ATOM     25  H   UNL     1       4.165   0.021  28.260  0.00  0.00    +0.210 HD
ENDBRANCH  23  24
BRANCH  23  26
ATOM     26  C   UNL     1       4.787   2.025  27.043  0.00  0.00    +0.189 C 
BRANCH  26  27
ATOM     27  O   UNL     1       3.407   1.649  27.044  0.00  0.00    -0.392 OA
ATOM     28  H   UNL     1       3.056   1.880  26.166  0.00  0.00    +0.210 HD
ENDBRANCH  26  27
ENDBRANCH  23  26
ENDBRANCH  20  23
ENDBRANCH  17  20
ENDBRANCH  16  17
ENDBRANCH   1  16
BRANCH  11  29
ATOM     29  C   UNL     1       9.103  -1.508  21.823  0.00  0.00    +0.072 C 
BRANCH  29  30
ATOM     30  C   UNL     1       9.917  -0.258  22.123  0.00  0.00    +0.127 C 
BRANCH  30  31
ATOM     31  C   UNL     1       9.353   1.096  21.757  0.00  0.00    +0.305 C 
ATOM     32  O   UNL     1       8.144   1.262  21.626  0.00  0.00    -0.251 OA
BRANCH  31  33
ATOM     33  O   UNL     1      10.209   2.113  21.571  0.00  0.00    -0.481 OA
ATOM     34  H   UNL     1       9.951   2.798  20.913  0.00  0.00    +0.295 HD
ENDBRANCH  31  33
ENDBRANCH  30  31
ENDBRANCH  29  30
ENDBRANCH  11  29
TORSDOF 14
ENDMDL
MODEL 7
REMARK VINA RESULT:      -5.9      2.806      7.278
REMARK  Name = 
REMARK  14 active torsions:
REMARK  status: ('A' for Active; 'I' for Inactive)
REMARK    1  A    between atoms: O_1  and  C_2
REMARK    2  A    between atoms: C_2  and  C_3
REMARK    3  A    between atoms: C_3  and  O_5
REMARK    4  A    between atoms: C_3  and  C_6
REMARK    5  A    between atoms: C_6  and  O_8
REMARK    6  A    between atoms: C_6  and  C_9
REMARK    7  A    between atoms: C_9  and  O_11
REMARK    8  A    between atoms: C_9  and  C_12
REMARK    9  A    between atoms: C_12  and  N_13
REMARK   10  A    between atoms: C_14  and  O_15
REMARK   11  A    between atoms: C_16  and  C_17
REMARK   12  A    between atoms: C_17  and  C_18
REMARK   13  A    between atoms: C_18  and  C_19
REMARK   14  A    between atoms: C_19  and  O_20
REMARK                            x       y       z     vdW  Elec       q    Type
REMARK                         _______ _______ _______ _____ _____    ______ ____
ROOT
ATOM      1  N   UNL     1       6.500  -2.521  24.504  0.00  0.00    -0.291 N 
ATOM      2  C   UNL     1       7.213  -3.566  25.096  0.00  0.00    +0.173 A 
ATOM      3  C   UNL     1       8.652  -3.740  24.660  0.00  0.00    +0.171 A 
ATOM      4  C   UNL     1       9.464  -4.793  25.354  0.00  0.00    +0.282 A 
ATOM      5  N   UNL     1       8.803  -5.419  26.363  0.00  0.00    -0.272 N 
ATOM      6  H   UNL     1       9.293  -6.131  26.884  0.00  0.00    +0.174 HD
ATOM      7  C   UNL     1       7.475  -5.289  26.652  0.00  0.00    +0.351 A 
ATOM      8  O   UNL     1       7.005  -5.988  27.544  0.00  0.00    -0.245 OA
ATOM      9  O   UNL     1      10.603  -5.068  25.008  0.00  0.00    -0.265 OA
ATOM     10  N   UNL     1       9.188  -3.035  23.703  0.00  0.00    -0.238 NA
ATOM     11  C   UNL     1       8.385  -2.092  23.085  0.00  0.00    +0.102 A 
ATOM     12  N   UNL     1       6.724  -4.390  25.963  0.00  0.00    -0.173 NA
ATOM     13  C   UNL     1       7.118  -1.812  23.470  0.00  0.00    +0.216 A 
ENDROOT
BRANCH  13  14
ATOM     14  O   UNL     1       6.437  -0.815  22.808  0.00  0.00    -0.492 OA
ATOM     15  H   UNL     1       6.512  -0.974  21.855  0.00  0.00    +0.294 HD
ENDBRANCH  13  14
BRANCH   1  16
ATOM     16  C   UNL     1       5.095  -2.319  24.924  0.00  0.00    +0.160 C 
BRANCH  16  17
ATOM     17  C   UNL     1       4.894  -1.373  26.134  0.00  0.00    +0.165 C 
BRANCH  17  18
ATOM     18  O   UNL     1       6.004  -1.403  27.047  0.00  0.00    -0.387 OA
ATOM     19  H   UNL     1       6.784  -1.712  26.554  0.00  0.00    +0.210 HD
ENDBRANCH  17  18
BRANCH  17  20
ATOM     20  C   UNL     1       3.678  -1.834  26.970  0.00  0.00    +0.175 C 
BRANCH  20  21
ATOM     21  O   UNL     1       2.560  -0.975  26.681  0.00  0.00    -0.387 OA
ATOM     22  H   UNL     1       2.929  -0.228  26.171  0.00  0.00    +0.210 HD
ENDBRANCH  20  21
BRANCH  20  23
ATOM     23  C   UNL     1       3.303  -3.305  26.749  0.00  0.00    +0.171 C 
BRANCH  23  24
ATOM     24  O   UNL     1       1.930  -3.423  26.362  0.00  0.00    -0.387 OA
ATOM     25  H   UNL     1       1.584  -2.509  26.353  0.00  0.00    +0.210 HD
ENDBRANCH  23  24
BRANCH  23  26
ATOM     26  C   UNL     1       3.584  -4.171  27.975  0.00  0.00    +0.189 C 
BRANCH  26  27
ATOM     27  O   UNL     1       4.917  -3.884  28.407  0.00  0.00    -0.392 OA
ATOM     28  H   UNL     1       5.512  -4.382  27.820  0.00  0.00    +0.210 HD
ENDBRANCH  26  27
ENDBRANCH  23  26
ENDBRANCH  20  23
ENDBRANCH  17  20
ENDBRANCH  16  17
ENDBRANCH   1  16
BRANCH  11  29
ATOM     29  C   UNL     1       9.032  -1.450  21.870  0.00  0.00    +0.072 C 
BRANCH  29  30
ATOM     30  C   UNL     1       9.851  -0.204  22.173  0.00  0.00    +0.127 C 
BRANCH  30  31
ATOM     31  C   UNL     1       9.302   1.151  21.789  0.00  0.00    +0.305 C 
ATOM     32  O   UNL     1       8.093   1.340  21.699  0.00  0.00    -0.251 OA
BRANCH  31  33
ATOM     33  O   UNL     1      10.172   2.142  21.539  0.00  0.00    -0.481 OA
ATOM     34  H   UNL     1      10.995   2.160  22.079  0.00  0.00    +0.295 HD
ENDBRANCH  31  33
ENDBRANCH  30  31
ENDBRANCH  29  30
ENDBRANCH  11  29
TORSDOF 14
ENDMDL
MODEL 8
REMARK VINA RESULT:      -5.8      1.783      3.978
REMARK  Name = 
REMARK  14 active torsions:
REMARK  status: ('A' for Active; 'I' for Inactive)
REMARK    1  A    between atoms: O_1  and  C_2
REMARK    2  A    between atoms: C_2  and  C_3
REMARK    3  A    between atoms: C_3  and  O_5
REMARK    4  A    between atoms: C_3  and  C_6
REMARK    5  A    between atoms: C_6  and  O_8
REMARK    6  A    between atoms: C_6  and  C_9
REMARK    7  A    between atoms: C_9  and  O_11
REMARK    8  A    between atoms: C_9  and  C_12
REMARK    9  A    between atoms: C_12  and  N_13
REMARK   10  A    between atoms: C_14  and  O_15
REMARK   11  A    between atoms: C_16  and  C_17
REMARK   12  A    between atoms: C_17  and  C_18
REMARK   13  A    between atoms: C_18  and  C_19
REMARK   14  A    between atoms: C_19  and  O_20
REMARK                            x       y       z     vdW  Elec       q    Type
REMARK                         _______ _______ _______ _____ _____    ______ ____
ROOT
ATOM      1  N   UNL     1       6.535  -3.892  23.597  0.00  0.00    -0.291 N 
ATOM      2  C   UNL     1       6.926  -4.427  24.826  0.00  0.00    +0.173 A 
ATOM      3  C   UNL     1       5.957  -5.376  25.495  0.00  0.00    +0.171 A 
ATOM      4  C   UNL     1       6.399  -6.037  26.766  0.00  0.00    +0.282 A 
ATOM      5  N   UNL     1       7.679  -5.745  27.120  0.00  0.00    -0.272 N 
ATOM      6  H   UNL     1       8.049  -6.165  27.960  0.00  0.00    +0.174 HD
ATOM      7  C   UNL     1       8.478  -4.807  26.532  0.00  0.00    +0.351 A 
ATOM      8  O   UNL     1       9.583  -4.598  27.021  0.00  0.00    -0.245 OA
ATOM      9  O   UNL     1       5.652  -6.746  27.425  0.00  0.00    -0.265 OA
ATOM     10  N   UNL     1       4.764  -5.613  25.024  0.00  0.00    -0.238 NA
ATOM     11  C   UNL     1       4.403  -4.960  23.858  0.00  0.00    +0.102 A 
ATOM     12  N   UNL     1       8.038  -4.151  25.425  0.00  0.00    -0.173 NA
ATOM     13  C   UNL     1       5.238  -4.163  23.150  0.00  0.00    +0.216 A 
ENDROOT
BRANCH  13  14
ATOM     14  O   UNL     1       4.777  -3.609  21.977  0.00  0.00    -0.492 OA
ATOM     15  H   UNL     1       5.497  -3.620  21.329  0.00  0.00    +0.294 HD
ENDBRANCH  13  14
BRANCH   1  16
ATOM     16  C   UNL     1       7.471  -2.972  22.913  0.00  0.00    +0.160 C 
BRANCH  16  17
ATOM     17  C   UNL     1       7.487  -1.520  23.452  0.00  0.00    +0.165 C 
BRANCH  17  18
ATOM     18  O   UNL     1       6.705  -0.624  22.644  0.00  0.00    -0.387 OA
ATOM     19  H   UNL     1       7.211  -0.438  21.835  0.00  0.00    +0.210 HD
ENDBRANCH  17  18
BRANCH  17  20
ATOM     20  C   UNL     1       8.925  -0.952  23.401  0.00  0.00    +0.175 C 
BRANCH  20  21
ATOM     21  O   UNL     1       9.808  -1.853  24.093  0.00  0.00    -0.387 OA
ATOM     22  H   UNL     1      10.176  -1.340  24.837  0.00  0.00    +0.210 HD
ENDBRANCH  20  21
BRANCH  20  23
ATOM     23  C   UNL     1       9.428  -0.685  21.977  0.00  0.00    +0.171 C 
BRANCH  23  24
ATOM     24  O   UNL     1      10.546  -1.526  21.671  0.00  0.00    -0.387 OA
ATOM     25  H   UNL     1      11.302  -0.918  21.548  0.00  0.00    +0.210 HD
ENDBRANCH  23  24
BRANCH  23  26
ATOM     26  C   UNL     1       9.792   0.780  21.750  0.00  0.00    +0.189 C 
BRANCH  26  27
ATOM     27  O   UNL     1       8.709   1.386  21.039  0.00  0.00    -0.392 OA
ATOM     28  H   UNL     1       7.918   1.283  21.596  0.00  0.00    +0.210 HD
ENDBRANCH  26  27
ENDBRANCH  23  26
ENDBRANCH  20  23
ENDBRANCH  17  20
ENDBRANCH  16  17
ENDBRANCH   1  16
BRANCH  11  29
ATOM     29  C   UNL     1       2.944  -5.152  23.485  0.00  0.00    +0.072 C 
BRANCH  29  30
ATOM     30  C   UNL     1       2.575  -6.574  23.087  0.00  0.00    +0.127 C 
BRANCH  30  31
ATOM     31  C   UNL     1       1.990  -7.503  24.125  0.00  0.00    +0.305 C 
ATOM     32  O   UNL     1       0.935  -7.232  24.691  0.00  0.00    -0.251 OA
BRANCH  31  33
ATOM     33  O   UNL     1       2.656  -8.630  24.419  0.00  0.00    -0.481 OA
ATOM     34  H   UNL     1       3.391  -8.883  23.816  0.00  0.00    +0.295 HD
ENDBRANCH  31  33
ENDBRANCH  30  31
ENDBRANCH  29  30
ENDBRANCH  11  29
TORSDOF 14
ENDMDL
MODEL 9
REMARK VINA RESULT:      -5.8      3.344      5.560
REMARK  Name = 
REMARK  14 active torsions:
REMARK  status: ('A' for Active; 'I' for Inactive)
REMARK    1  A    between atoms: O_1  and  C_2
REMARK    2  A    between atoms: C_2  and  C_3
REMARK    3  A    between atoms: C_3  and  O_5
REMARK    4  A    between atoms: C_3  and  C_6
REMARK    5  A    between atoms: C_6  and  O_8
REMARK    6  A    between atoms: C_6  and  C_9
REMARK    7  A    between atoms: C_9  and  O_11
REMARK    8  A    between atoms: C_9  and  C_12
REMARK    9  A    between atoms: C_12  and  N_13
REMARK   10  A    between atoms: C_14  and  O_15
REMARK   11  A    between atoms: C_16  and  C_17
REMARK   12  A    between atoms: C_17  and  C_18
REMARK   13  A    between atoms: C_18  and  C_19
REMARK   14  A    between atoms: C_19  and  O_20
REMARK                            x       y       z     vdW  Elec       q    Type
REMARK                         _______ _______ _______ _____ _____    ______ ____
ROOT
ATOM      1  N   UNL     1       6.676  -0.007  24.638  0.00  0.00    -0.291 N 
ATOM      2  C   UNL     1       8.007  -0.029  24.215  0.00  0.00    +0.173 A 
ATOM      3  C   UNL     1       8.572  -1.375  23.813  0.00  0.00    +0.171 A 
ATOM      4  C   UNL     1       9.966  -1.405  23.264  0.00  0.00    +0.282 A 
ATOM      5  N   UNL     1      10.529  -0.174  23.126  0.00  0.00    -0.272 N 
ATOM      6  H   UNL     1      11.463  -0.118  22.750  0.00  0.00    +0.174 HD
ATOM      7  C   UNL     1      10.011   0.999  23.593  0.00  0.00    +0.351 A 
ATOM      8  O   UNL     1      10.680   2.019  23.466  0.00  0.00    -0.245 OA
ATOM      9  O   UNL     1      10.539  -2.452  23.000  0.00  0.00    -0.265 OA
ATOM     10  N   UNL     1       7.905  -2.487  23.950  0.00  0.00    -0.238 NA
ATOM     11  C   UNL     1       6.630  -2.400  24.480  0.00  0.00    +0.102 A 
ATOM     12  N   UNL     1       8.778   1.007  24.165  0.00  0.00    -0.173 NA
ATOM     13  C   UNL     1       6.018  -1.232  24.785  0.00  0.00    +0.216 A 
ENDROOT
BRANCH  13  14
ATOM     14  O   UNL     1       4.726  -1.274  25.260  0.00  0.00    -0.492 OA
ATOM     15  H   UNL     1       4.359  -2.151  25.073  0.00  0.00    +0.294 HD
ENDBRANCH  13  14
BRANCH   1  16
ATOM     16  C   UNL     1       6.094   1.298  25.022  0.00  0.00    +0.160 C 
BRANCH  16  17
ATOM     17  C   UNL     1       5.644   2.196  23.844  0.00  0.00    +0.165 C 
BRANCH  17  18
ATOM     18  O   UNL     1       6.067   1.685  22.568  0.00  0.00    -0.387 OA
ATOM     19  H   UNL     1       5.269   1.471  22.056  0.00  0.00    +0.210 HD
ENDBRANCH  17  18
BRANCH  17  20
ATOM     20  C   UNL     1       6.309   3.588  23.956  0.00  0.00    +0.175 C 
BRANCH  20  21
ATOM     21  O   UNL     1       7.341   3.534  24.957  0.00  0.00    -0.387 OA
ATOM     22  H   UNL     1       6.968   3.980  25.741  0.00  0.00    +0.210 HD
ENDBRANCH  20  21
BRANCH  20  23
ATOM     23  C   UNL     1       6.869   4.109  22.626  0.00  0.00    +0.171 C 
BRANCH  23  24
ATOM     24  O   UNL     1       8.202   3.630  22.418  0.00  0.00    -0.387 OA
ATOM     25  H   UNL     1       8.609   4.260  21.790  0.00  0.00    +0.210 HD
ENDBRANCH  23  24
BRANCH  23  26
ATOM     26  C   UNL     1       6.835   5.633  22.533  0.00  0.00    +0.189 C 
BRANCH  26  27
ATOM     27  O   UNL     1       7.522   6.005  21.335  0.00  0.00    -0.392 OA
ATOM     28  H   UNL     1       8.206   5.328  21.186  0.00  0.00    +0.210 HD
ENDBRANCH  26  27
ENDBRANCH  23  26
ENDBRANCH  20  23
ENDBRANCH  17  20
ENDBRANCH  16  17
ENDBRANCH   1  16
BRANCH  11  29
ATOM     29  C   UNL     1       6.003  -3.753  24.772  0.00  0.00    +0.072 C 
BRANCH  29  30
ATOM     30  C   UNL     1       6.993  -4.833  25.182  0.00  0.00    +0.127 C 
BRANCH  30  31
ATOM     31  C   UNL     1       7.370  -4.973  26.639  0.00  0.00    +0.305 C 
ATOM     32  O   UNL     1       6.900  -4.222  27.488  0.00  0.00    -0.251 OA
BRANCH  31  33
ATOM     33  O   UNL     1       8.240  -5.936  26.982  0.00  0.00    -0.481 OA
ATOM     34  H   UNL     1       8.850  -6.257  26.280  0.00  0.00    +0.295 HD
ENDBRANCH  31  33
ENDBRANCH  30  31
ENDBRANCH  29  30
ENDBRANCH  11  29
TORSDOF 14
ENDMDL
