MODEL 1
REMARK VINA RESULT:      -5.1      0.000      0.000
REMARK  Name = 
REMARK  7 active torsions:
REMARK  status: ('A' for Active; 'I' for Inactive)
REMARK    1  A    between atoms: N_1  and  C_2
REMARK    2  A    between atoms: C_2  and  C_3
REMARK    3  A    between atoms: C_3  and  O_4
REMARK    4  A    between atoms: C_8  and  O_9
REMARK    5  A    between atoms: N_10  and  C_11
REMARK    6  A    between atoms: C_11  and  C_12
REMARK    7  A    between atoms: C_12  and  O_13
REMARK                            x       y       z     vdW  Elec       q    Type
REMARK                         _______ _______ _______ _____ _____    ______ ____
ROOT
ATOM      1  C   UNL     1       9.258   2.123  22.472  0.00  0.00    +0.364 C 
ATOM      2  N   UNL     1       8.510   0.890  22.886  0.00  0.00    -0.134 N 
ATOM      3  C   UNL     1       7.268   1.142  22.771  0.00  0.00    +0.432 C 
ATOM      4  C   UNL     1       6.996   2.529  22.280  0.00  0.00    +0.355 C 
ATOM      5  O   UNL     1       5.887   2.988  22.159  0.00  0.00    -0.260 OA
ATOM      6  N   UNL     1       8.235   3.061  22.094  0.00  0.00    -0.218 N 
ATOM      7  H   UNL     1       8.401   3.982  21.708  0.00  0.00    +0.158 HD
ENDROOT
BRANCH   3   8
ATOM      8  O   UNL     1       6.352   0.271  23.126  0.00  0.00    -0.456 OA
ATOM      9  H   UNL     1       5.556   0.325  22.551  0.00  0.00    +0.298 HD
ENDBRANCH   3   8
BRANCH   1  10
ATOM     10  O   UNL     1      10.115   2.030  21.363  0.00  0.00    -0.317 OA
ATOM     11  H   UNL     1       9.533   1.924  20.582  0.00  0.00    +0.219 HD
ENDBRANCH   1  10
BRANCH   1  12
ATOM     12  C   UNL     1      10.077   2.673  23.692  0.00  0.00    +0.215 C 
BRANCH  12  13
ATOM     13  N   UNL     1      10.999   3.751  23.291  0.00  0.00    -0.321 NA
ATOM     14  H   UNL     1      10.478   4.567  22.956  0.00  0.00    +0.119 HD
ATOM     15  H   UNL     1      11.508   4.101  24.111  0.00  0.00    +0.119 HD
ENDBRANCH  12  13
ENDBRANCH   1  12
BRANCH   2  16
ATOM     16  C   UNL     1       9.143  -0.365  23.321  0.00  0.00    +0.479 C 
BRANCH  16  17
ATOM     17  C   UNL     1       9.070  -1.392  22.223  0.00  0.00    +0.371 C 
ATOM     18  O   UNL     1       8.114  -2.135  22.060  0.00  0.00    -0.244 OA
BRANCH  17  19
ATOM     19  O   UNL     1      10.174  -1.460  21.451  0.00  0.00    -0.476 OA
ATOM     20  H   UNL     1      11.007  -1.039  21.747  0.00  0.00    +0.295 HD
ENDBRANCH  17  19
ENDBRANCH  16  17
ENDBRANCH   2  16
TORSDOF 7
ENDMDL
MODEL 2
REMARK VINA RESULT:      -4.9      4.637      6.357
REMARK  Name = 
REMARK  7 active torsions:
REMARK  status: ('A' for Active; 'I' for Inactive)
REMARK    1  A    between atoms: N_1  and  C_2
REMARK    2  A    between atoms: C_2  and  C_3
REMARK    3  A    between atoms: C_3  and  O_4
REMARK    4  A    between atoms: C_8  and  O_9
REMARK    5  A    between atoms: N_10  and  C_11
REMARK    6  A    between atoms: C_11  and  C_12
REMARK    7  A    between atoms: C_12  and  O_13
REMARK                            x       y       z     vdW  Elec       q    Type
REMARK                         _______ _______ _______ _____ _____    ______ ____
ROOT
ATOM      1  C   UNL     1       8.830  -4.485  24.691  0.00  0.00    +0.364 C 
ATOM      2  N   UNL     1       7.765  -4.035  23.734  0.00  0.00    -0.134 N 
ATOM      3  C   UNL     1       8.182  -2.972  23.173  0.00  0.00    +0.432 C 
ATOM      4  C   UNL     1       9.539  -2.555  23.646  0.00  0.00    +0.355 C 
ATOM      5  O   UNL     1      10.089  -1.544  23.285  0.00  0.00    -0.260 OA
ATOM      6  N   UNL     1       9.887  -3.521  24.540  0.00  0.00    -0.218 N 
ATOM      7  H   UNL     1      10.786  -3.562  25.004  0.00  0.00    +0.158 HD
ENDROOT
BRANCH   3   8
ATOM      8  O   UNL     1       7.435  -2.301  22.327  0.00  0.00    -0.456 OA
ATOM      9  H   UNL     1       6.909  -1.605  22.780  0.00  0.00    +0.298 HD
ENDBRANCH   3   8
BRANCH   1  10
ATOM     10  O   UNL     1       9.426  -5.737  24.469  0.00  0.00    -0.317 OA
ATOM     11  H   UNL     1       8.689  -6.378  24.398  0.00  0.00    +0.219 HD
ENDBRANCH   1  10
BRANCH   1  12
ATOM     12  C   UNL     1       8.267  -4.451  26.155  0.00  0.00    +0.215 C 
BRANCH  12  13
ATOM     13  N   UNL     1       8.228  -5.795  26.758  0.00  0.00    -0.321 NA
ATOM     14  H   UNL     1       8.694  -6.477  26.152  0.00  0.00    +0.119 HD
ATOM     15  H   UNL     1       8.783  -5.809  27.621  0.00  0.00    +0.119 HD
ENDBRANCH  12  13
ENDBRANCH   1  12
BRANCH   2  16
ATOM     16  C   UNL     1       6.494  -4.742  23.507  0.00  0.00    +0.479 C 
BRANCH  16  17
ATOM     17  C   UNL     1       6.502  -5.404  22.154  0.00  0.00    +0.371 C 
ATOM     18  O   UNL     1       7.094  -6.446  21.920  0.00  0.00    -0.244 OA
BRANCH  17  19
ATOM     19  O   UNL     1       5.835  -4.724  21.199  0.00  0.00    -0.476 OA
ATOM     20  H   UNL     1       4.917  -4.975  20.969  0.00  0.00    +0.295 HD
ENDBRANCH  17  19
ENDBRANCH  16  17
ENDBRANCH   2  16
TORSDOF 7
ENDMDL
MODEL 3
REMARK VINA RESULT:      -4.8      2.175      3.172
REMARK  Name = 
REMARK  7 active torsions:
REMARK  status: ('A' for Active; 'I' for Inactive)
REMARK    1  A    between atoms: N_1  and  C_2
REMARK    2  A    between atoms: C_2  and  C_3
REMARK    3  A    between atoms: C_3  and  O_4
REMARK    4  A    between atoms: C_8  and  O_9
REMARK    5  A    between atoms: N_10  and  C_11
REMARK    6  A    between atoms: C_11  and  C_12
REMARK    7  A    between atoms: C_12  and  O_13
REMARK                            x       y       z     vdW  Elec       q    Type
REMARK                         _______ _______ _______ _____ _____    ______ ____
ROOT
ATOM      1  C   UNL     1       9.094   1.005  24.767  0.00  0.00    +0.364 C 
ATOM      2  N   UNL     1       9.082   0.743  23.289  0.00  0.00    -0.134 N 
ATOM      3  C   UNL     1       9.570   1.769  22.717  0.00  0.00    +0.432 C 
ATOM      4  C   UNL     1       9.972   2.840  23.680  0.00  0.00    +0.355 C 
ATOM      5  O   UNL     1      10.400   3.916  23.341  0.00  0.00    -0.260 OA
ATOM      6  N   UNL     1       9.684   2.310  24.900  0.00  0.00    -0.218 N 
ATOM      7  H   UNL     1       9.895   2.768  25.778  0.00  0.00    +0.158 HD
ENDROOT
BRANCH   3   8
ATOM      8  O   UNL     1       9.629   1.865  21.409  0.00  0.00    -0.456 OA
ATOM      9  H   UNL     1       9.721   2.800  21.117  0.00  0.00    +0.298 HD
ENDBRANCH   3   8
BRANCH   1  10
ATOM     10  O   UNL     1       9.866   0.156  25.578  0.00  0.00    -0.317 OA
ATOM     11  H   UNL     1      10.654   0.676  25.837  0.00  0.00    +0.219 HD
ENDBRANCH   1  10
BRANCH   1  12
ATOM     12  C   UNL     1       7.623   1.015  25.309  0.00  0.00    +0.215 C 
BRANCH  12  13
ATOM     13  N   UNL     1       7.536   1.634  26.644  0.00  0.00    -0.321 NA
ATOM     14  H   UNL     1       8.369   2.198  26.836  0.00  0.00    +0.119 HD
ATOM     15  H   UNL     1       6.766   2.313  26.666  0.00  0.00    +0.119 HD
ENDBRANCH  12  13
ENDBRANCH   1  12
BRANCH   2  16
ATOM     16  C   UNL     1       8.600  -0.500  22.665  0.00  0.00    +0.479 C 
BRANCH  16  17
ATOM     17  C   UNL     1       9.698  -1.531  22.644  0.00  0.00    +0.371 C 
ATOM     18  O   UNL     1      10.002  -2.208  23.614  0.00  0.00    -0.244 OA
BRANCH  17  19
ATOM     19  O   UNL     1      10.356  -1.617  21.471  0.00  0.00    -0.476 OA
ATOM     20  H   UNL     1      10.641  -0.803  21.007  0.00  0.00    +0.295 HD
ENDBRANCH  17  19
ENDBRANCH  16  17
ENDBRANCH   2  16
TORSDOF 7
ENDMDL
MODEL 4
REMARK VINA RESULT:      -4.7      2.515      4.664
REMARK  Name = 
REMARK  7 active torsions:
REMARK  status: ('A' for Active; 'I' for Inactive)
REMARK    1  A    between atoms: N_1  and  C_2
REMARK    2  A    between atoms: C_2  and  C_3
REMARK    3  A    between atoms: C_3  and  O_4
REMARK    4  A    between atoms: C_8  and  O_9
REMARK    5  A    between atoms: N_10  and  C_11
REMARK    6  A    between atoms: C_11  and  C_12
REMARK    7  A    between atoms: C_12  and  O_13
REMARK                            x       y       z     vdW  Elec       q    Type
REMARK                         _______ _______ _______ _____ _____    ______ ____
ROOT
ATOM      1  C   UNL     1       7.920  -1.024  24.230  0.00  0.00    +0.364 C 
ATOM      2  N   UNL     1       8.829  -0.775  23.062  0.00  0.00    -0.134 N 
ATOM      3  C   UNL     1       9.641  -1.752  22.997  0.00  0.00    +0.432 C 
ATOM      4  C   UNL     1       9.416  -2.772  24.068  0.00  0.00    +0.355 C 
ATOM      5  O   UNL     1      10.114  -3.743  24.220  0.00  0.00    -0.260 OA
ATOM      6  N   UNL     1       8.350  -2.289  24.763  0.00  0.00    -0.218 N 
ATOM      7  H   UNL     1       7.905  -2.782  25.528  0.00  0.00    +0.158 HD
ENDROOT
BRANCH   3   8
ATOM      8  O   UNL     1      10.609  -1.785  22.110  0.00  0.00    -0.456 OA
ATOM      9  H   UNL     1      11.063  -2.658  22.101  0.00  0.00    +0.298 HD
ENDBRANCH   3   8
BRANCH   1  10
ATOM     10  O   UNL     1       6.546  -1.168  23.974  0.00  0.00    -0.317 OA
ATOM     11  H   UNL     1       6.454  -1.994  23.456  0.00  0.00    +0.219 HD
ENDBRANCH   1  10
BRANCH   1  12
ATOM     12  C   UNL     1       8.114   0.109  25.297  0.00  0.00    +0.215 C 
BRANCH  12  13
ATOM     13  N   UNL     1       9.457   0.067  25.901  0.00  0.00    -0.321 NA
ATOM     14  H   UNL     1       9.396  -0.107  26.909  0.00  0.00    +0.119 HD
ATOM     15  H   UNL     1       9.980  -0.741  25.541  0.00  0.00    +0.119 HD
ENDBRANCH  12  13
ENDBRANCH   1  12
BRANCH   2  16
ATOM     16  C   UNL     1       8.743   0.394  22.172  0.00  0.00    +0.479 C 
BRANCH  16  17
ATOM     17  C   UNL     1       9.919   1.307  22.399  0.00  0.00    +0.371 C 
ATOM     18  O   UNL     1      10.663   1.217  23.363  0.00  0.00    -0.244 OA
BRANCH  17  19
ATOM     19  O   UNL     1      10.060   2.273  21.469  0.00  0.00    -0.476 OA
ATOM     20  H   UNL     1      10.819   2.252  20.850  0.00  0.00    +0.295 HD
ENDBRANCH  17  19
ENDBRANCH  16  17
ENDBRANCH   2  16
TORSDOF 7
ENDMDL
MODEL 5
REMARK VINA RESULT:      -4.7      4.591      6.766
REMARK  Name = 
REMARK  7 active torsions:
REMARK  status: ('A' for Active; 'I' for Inactive)
REMARK    1  A    between atoms: N_1  and  C_2
REMARK    2  A    between atoms: C_2  and  C_3
REMARK    3  A    between atoms: C_3  and  O_4
REMARK    4  A    between atoms: C_8  and  O_9
REMARK    5  A    between atoms: N_10  and  C_11
REMARK    6  A    between atoms: C_11  and  C_12
REMARK    7  A    between atoms: C_12  and  O_13
REMARK                            x       y       z     vdW  Elec       q    Type
REMARK                         _______ _______ _______ _____ _____    ______ ____
ROOT
ATOM      1  C   UNL     1       7.094  -4.503  23.109  0.00  0.00    +0.364 C 
ATOM      2  N   UNL     1       8.346  -4.350  23.922  0.00  0.00    -0.134 N 
ATOM      3  C   UNL     1       8.929  -3.289  23.528  0.00  0.00    +0.432 C 
ATOM      4  C   UNL     1       8.189  -2.589  22.432  0.00  0.00    +0.355 C 
ATOM      5  O   UNL     1       8.599  -1.600  21.878  0.00  0.00    -0.260 OA
ATOM      6  N   UNL     1       7.080  -3.355  22.242  0.00  0.00    -0.218 N 
ATOM      7  H   UNL     1       6.335  -3.119  21.599  0.00  0.00    +0.158 HD
ENDROOT
BRANCH   3   8
ATOM      8  O   UNL     1      10.094  -2.923  24.010  0.00  0.00    -0.456 OA
ATOM      9  H   UNL     1      10.128  -1.955  24.180  0.00  0.00    +0.298 HD
ENDBRANCH   3   8
BRANCH   1  10
ATOM     10  O   UNL     1       5.864  -4.480  23.787  0.00  0.00    -0.317 OA
ATOM     11  H   UNL     1       5.174  -4.492  23.092  0.00  0.00    +0.219 HD
ENDBRANCH   1  10
BRANCH   1  12
ATOM     12  C   UNL     1       7.176  -5.822  22.264  0.00  0.00    +0.215 C 
BRANCH  12  13
ATOM     13  N   UNL     1       5.838  -6.321  21.898  0.00  0.00    -0.321 NA
ATOM     14  H   UNL     1       5.198  -6.260  22.696  0.00  0.00    +0.119 HD
ATOM     15  H   UNL     1       5.414  -5.706  21.193  0.00  0.00    +0.119 HD
ENDBRANCH  12  13
ENDBRANCH   1  12
BRANCH   2  16
ATOM     16  C   UNL     1       8.771  -5.277  24.984  0.00  0.00    +0.479 C 
BRANCH  16  17
ATOM     17  C   UNL     1       8.024  -4.984  26.258  0.00  0.00    +0.371 C 
ATOM     18  O   UNL     1       7.440  -3.931  26.468  0.00  0.00    -0.244 OA
BRANCH  17  19
ATOM     19  O   UNL     1       8.088  -5.967  27.178  0.00  0.00    -0.476 OA
ATOM     20  H   UNL     1       8.952  -6.228  27.559  0.00  0.00    +0.295 HD
ENDBRANCH  17  19
ENDBRANCH  16  17
ENDBRANCH   2  16
TORSDOF 7
ENDMDL
MODEL 6
REMARK VINA RESULT:      -4.7      2.000      4.438
REMARK  Name = 
REMARK  7 active torsions:
REMARK  status: ('A' for Active; 'I' for Inactive)
REMARK    1  A    between atoms: N_1  and  C_2
REMARK    2  A    between atoms: C_2  and  C_3
REMARK    3  A    between atoms: C_3  and  O_4
REMARK    4  A    between atoms: C_8  and  O_9
REMARK    5  A    between atoms: N_10  and  C_11
REMARK    6  A    between atoms: C_11  and  C_12
REMARK    7  A    between atoms: C_12  and  O_13
REMARK                            x       y       z     vdW  Elec       q    Type
REMARK                         _______ _______ _______ _____ _____    ______ ____
ROOT
ATOM      1  C   UNL     1       8.778   1.090  22.185  0.00  0.00    +0.364 C 
ATOM      2  N   UNL     1       9.535   1.259  23.469  0.00  0.00    -0.134 N 
ATOM      3  C   UNL     1      10.250   0.219  23.631  0.00  0.00    +0.432 C 
ATOM      4  C   UNL     1      10.093  -0.775  22.524  0.00  0.00    +0.355 C 
ATOM      5  O   UNL     1      10.635  -1.852  22.513  0.00  0.00    -0.260 OA
ATOM      6  N   UNL     1       9.213  -0.182  21.671  0.00  0.00    -0.218 N 
ATOM      7  H   UNL     1       8.937  -0.577  20.780  0.00  0.00    +0.158 HD
ENDROOT
BRANCH   3   8
ATOM      8  O   UNL     1      10.979   0.044  24.708  0.00  0.00    -0.456 OA
ATOM      9  H   UNL     1      10.421  -0.091  25.506  0.00  0.00    +0.298 HD
ENDBRANCH   3   8
BRANCH   1  10
ATOM     10  O   UNL     1       9.016   2.015  21.155  0.00  0.00    -0.317 OA
ATOM     11  H   UNL     1       9.117   2.885  21.593  0.00  0.00    +0.219 HD
ENDBRANCH   1  10
BRANCH   1  12
ATOM     12  C   UNL     1       7.239   1.058  22.483  0.00  0.00    +0.215 C 
BRANCH  12  13
ATOM     13  N   UNL     1       6.608   2.368  22.248  0.00  0.00    -0.321 NA
ATOM     14  H   UNL     1       6.617   2.600  21.250  0.00  0.00    +0.119 HD
ATOM     15  H   UNL     1       5.610   2.325  22.483  0.00  0.00    +0.119 HD
ENDBRANCH  12  13
ENDBRANCH   1  12
BRANCH   2  16
ATOM     16  C   UNL     1       9.447   2.442  24.341  0.00  0.00    +0.479 C 
BRANCH  16  17
ATOM     17  C   UNL     1       9.934   3.665  23.608  0.00  0.00    +0.371 C 
ATOM     18  O   UNL     1      11.111   3.979  23.535  0.00  0.00    -0.244 OA
BRANCH  17  19
ATOM     19  O   UNL     1       8.952   4.418  23.072  0.00  0.00    -0.476 OA
ATOM     20  H   UNL     1       9.171   5.254  22.610  0.00  0.00    +0.295 HD
ENDBRANCH  17  19
ENDBRANCH  16  17
ENDBRANCH   2  16
TORSDOF 7
ENDMDL
MODEL 7
REMARK VINA RESULT:      -4.7      5.840      7.123
REMARK  Name = 
REMARK  7 active torsions:
REMARK  status: ('A' for Active; 'I' for Inactive)
REMARK    1  A    between atoms: N_1  and  C_2
REMARK    2  A    between atoms: C_2  and  C_3
REMARK    3  A    between atoms: C_3  and  O_4
REMARK    4  A    between atoms: C_8  and  O_9
REMARK    5  A    between atoms: N_10  and  C_11
REMARK    6  A    between atoms: C_11  and  C_12
REMARK    7  A    between atoms: C_12  and  O_13
REMARK                            x       y       z     vdW  Elec       q    Type
REMARK                         _______ _______ _______ _____ _____    ______ ____
ROOT
ATOM      1  C   UNL     1       7.899  -4.724  23.829  0.00  0.00    +0.364 C 
ATOM      2  N   UNL     1       6.679  -4.716  24.702  0.00  0.00    -0.134 N 
ATOM      3  C   UNL     1       5.697  -5.097  23.989  0.00  0.00    +0.432 C 
ATOM      4  C   UNL     1       6.086  -5.410  22.578  0.00  0.00    +0.355 C 
ATOM      5  O   UNL     1       5.297  -5.729  21.725  0.00  0.00    -0.260 OA
ATOM      6  N   UNL     1       7.429  -5.190  22.551  0.00  0.00    -0.218 N 
ATOM      7  H   UNL     1       8.014  -5.369  21.744  0.00  0.00    +0.158 HD
ENDROOT
BRANCH   3   8
ATOM      8  O   UNL     1       4.473  -5.128  24.462  0.00  0.00    -0.456 OA
ATOM      9  H   UNL     1       4.227  -6.028  24.774  0.00  0.00    +0.298 HD
ENDBRANCH   3   8
BRANCH   1  10
ATOM     10  O   UNL     1       8.953  -5.583  24.180  0.00  0.00    -0.317 OA
ATOM     11  H   UNL     1       9.648  -5.012  24.568  0.00  0.00    +0.219 HD
ENDBRANCH   1  10
BRANCH   1  12
ATOM     12  C   UNL     1       8.463  -3.266  23.702  0.00  0.00    +0.215 C 
BRANCH  12  13
ATOM     13  N   UNL     1       9.886  -3.195  24.078  0.00  0.00    -0.321 NA
ATOM     14  H   UNL     1      10.459  -3.749  23.434  0.00  0.00    +0.119 HD
ATOM     15  H   UNL     1      10.234  -2.236  23.956  0.00  0.00    +0.119 HD
ENDBRANCH  12  13
ENDBRANCH   1  12
BRANCH   2  16
ATOM     16  C   UNL     1       6.675  -4.344  26.127  0.00  0.00    +0.479 C 
BRANCH  16  17
ATOM     17  C   UNL     1       6.967  -5.551  26.979  0.00  0.00    +0.371 C 
ATOM     18  O   UNL     1       6.100  -6.293  27.414  0.00  0.00    -0.244 OA
BRANCH  17  19
ATOM     19  O   UNL     1       8.273  -5.724  27.267  0.00  0.00    -0.476 OA
ATOM     20  H   UNL     1       8.878  -6.102  26.596  0.00  0.00    +0.295 HD
ENDBRANCH  17  19
ENDBRANCH  16  17
ENDBRANCH   2  16
TORSDOF 7
ENDMDL
MODEL 8
REMARK VINA RESULT:      -4.7      6.276      8.160
REMARK  Name = 
REMARK  7 active torsions:
REMARK  status: ('A' for Active; 'I' for Inactive)
REMARK    1  A    between atoms: N_1  and  C_2
REMARK    2  A    between atoms: C_2  and  C_3
REMARK    3  A    between atoms: C_3  and  O_4
REMARK    4  A    between atoms: C_8  and  O_9
REMARK    5  A    between atoms: N_10  and  C_11
REMARK    6  A    between atoms: C_11  and  C_12
REMARK    7  A    between atoms: C_12  and  O_13
REMARK                            x       y       z     vdW  Elec       q    Type
REMARK                         _______ _______ _______ _____ _____    ______ ____
ROOT
ATOM      1  C   UNL     1       6.710  -4.588  23.996  0.00  0.00    +0.364 C 
ATOM      2  N   UNL     1       6.569  -5.077  25.407  0.00  0.00    -0.134 N 
ATOM      3  C   UNL     1       7.739  -5.308  25.849  0.00  0.00    +0.432 C 
ATOM      4  C   UNL     1       8.810  -5.020  24.845  0.00  0.00    +0.355 C 
ATOM      5  O   UNL     1       9.982  -5.228  25.043  0.00  0.00    -0.260 OA
ATOM      6  N   UNL     1       8.129  -4.565  23.759  0.00  0.00    -0.218 N 
ATOM      7  H   UNL     1       8.574  -4.226  22.915  0.00  0.00    +0.158 HD
ENDROOT
BRANCH   3   8
ATOM      8  O   UNL     1       7.937  -5.814  27.044  0.00  0.00    -0.456 OA
ATOM      9  H   UNL     1       8.785  -6.309  27.093  0.00  0.00    +0.298 HD
ENDBRANCH   3   8
BRANCH   1  10
ATOM     10  O   UNL     1       6.257  -3.291  23.702  0.00  0.00    -0.317 OA
ATOM     11  H   UNL     1       6.812  -2.974  22.960  0.00  0.00    +0.219 HD
ENDBRANCH   1  10
BRANCH   1  12
ATOM     12  C   UNL     1       6.011  -5.595  23.019  0.00  0.00    +0.215 C 
BRANCH  12  13
ATOM     13  N   UNL     1       4.640  -5.171  22.684  0.00  0.00    -0.321 NA
ATOM     14  H   UNL     1       4.249  -5.761  21.943  0.00  0.00    +0.119 HD
ATOM     15  H   UNL     1       4.017  -5.333  23.484  0.00  0.00    +0.119 HD
ENDBRANCH  12  13
ENDBRANCH   1  12
BRANCH   2  16
ATOM     16  C   UNL     1       5.286  -5.229  26.114  0.00  0.00    +0.479 C 
BRANCH  16  17
ATOM     17  C   UNL     1       4.889  -6.681  26.163  0.00  0.00    +0.371 C 
ATOM     18  O   UNL     1       4.306  -7.249  25.253  0.00  0.00    -0.244 OA
BRANCH  17  19
ATOM     19  O   UNL     1       5.190  -7.300  27.323  0.00  0.00    -0.476 OA
ATOM     20  H   UNL     1       6.064  -7.161  27.741  0.00  0.00    +0.295 HD
ENDBRANCH  17  19
ENDBRANCH  16  17
ENDBRANCH   2  16
TORSDOF 7
ENDMDL
MODEL 9
REMARK VINA RESULT:      -4.7      1.940      3.883
REMARK  Name = 
REMARK  7 active torsions:
REMARK  status: ('A' for Active; 'I' for Inactive)
REMARK    1  A    between atoms: N_1  and  C_2
REMARK    2  A    between atoms: C_2  and  C_3
REMARK    3  A    between atoms: C_3  and  O_4
REMARK    4  A    between atoms: C_8  and  O_9
REMARK    5  A    between atoms: N_10  and  C_11
REMARK    6  A    between atoms: C_11  and  C_12
REMARK    7  A    between atoms: C_12  and  O_13
REMARK                            x       y       z     vdW  Elec       q    Type
REMARK                         _______ _______ _______ _____ _____    ______ ____
ROOT
ATOM      1  C   UNL     1       9.358   1.449  22.036  0.00  0.00    +0.364 C 
ATOM      2  N   UNL     1       9.505   1.072  23.480  0.00  0.00    -0.134 N 
ATOM      3  C   UNL     1       9.717  -0.181  23.527  0.00  0.00    +0.432 C 
ATOM      4  C   UNL     1       9.745  -0.820  22.175  0.00  0.00    +0.355 C 
ATOM      5  O   UNL     1       9.872  -2.007  22.001  0.00  0.00    -0.260 OA
ATOM      6  N   UNL     1       9.548   0.218  21.317  0.00  0.00    -0.218 N 
ATOM      7  H   UNL     1       9.570   0.128  20.309  0.00  0.00    +0.158 HD
ENDROOT
BRANCH   3   8
ATOM      8  O   UNL     1       9.822  -0.820  24.670  0.00  0.00    -0.456 OA
ATOM      9  H   UNL     1      10.436  -0.363  25.287  0.00  0.00    +0.298 HD
ENDBRANCH   3   8
BRANCH   1  10
ATOM     10  O   UNL     1      10.289   2.351  21.494  0.00  0.00    -0.317 OA
ATOM     11  H   UNL     1       9.765   3.101  21.145  0.00  0.00    +0.219 HD
ENDBRANCH   1  10
BRANCH   1  12
ATOM     12  C   UNL     1       7.915   2.009  21.784  0.00  0.00    +0.215 C 
BRANCH  12  13
ATOM     13  N   UNL     1       7.851   3.467  21.983  0.00  0.00    -0.321 NA
ATOM     14  H   UNL     1       7.021   3.722  22.528  0.00  0.00    +0.119 HD
ATOM     15  H   UNL     1       8.636   3.777  22.568  0.00  0.00    +0.119 HD
ENDBRANCH  12  13
ENDBRANCH   1  12
BRANCH   2  16
ATOM     16  C   UNL     1       9.429   2.022  24.603  0.00  0.00    +0.479 C 
BRANCH  16  17
ATOM     17  C   UNL     1       8.105   1.887  25.308  0.00  0.00    +0.371 C 
ATOM     18  O   UNL     1       7.111   2.526  24.997  0.00  0.00    -0.244 OA
BRANCH  17  19
ATOM     19  O   UNL     1       8.115   1.031  26.350  0.00  0.00    -0.476 OA
ATOM     20  H   UNL     1       8.584   1.268  27.176  0.00  0.00    +0.295 HD
ENDBRANCH  17  19
ENDBRANCH  16  17
ENDBRANCH   2  16
TORSDOF 7
ENDMDL
