MODEL 1
REMARK VINA RESULT:      -5.8      0.000      0.000
REMARK  Name = 
REMARK  6 active torsions:
REMARK  status: ('A' for Active; 'I' for Inactive)
REMARK    1  A    between atoms: N_1  and  N_2
REMARK    2  A    between atoms: C_8  and  C_10
REMARK    3  A    between atoms: C_10  and  O_11
REMARK    4  A    between atoms: C_12  and  O_14
REMARK    5  A    between atoms: C_15  and  O_17
REMARK    6  A    between atoms: C_18  and  O_20
REMARK                            x       y       z     vdW  Elec       q    Type
REMARK                         _______ _______ _______ _____ _____    ______ ____
ROOT
ATOM      1  N   UNL     1       6.264  -4.089  22.056  0.00  0.00    -0.155 N 
ATOM      2  C   UNL     1       6.842  -3.620  23.209  0.00  0.00    +0.290 C 
ATOM      3  O   UNL     1       6.918  -2.455  23.587  0.00  0.00    -0.269 OA
ATOM      4  C   UNL     1       7.399  -4.845  23.979  0.00  0.00    +0.246 C 
ATOM      5  C   UNL     1       8.772  -4.538  24.608  0.00  0.00    +0.205 C 
ATOM      6  C   UNL     1       8.618  -3.849  25.979  0.00  0.00    +0.179 C 
ATOM      7  C   UNL     1       7.642  -4.635  26.866  0.00  0.00    +0.177 C 
ATOM      8  C   UNL     1       6.298  -4.890  26.161  0.00  0.00    +0.178 C 
ATOM      9  O   UNL     1       6.472  -5.460  24.853  0.00  0.00    -0.338 OA
ATOM     10  N   UNL     1       7.491  -5.758  22.860  0.00  0.00    -0.260 N 
ATOM     11  H   UNL     1       7.911  -6.674  22.920  0.00  0.00    +0.154 HD
ATOM     12  C   UNL     1       6.750  -5.345  21.776  0.00  0.00    +0.325 C 
ATOM     13  O   UNL     1       6.633  -5.963  20.731  0.00  0.00    -0.251 OA
ENDROOT
BRANCH   1  14
ATOM     14  N   UNL     1       5.586  -3.279  21.134  0.00  0.00    -0.243 NA
ATOM     15  H   UNL     1       5.880  -2.312  21.285  0.00  0.00    +0.141 HD
ATOM     16  H   UNL     1       5.917  -3.542  20.201  0.00  0.00    +0.141 HD
ENDBRANCH   1  14
BRANCH   5  17
ATOM     17  O   UNL     1       9.523  -5.763  24.764  0.00  0.00    -0.384 OA
ATOM     18  H   UNL     1       9.555  -6.195  23.881  0.00  0.00    +0.210 HD
ENDBRANCH   5  17
BRANCH   6  19
ATOM     19  O   UNL     1       8.221  -2.480  25.928  0.00  0.00    -0.386 OA
ATOM     20  H   UNL     1       7.248  -2.379  25.987  0.00  0.00    +0.210 HD
ENDBRANCH   6  19
BRANCH   7  21
ATOM     21  O   UNL     1       8.251  -5.907  27.162  0.00  0.00    -0.386 OA
ATOM     22  H   UNL     1       7.566  -6.590  27.037  0.00  0.00    +0.210 HD
ENDBRANCH   7  21
BRANCH   8  23
ATOM     23  C   UNL     1       5.353  -3.677  26.168  0.00  0.00    +0.190 C 
BRANCH  23  24
ATOM     24  O   UNL     1       5.592  -2.868  27.318  0.00  0.00    -0.392 OA
ATOM     25  H   UNL     1       4.824  -2.952  27.911  0.00  0.00    +0.210 HD
ENDBRANCH  23  24
ENDBRANCH   8  23
TORSDOF 6
ENDMDL
MODEL 2
REMARK VINA RESULT:      -5.7      1.672      2.676
REMARK  Name = 
REMARK  6 active torsions:
REMARK  status: ('A' for Active; 'I' for Inactive)
REMARK    1  A    between atoms: N_1  and  N_2
REMARK    2  A    between atoms: C_8  and  C_10
REMARK    3  A    between atoms: C_10  and  O_11
REMARK    4  A    between atoms: C_12  and  O_14
REMARK    5  A    between atoms: C_15  and  O_17
REMARK    6  A    between atoms: C_18  and  O_20
REMARK                            x       y       z     vdW  Elec       q    Type
REMARK                         _______ _______ _______ _____ _____    ______ ____
ROOT
ATOM      1  N   UNL     1       5.247  -5.531  22.444  0.00  0.00    -0.155 N 
ATOM      2  C   UNL     1       5.732  -4.574  23.299  0.00  0.00    +0.290 C 
ATOM      3  O   UNL     1       5.140  -4.030  24.226  0.00  0.00    -0.269 OA
ATOM      4  C   UNL     1       7.199  -4.284  22.886  0.00  0.00    +0.246 C 
ATOM      5  C   UNL     1       7.518  -2.779  22.964  0.00  0.00    +0.205 C 
ATOM      6  C   UNL     1       7.924  -2.365  24.392  0.00  0.00    +0.179 C 
ATOM      7  C   UNL     1       9.013  -3.304  24.932  0.00  0.00    +0.177 C 
ATOM      8  C   UNL     1       8.606  -4.784  24.821  0.00  0.00    +0.178 C 
ATOM      9  O   UNL     1       8.157  -5.126  23.499  0.00  0.00    -0.338 OA
ATOM     10  N   UNL     1       7.121  -4.768  21.524  0.00  0.00    -0.260 N 
ATOM     11  H   UNL     1       7.870  -4.672  20.854  0.00  0.00    +0.154 HD
ATOM     12  C   UNL     1       6.021  -5.567  21.307  0.00  0.00    +0.325 C 
ATOM     13  O   UNL     1       5.759  -6.128  20.256  0.00  0.00    -0.251 OA
ENDROOT
BRANCH   1  14
ATOM     14  N   UNL     1       3.972  -6.104  22.551  0.00  0.00    -0.243 NA
ATOM     15  H   UNL     1       3.837  -6.398  23.520  0.00  0.00    +0.141 HD
ATOM     16  H   UNL     1       3.290  -5.359  22.375  0.00  0.00    +0.141 HD
ENDBRANCH   1  14
BRANCH   5  17
ATOM     17  O   UNL     1       8.588  -2.459  22.044  0.00  0.00    -0.384 OA
ATOM     18  H   UNL     1       8.875  -1.540  22.247  0.00  0.00    +0.210 HD
ENDBRANCH   5  17
BRANCH   6  19
ATOM     19  O   UNL     1       6.852  -2.290  25.329  0.00  0.00    -0.386 OA
ATOM     20  H   UNL     1       5.996  -2.550  24.929  0.00  0.00    +0.210 HD
ENDBRANCH   6  19
BRANCH   7  21
ATOM     21  O   UNL     1      10.199  -3.096  24.139  0.00  0.00    -0.386 OA
ATOM     22  H   UNL     1      10.398  -3.940  23.692  0.00  0.00    +0.210 HD
ENDBRANCH   7  21
BRANCH   8  23
ATOM     23  C   UNL     1       7.639  -5.246  25.923  0.00  0.00    +0.190 C 
BRANCH  23  24
ATOM     24  O   UNL     1       8.359  -5.857  26.993  0.00  0.00    -0.392 OA
ATOM     25  H   UNL     1       7.718  -6.117  27.678  0.00  0.00    +0.210 HD
ENDBRANCH  23  24
ENDBRANCH   8  23
TORSDOF 6
ENDMDL
MODEL 3
REMARK VINA RESULT:      -5.7      4.428      5.994
REMARK  Name = 
REMARK  6 active torsions:
REMARK  status: ('A' for Active; 'I' for Inactive)
REMARK    1  A    between atoms: N_1  and  N_2
REMARK    2  A    between atoms: C_8  and  C_10
REMARK    3  A    between atoms: C_10  and  O_11
REMARK    4  A    between atoms: C_12  and  O_14
REMARK    5  A    between atoms: C_15  and  O_17
REMARK    6  A    between atoms: C_18  and  O_20
REMARK                            x       y       z     vdW  Elec       q    Type
REMARK                         _______ _______ _______ _____ _____    ______ ____
ROOT
ATOM      1  N   UNL     1       8.458  -2.278  24.938  0.00  0.00    -0.155 N 
ATOM      2  C   UNL     1       7.984  -1.187  24.256  0.00  0.00    +0.290 C 
ATOM      3  O   UNL     1       6.879  -0.662  24.360  0.00  0.00    -0.269 OA
ATOM      4  C   UNL     1       9.109  -0.712  23.301  0.00  0.00    +0.246 C 
ATOM      5  C   UNL     1       8.544  -0.291  21.930  0.00  0.00    +0.205 C 
ATOM      6  C   UNL     1       8.056   1.171  21.950  0.00  0.00    +0.179 C 
ATOM      7  C   UNL     1       9.141   2.090  22.532  0.00  0.00    +0.177 C 
ATOM      8  C   UNL     1       9.640   1.598  23.902  0.00  0.00    +0.178 C 
ATOM      9  O   UNL     1      10.015   0.210  23.876  0.00  0.00    -0.338 OA
ATOM     10  N   UNL     1       9.854  -1.951  23.240  0.00  0.00    -0.260 N 
ATOM     11  H   UNL     1      10.643  -2.098  22.627  0.00  0.00    +0.154 HD
ATOM     12  C   UNL     1       9.524  -2.819  24.257  0.00  0.00    +0.325 C 
ATOM     13  O   UNL     1      10.043  -3.906  24.445  0.00  0.00    -0.251 OA
ENDROOT
BRANCH   1  14
ATOM     14  N   UNL     1       7.747  -2.941  25.948  0.00  0.00    -0.243 NA
ATOM     15  H   UNL     1       7.205  -2.245  26.464  0.00  0.00    +0.141 HD
ATOM     16  H   UNL     1       7.068  -3.555  25.487  0.00  0.00    +0.141 HD
ENDBRANCH   1  14
BRANCH   5  17
ATOM     17  O   UNL     1       9.561  -0.448  20.914  0.00  0.00    -0.384 OA
ATOM     18  H   UNL     1      10.061   0.398  20.875  0.00  0.00    +0.210 HD
ENDBRANCH   5  17
BRANCH   6  19
ATOM     19  O   UNL     1       6.826   1.390  22.638  0.00  0.00    -0.386 OA
ATOM     20  H   UNL     1       6.065   1.437  22.023  0.00  0.00    +0.210 HD
ENDBRANCH   6  19
BRANCH   7  21
ATOM     21  O   UNL     1      10.251   2.087  21.613  0.00  0.00    -0.386 OA
ATOM     22  H   UNL     1      10.888   2.755  21.929  0.00  0.00    +0.210 HD
ENDBRANCH   7  21
BRANCH   8  23
ATOM     23  C   UNL     1       8.699   1.945  25.067  0.00  0.00    +0.190 C 
BRANCH  23  24
ATOM     24  O   UNL     1       8.023   3.175  24.810  0.00  0.00    -0.392 OA
ATOM     25  H   UNL     1       8.658   3.901  24.944  0.00  0.00    +0.210 HD
ENDBRANCH  23  24
ENDBRANCH   8  23
TORSDOF 6
ENDMDL
MODEL 4
REMARK VINA RESULT:      -5.7      2.588      3.966
REMARK  Name = 
REMARK  6 active torsions:
REMARK  status: ('A' for Active; 'I' for Inactive)
REMARK    1  A    between atoms: N_1  and  N_2
REMARK    2  A    between atoms: C_8  and  C_10
REMARK    3  A    between atoms: C_10  and  O_11
REMARK    4  A    between atoms: C_12  and  O_14
REMARK    5  A    between atoms: C_15  and  O_17
REMARK    6  A    between atoms: C_18  and  O_20
REMARK                            x       y       z     vdW  Elec       q    Type
REMARK                         _______ _______ _______ _____ _____    ______ ____
ROOT
ATOM      1  N   UNL     1       9.308  -0.916  23.664  0.00  0.00    -0.155 N 
ATOM      2  C   UNL     1       9.215  -2.279  23.783  0.00  0.00    +0.290 C 
ATOM      3  O   UNL     1      10.128  -3.076  23.982  0.00  0.00    -0.269 OA
ATOM      4  C   UNL     1       7.721  -2.659  23.621  0.00  0.00    +0.246 C 
ATOM      5  C   UNL     1       7.553  -3.940  22.781  0.00  0.00    +0.205 C 
ATOM      6  C   UNL     1       7.695  -5.204  23.653  0.00  0.00    +0.179 C 
ATOM      7  C   UNL     1       6.797  -5.101  24.895  0.00  0.00    +0.177 C 
ATOM      8  C   UNL     1       7.036  -3.796  25.674  0.00  0.00    +0.178 C 
ATOM      9  O   UNL     1       6.977  -2.638  24.824  0.00  0.00    -0.338 OA
ATOM     10  N   UNL     1       7.290  -1.470  22.917  0.00  0.00    -0.260 N 
ATOM     11  H   UNL     1       6.364  -1.356  22.530  0.00  0.00    +0.154 HD
ATOM     12  C   UNL     1       8.188  -0.433  23.027  0.00  0.00    +0.325 C 
ATOM     13  O   UNL     1       8.031   0.682  22.558  0.00  0.00    -0.251 OA
ENDROOT
BRANCH   1  14
ATOM     14  N   UNL     1      10.498  -0.193  23.827  0.00  0.00    -0.243 NA
ATOM     15  H   UNL     1      10.265   0.802  23.844  0.00  0.00    +0.141 HD
ATOM     16  H   UNL     1      10.865  -0.422  24.756  0.00  0.00    +0.141 HD
ENDBRANCH   1  14
BRANCH   5  17
ATOM     17  O   UNL     1       6.257  -3.937  22.140  0.00  0.00    -0.384 OA
ATOM     18  H   UNL     1       6.364  -4.394  21.275  0.00  0.00    +0.210 HD
ENDBRANCH   5  17
BRANCH   6  19
ATOM     19  O   UNL     1       9.028  -5.518  24.053  0.00  0.00    -0.386 OA
ATOM     20  H   UNL     1       9.068  -5.829  24.981  0.00  0.00    +0.210 HD
ENDBRANCH   6  19
BRANCH   7  21
ATOM     21  O   UNL     1       5.428  -5.119  24.443  0.00  0.00    -0.386 OA
ATOM     22  H   UNL     1       5.248  -6.018  24.109  0.00  0.00    +0.210 HD
ENDBRANCH   7  21
BRANCH   8  23
ATOM     23  C   UNL     1       8.290  -3.825  26.564  0.00  0.00    +0.190 C 
BRANCH  23  24
ATOM     24  O   UNL     1       8.511  -5.141  27.068  0.00  0.00    -0.392 OA
ATOM     25  H   UNL     1       7.658  -5.490  27.383  0.00  0.00    +0.210 HD
ENDBRANCH  23  24
ENDBRANCH   8  23
TORSDOF 6
ENDMDL
MODEL 5
REMARK VINA RESULT:      -5.7      1.961      3.107
REMARK  Name = 
REMARK  6 active torsions:
REMARK  status: ('A' for Active; 'I' for Inactive)
REMARK    1  A    between atoms: N_1  and  N_2
REMARK    2  A    between atoms: C_8  and  C_10
REMARK    3  A    between atoms: C_10  and  O_11
REMARK    4  A    between atoms: C_12  and  O_14
REMARK    5  A    between atoms: C_15  and  O_17
REMARK    6  A    between atoms: C_18  and  O_20
REMARK                            x       y       z     vdW  Elec       q    Type
REMARK                         _______ _______ _______ _____ _____    ______ ____
ROOT
ATOM      1  N   UNL     1       5.795  -5.501  22.224  0.00  0.00    -0.155 N 
ATOM      2  C   UNL     1       6.939  -5.442  22.979  0.00  0.00    +0.290 C 
ATOM      3  O   UNL     1       8.048  -5.880  22.690  0.00  0.00    -0.269 OA
ATOM      4  C   UNL     1       6.587  -4.708  24.298  0.00  0.00    +0.246 C 
ATOM      5  C   UNL     1       7.274  -5.367  25.510  0.00  0.00    +0.205 C 
ATOM      6  C   UNL     1       8.710  -4.839  25.696  0.00  0.00    +0.179 C 
ATOM      7  C   UNL     1       8.722  -3.303  25.679  0.00  0.00    +0.177 C 
ATOM      8  C   UNL     1       8.022  -2.734  24.433  0.00  0.00    +0.178 C 
ATOM      9  O   UNL     1       6.715  -3.300  24.238  0.00  0.00    -0.338 OA
ATOM     10  N   UNL     1       5.157  -4.935  24.276  0.00  0.00    -0.260 N 
ATOM     11  H   UNL     1       4.541  -4.686  25.036  0.00  0.00    +0.154 HD
ATOM     12  C   UNL     1       4.700  -5.312  23.034  0.00  0.00    +0.325 C 
ATOM     13  O   UNL     1       3.531  -5.519  22.752  0.00  0.00    -0.251 OA
ENDROOT
BRANCH   1  14
ATOM     14  N   UNL     1       5.738  -6.030  20.927  0.00  0.00    -0.243 NA
ATOM     15  H   UNL     1       6.685  -6.299  20.652  0.00  0.00    +0.141 HD
ATOM     16  H   UNL     1       5.193  -6.896  20.978  0.00  0.00    +0.141 HD
ENDBRANCH   1  14
BRANCH   5  17
ATOM     17  O   UNL     1       6.505  -5.109  26.707  0.00  0.00    -0.384 OA
ATOM     18  H   UNL     1       6.480  -5.948  27.219  0.00  0.00    +0.210 HD
ENDBRANCH   5  17
BRANCH   6  19
ATOM     19  O   UNL     1       9.663  -5.333  24.757  0.00  0.00    -0.386 OA
ATOM     20  H   UNL     1      10.278  -5.979  25.164  0.00  0.00    +0.210 HD
ENDBRANCH   6  19
BRANCH   7  21
ATOM     21  O   UNL     1       8.012  -2.851  26.849  0.00  0.00    -0.386 OA
ATOM     22  H   UNL     1       7.166  -3.336  26.877  0.00  0.00    +0.210 HD
ENDBRANCH   7  21
BRANCH   8  23
ATOM     23  C   UNL     1       8.889  -2.770  23.163  0.00  0.00    +0.190 C 
BRANCH  23  24
ATOM     24  O   UNL     1      10.273  -2.715  23.504  0.00  0.00    -0.392 OA
ATOM     25  H   UNL     1      10.789  -2.877  22.695  0.00  0.00    +0.210 HD
ENDBRANCH  23  24
ENDBRANCH   8  23
TORSDOF 6
ENDMDL
MODEL 6
REMARK VINA RESULT:      -5.6      5.184      6.563
REMARK  Name = 
REMARK  6 active torsions:
REMARK  status: ('A' for Active; 'I' for Inactive)
REMARK    1  A    between atoms: N_1  and  N_2
REMARK    2  A    between atoms: C_8  and  C_10
REMARK    3  A    between atoms: C_10  and  O_11
REMARK    4  A    between atoms: C_12  and  O_14
REMARK    5  A    between atoms: C_15  and  O_17
REMARK    6  A    between atoms: C_18  and  O_20
REMARK                            x       y       z     vdW  Elec       q    Type
REMARK                         _______ _______ _______ _____ _____    ______ ____
ROOT
ATOM      1  N   UNL     1       8.543  -1.492  23.548  0.00  0.00    -0.155 N 
ATOM      2  C   UNL     1       7.988  -0.269  23.270  0.00  0.00    +0.290 C 
ATOM      3  O   UNL     1       6.796   0.006  23.175  0.00  0.00    -0.269 OA
ATOM      4  C   UNL     1       9.152   0.739  23.089  0.00  0.00    +0.246 C 
ATOM      5  C   UNL     1       8.881   1.709  21.923  0.00  0.00    +0.205 C 
ATOM      6  C   UNL     1       8.023   2.906  22.378  0.00  0.00    +0.179 C 
ATOM      7  C   UNL     1       8.618   3.539  23.645  0.00  0.00    +0.177 C 
ATOM      8  C   UNL     1       8.848   2.500  24.756  0.00  0.00    +0.178 C 
ATOM      9  O   UNL     1       9.583   1.357  24.286  0.00  0.00    -0.338 OA
ATOM     10  N   UNL     1      10.197  -0.217  22.787  0.00  0.00    -0.260 N 
ATOM     11  H   UNL     1      11.129   0.047  22.505  0.00  0.00    +0.154 HD
ATOM     12  C   UNL     1       9.858  -1.503  23.144  0.00  0.00    +0.325 C 
ATOM     13  O   UNL     1      10.586  -2.475  23.030  0.00  0.00    -0.251 OA
ENDROOT
BRANCH   1  14
ATOM     14  N   UNL     1       7.799  -2.642  23.847  0.00  0.00    -0.243 NA
ATOM     15  H   UNL     1       8.164  -3.040  24.714  0.00  0.00    +0.141 HD
ATOM     16  H   UNL     1       6.840  -2.338  24.046  0.00  0.00    +0.141 HD
ENDBRANCH   1  14
BRANCH   5  17
ATOM     17  O   UNL     1      10.134   2.189  21.385  0.00  0.00    -0.384 OA
ATOM     18  H   UNL     1       9.916   2.882  20.723  0.00  0.00    +0.210 HD
ENDBRANCH   5  17
BRANCH   6  19
ATOM     19  O   UNL     1       6.643   2.617  22.593  0.00  0.00    -0.386 OA
ATOM     20  H   UNL     1       6.146   3.404  22.897  0.00  0.00    +0.210 HD
ENDBRANCH   6  19
BRANCH   7  21
ATOM     21  O   UNL     1       9.890   4.115  23.287  0.00  0.00    -0.386 OA
ATOM     22  H   UNL     1       9.715   4.803  22.617  0.00  0.00    +0.210 HD
ENDBRANCH   7  21
BRANCH   8  23
ATOM     23  C   UNL     1       7.572   2.120  25.526  0.00  0.00    +0.190 C 
BRANCH  23  24
ATOM     24  O   UNL     1       7.884   1.229  26.595  0.00  0.00    -0.392 OA
ATOM     25  H   UNL     1       7.102   0.673  26.761  0.00  0.00    +0.210 HD
ENDBRANCH  23  24
ENDBRANCH   8  23
TORSDOF 6
ENDMDL
MODEL 7
REMARK VINA RESULT:      -5.6      2.526      4.643
REMARK  Name = 
REMARK  6 active torsions:
REMARK  status: ('A' for Active; 'I' for Inactive)
REMARK    1  A    between atoms: N_1  and  N_2
REMARK    2  A    between atoms: C_8  and  C_10
REMARK    3  A    between atoms: C_10  and  O_11
REMARK    4  A    between atoms: C_12  and  O_14
REMARK    5  A    between atoms: C_15  and  O_17
REMARK    6  A    between atoms: C_18  and  O_20
REMARK                            x       y       z     vdW  Elec       q    Type
REMARK                         _______ _______ _______ _____ _____    ______ ____
ROOT
ATOM      1  N   UNL     1       8.902  -4.960  25.513  0.00  0.00    -0.155 N 
ATOM      2  C   UNL     1       8.970  -3.738  24.895  0.00  0.00    +0.290 C 
ATOM      3  O   UNL     1       9.855  -3.324  24.152  0.00  0.00    -0.269 OA
ATOM      4  C   UNL     1       7.705  -2.940  25.304  0.00  0.00    +0.246 C 
ATOM      5  C   UNL     1       8.035  -1.461  25.578  0.00  0.00    +0.205 C 
ATOM      6  C   UNL     1       8.036  -0.635  24.277  0.00  0.00    +0.179 C 
ATOM      7  C   UNL     1       6.747  -0.891  23.481  0.00  0.00    +0.177 C 
ATOM      8  C   UNL     1       6.500  -2.392  23.248  0.00  0.00    +0.178 C 
ATOM      9  O   UNL     1       6.583  -3.150  24.466  0.00  0.00    -0.338 OA
ATOM     10  N   UNL     1       7.388  -3.674  26.510  0.00  0.00    -0.260 N 
ATOM     11  H   UNL     1       6.657  -3.405  27.152  0.00  0.00    +0.154 HD
ATOM     12  C   UNL     1       8.028  -4.891  26.574  0.00  0.00    +0.325 C 
ATOM     13  O   UNL     1       7.891  -5.709  27.469  0.00  0.00    -0.251 OA
ENDROOT
BRANCH   1  14
ATOM     14  N   UNL     1       9.837  -5.987  25.324  0.00  0.00    -0.243 NA
ATOM     15  H   UNL     1       9.937  -6.144  24.319  0.00  0.00    +0.141 HD
ATOM     16  H   UNL     1      10.741  -5.637  25.656  0.00  0.00    +0.141 HD
ENDBRANCH   1  14
BRANCH   5  17
ATOM     17  O   UNL     1       7.070  -0.907  26.502  0.00  0.00    -0.384 OA
ATOM     18  H   UNL     1       7.286  -1.266  27.392  0.00  0.00    +0.210 HD
ENDBRANCH   5  17
BRANCH   6  19
ATOM     19  O   UNL     1       9.166  -0.837  23.431  0.00  0.00    -0.386 OA
ATOM     20  H   UNL     1       9.483   0.002  23.036  0.00  0.00    +0.210 HD
ENDBRANCH   6  19
BRANCH   7  21
ATOM     21  O   UNL     1       5.649  -0.361  24.250  0.00  0.00    -0.386 OA
ATOM     22  H   UNL     1       5.695   0.612  24.184  0.00  0.00    +0.210 HD
ENDBRANCH   7  21
BRANCH   8  23
ATOM     23  C   UNL     1       7.342  -2.990  22.108  0.00  0.00    +0.190 C 
BRANCH  23  24
ATOM     24  O   UNL     1       7.108  -4.393  22.001  0.00  0.00    -0.392 OA
ATOM     25  H   UNL     1       7.020  -4.613  21.056  0.00  0.00    +0.210 HD
ENDBRANCH  23  24
ENDBRANCH   8  23
TORSDOF 6
ENDMDL
MODEL 8
REMARK VINA RESULT:      -5.6      2.635      4.175
REMARK  Name = 
REMARK  6 active torsions:
REMARK  status: ('A' for Active; 'I' for Inactive)
REMARK    1  A    between atoms: N_1  and  N_2
REMARK    2  A    between atoms: C_8  and  C_10
REMARK    3  A    between atoms: C_10  and  O_11
REMARK    4  A    between atoms: C_12  and  O_14
REMARK    5  A    between atoms: C_15  and  O_17
REMARK    6  A    between atoms: C_18  and  O_20
REMARK                            x       y       z     vdW  Elec       q    Type
REMARK                         _______ _______ _______ _____ _____    ______ ____
ROOT
ATOM      1  N   UNL     1       5.842  -5.101  27.182  0.00  0.00    -0.155 N 
ATOM      2  C   UNL     1       6.134  -4.676  25.911  0.00  0.00    +0.290 C 
ATOM      3  O   UNL     1       5.343  -4.364  25.027  0.00  0.00    -0.269 OA
ATOM      4  C   UNL     1       7.679  -4.653  25.773  0.00  0.00    +0.246 C 
ATOM      5  C   UNL     1       8.129  -5.173  24.395  0.00  0.00    +0.205 C 
ATOM      6  C   UNL     1       8.100  -4.054  23.336  0.00  0.00    +0.179 C 
ATOM      7  C   UNL     1       8.841  -2.811  23.851  0.00  0.00    +0.177 C 
ATOM      8  C   UNL     1       8.322  -2.358  25.228  0.00  0.00    +0.178 C 
ATOM      9  O   UNL     1       8.285  -3.439  26.175  0.00  0.00    -0.338 OA
ATOM     10  N   UNL     1       7.987  -5.575  26.845  0.00  0.00    -0.260 N 
ATOM     11  H   UNL     1       8.917  -5.917  27.037  0.00  0.00    +0.154 HD
ATOM     12  C   UNL     1       6.930  -5.757  27.709  0.00  0.00    +0.325 C 
ATOM     13  O   UNL     1       6.957  -6.451  28.711  0.00  0.00    -0.251 OA
ENDROOT
BRANCH   1  14
ATOM     14  N   UNL     1       4.543  -5.180  27.703  0.00  0.00    -0.243 NA
ATOM     15  H   UNL     1       4.306  -6.168  27.817  0.00  0.00    +0.141 HD
ATOM     16  H   UNL     1       4.570  -4.777  28.644  0.00  0.00    +0.141 HD
ENDBRANCH   1  14
BRANCH   5  17
ATOM     17  O   UNL     1       9.466  -5.715  24.490  0.00  0.00    -0.384 OA
ATOM     18  H   UNL     1       9.510  -6.227  25.328  0.00  0.00    +0.210 HD
ENDBRANCH   5  17
BRANCH   6  19
ATOM     19  O   UNL     1       6.799  -3.680  22.884  0.00  0.00    -0.386 OA
ATOM     20  H   UNL     1       6.145  -3.679  23.613  0.00  0.00    +0.210 HD
ENDBRANCH   6  19
BRANCH   7  21
ATOM     21  O   UNL     1      10.234  -3.157  23.979  0.00  0.00    -0.386 OA
ATOM     22  H   UNL     1      10.659  -2.957  23.124  0.00  0.00    +0.210 HD
ENDBRANCH   7  21
BRANCH   8  23
ATOM     23  C   UNL     1       7.005  -1.567  25.166  0.00  0.00    +0.190 C 
BRANCH  23  24
ATOM     24  O   UNL     1       6.906  -0.864  23.929  0.00  0.00    -0.392 OA
ATOM     25  H   UNL     1       7.647  -0.234  23.880  0.00  0.00    +0.210 HD
ENDBRANCH  23  24
ENDBRANCH   8  23
TORSDOF 6
ENDMDL
MODEL 9
REMARK VINA RESULT:      -5.5      4.263      5.673
REMARK  Name = 
REMARK  6 active torsions:
REMARK  status: ('A' for Active; 'I' for Inactive)
REMARK    1  A    between atoms: N_1  and  N_2
REMARK    2  A    between atoms: C_8  and  C_10
REMARK    3  A    between atoms: C_10  and  O_11
REMARK    4  A    between atoms: C_12  and  O_14
REMARK    5  A    between atoms: C_15  and  O_17
REMARK    6  A    between atoms: C_18  and  O_20
REMARK                            x       y       z     vdW  Elec       q    Type
REMARK                         _______ _______ _______ _____ _____    ______ ____
ROOT
ATOM      1  N   UNL     1       9.600   1.538  22.717  0.00  0.00    -0.155 N 
ATOM      2  C   UNL     1       8.600   0.715  23.169  0.00  0.00    +0.290 C 
ATOM      3  O   UNL     1       7.524   0.480  22.628  0.00  0.00    -0.269 OA
ATOM      4  C   UNL     1       9.068   0.114  24.519  0.00  0.00    +0.246 C 
ATOM      5  C   UNL     1       7.916   0.056  25.540  0.00  0.00    +0.205 C 
ATOM      6  C   UNL     1       7.070  -1.220  25.359  0.00  0.00    +0.179 C 
ATOM      7  C   UNL     1       7.976  -2.459  25.309  0.00  0.00    +0.177 C 
ATOM      8  C   UNL     1       9.092  -2.317  24.259  0.00  0.00    +0.178 C 
ATOM      9  O   UNL     1       9.815  -1.082  24.400  0.00  0.00    -0.338 OA
ATOM     10  N   UNL     1      10.058   1.117  24.851  0.00  0.00    -0.260 N 
ATOM     11  H   UNL     1      10.548   1.147  25.732  0.00  0.00    +0.154 HD
ATOM     12  C   UNL     1      10.422   1.882  23.765  0.00  0.00    +0.325 C 
ATOM     13  O   UNL     1      11.266   2.762  23.781  0.00  0.00    -0.251 OA
ENDROOT
BRANCH   1  14
ATOM     14  N   UNL     1       9.570   2.205  21.484  0.00  0.00    -0.243 NA
ATOM     15  H   UNL     1      10.404   1.938  20.958  0.00  0.00    +0.141 HD
ATOM     16  H   UNL     1       8.767   1.839  20.962  0.00  0.00    +0.141 HD
ENDBRANCH   1  14
BRANCH   5  17
ATOM     17  O   UNL     1       8.451   0.096  26.883  0.00  0.00    -0.384 OA
ATOM     18  H   UNL     1       9.321   0.551  26.832  0.00  0.00    +0.210 HD
ENDBRANCH   5  17
BRANCH   6  19
ATOM     19  O   UNL     1       6.203  -1.216  24.227  0.00  0.00    -0.386 OA
ATOM     20  H   UNL     1       6.248  -0.371  23.734  0.00  0.00    +0.210 HD
ENDBRANCH   6  19
BRANCH   7  21
ATOM     21  O   UNL     1       8.585  -2.605  26.607  0.00  0.00    -0.386 OA
ATOM     22  H   UNL     1       8.802  -3.550  26.718  0.00  0.00    +0.210 HD
ENDBRANCH   7  21
BRANCH   8  23
ATOM     23  C   UNL     1       8.626  -2.579  22.817  0.00  0.00    +0.190 C 
BRANCH  23  24
ATOM     24  O   UNL     1       7.576  -3.545  22.803  0.00  0.00    -0.392 OA
ATOM     25  H   UNL     1       6.821  -3.176  23.295  0.00  0.00    +0.210 HD
ENDBRANCH  23  24
ENDBRANCH   8  23
TORSDOF 6
ENDMDL
