MODEL 1
REMARK VINA RESULT:      19.9      0.000      0.000
REMARK  Name = 
REMARK  20 active torsions:
REMARK  status: ('A' for Active; 'I' for Inactive)
REMARK    1  A    between atoms: C_1  and  O_2
REMARK    2  A    between atoms: O_2  and  C_3
REMARK    3  A    between atoms: C_8  and  C_9
REMARK    4  A    between atoms: C_16  and  O_17
REMARK    5  A    between atoms: C_18  and  C_19
REMARK    6  A    between atoms: N_20  and  N_21
REMARK    7  A    between atoms: N_24  and  C_25
REMARK    8  A    between atoms: C_32  and  C_33
REMARK    9  A    between atoms: C_37  and  C_39
REMARK   10  A    between atoms: C_40  and  O_42
REMARK   11  A    between atoms: C_43  and  C_45
REMARK   12  A    between atoms: C_46  and  O_48
REMARK   13  A    between atoms: C_49  and  C_51
REMARK   14  A    between atoms: C_52  and  O_54
REMARK   15  A    between atoms: O_54  and  C_55
REMARK   16  A    between atoms: C_55  and  C_56
REMARK   17  A    between atoms: C_58  and  C_60
REMARK   18  A    between atoms: C_61  and  O_62
REMARK   19  A    between atoms: C_64  and  O_65
REMARK   20  A    between atoms: C_66  and  C_67
REMARK                            x       y       z     vdW  Elec       q    Type
REMARK                         _______ _______ _______ _____ _____    ______ ____
ROOT
ATOM      1  C   UNL     1       5.712  -1.685  24.137  0.00  0.00    +0.150 C 
ATOM      2  C   UNL     1       7.745  -1.067  23.596  0.00  0.00    +0.060 C 
ATOM      3  C   UNL     1       7.876  -2.636  23.421  0.00  0.00    +0.014 C 
ATOM      4  C   UNL     1       9.394   0.344  23.063  0.00  0.00    +0.187 C 
ATOM      5  C   UNL     1      10.676   2.110  22.916  0.00  0.00    +0.056 C 
ATOM      6  C   UNL     1      11.589   3.167  21.644  0.00  0.00    +0.014 C 
ATOM      7  C   UNL     1      12.312   3.098  23.631  0.00  0.00    +0.126 C 
ATOM      8  C   UNL     1      12.869   4.998  23.852  0.00  0.00    +0.044 C 
ATOM      9  C   UNL     1      12.718   6.848  24.147  0.00  0.00    +0.013 C 
ATOM     10  C   UNL     1      11.774   5.052  24.834  0.00  0.00    +0.126 C 
ATOM     11  C   UNL     1      10.512   5.473  24.025  0.00  0.00    +0.037 C 
ATOM     12  C   UNL     1      10.381   6.003  22.491  0.00  0.00    +0.014 C 
ATOM     13  C   UNL     1       9.843   4.242  24.316  0.00  0.00    -0.021 C 
ATOM     14  C   UNL     1       8.667   4.285  24.817  0.00  0.00    -0.003 C 
ATOM     15  C   UNL     1       8.187   3.118  25.424  0.00  0.00    +0.008 C 
ATOM     16  C   UNL     1       6.889   3.187  25.666  0.00  0.00    +0.012 C 
ATOM     17  C   UNL     1       6.132   4.447  25.506  0.00  0.00    +0.049 C 
ATOM     18  C   UNL     1       6.332   1.884  25.896  0.00  0.00    +0.244 C 
ATOM     19  O   UNL     1       6.884   0.886  25.443  0.00  0.00    -0.270 OA
ATOM     20  N   UNL     1       5.220   1.884  26.639  0.00  0.00    -0.278 N 
ATOM     21  H   UNL     1       4.665   2.737  26.685  0.00  0.00    +0.155 HD
ATOM     22  C   UNL     1       4.652   0.766  27.239  0.00  0.00    +0.089 A 
ATOM     23  C   UNL     1       5.409  -0.374  27.578  0.00  0.00    +0.150 A 
ATOM     24  C   UNL     1       4.862  -1.456  28.257  0.00  0.00    +0.071 A 
ATOM     25  C   UNL     1       5.620  -2.685  28.439  0.00  0.00    +0.135 A 
ATOM     26  C   UNL     1       5.103  -3.803  29.038  0.00  0.00    +0.034 A 
ATOM     27  C   UNL     1       5.722  -5.167  29.021  0.00  0.00    +0.051 C 
ATOM     28  C   UNL     1       3.807  -3.652  29.432  0.00  0.00    +0.144 A 
ATOM     29  C   UNL     1       3.042  -2.468  29.302  0.00  0.00    +0.079 A 
ATOM     30  C   UNL     1       1.692  -2.957  29.124  0.00  0.00    +0.250 C 
ATOM     31  O   UNL     1       0.648  -2.316  29.102  0.00  0.00    -0.284 OA
ATOM     32  C   UNL     1       1.858  -4.427  28.900  0.00  0.00    +0.314 C 
ATOM     33  C   UNL     1       1.018  -4.503  30.479  0.00  0.00    +0.114 C 
ATOM     34  O   UNL     1       2.160  -3.524  27.354  0.00  0.00    -0.453 OA
ATOM     35  C   UNL     1       3.516  -3.467  26.347  0.00  0.00    +0.190 C 
ATOM     36  O   UNL     1       3.112  -4.834  29.446  0.00  0.00    -0.444 OA
ATOM     37  C   UNL     1       3.502  -1.338  28.644  0.00  0.00    +0.046 A 
ATOM     38  C   UNL     1       2.711  -0.214  28.250  0.00  0.00    +0.136 A 
ATOM     39  C   UNL     1       3.304   0.854  27.594  0.00  0.00    +0.061 A 
ATOM     40  C   UNL     1       4.379  -2.405  25.475  0.00  0.00    +0.042 C 
ENDROOT
BRANCH   1  42
ATOM     41  C   UNL     1       4.546  -3.869  22.067  0.00  0.00    +0.194 C 
ATOM     42  O   UNL     1       4.533  -2.349  22.933  0.00  0.00    -0.375 OA
ENDBRANCH   1  42
BRANCH   7  43
ATOM     43  O   UNL     1      13.713   2.651  23.098  0.00  0.00    -0.391 OA
ATOM     44  H   UNL     1      14.063   3.294  22.423  0.00  0.00    +0.210 HD
ENDBRANCH   7  43
BRANCH  10  45
ATOM     45  O   UNL     1      11.964   5.644  26.119  0.00  0.00    -0.391 OA
ATOM     46  H   UNL     1      12.908   5.886  26.156  0.00  0.00    +0.210 HD
ENDBRANCH  10  45
BRANCH  23  47
ATOM     47  O   UNL     1       6.765  -0.498  27.366  0.00  0.00    -0.504 OA
ATOM     48  H   UNL     1       6.941  -1.350  26.925  0.00  0.00    +0.292 HD
ENDBRANCH  23  47
BRANCH  25  49
ATOM     49  O   UNL     1       6.851  -2.889  27.859  0.00  0.00    -0.506 OA
ATOM     50  H   UNL     1       7.334  -3.483  28.463  0.00  0.00    +0.292 HD
ENDBRANCH  25  49
BRANCH  38  51
ATOM     51  O   UNL     1       1.371  -0.069  28.519  0.00  0.00    -0.505 OA
ATOM     52  H   UNL     1       1.044  -0.711  29.186  0.00  0.00    +0.292 HD
ENDBRANCH  38  51
BRANCH  39  53
ATOM     53  C   UNL     1       2.485   2.078  27.387  0.00  0.00    +0.143 C 
ATOM     54  N   UNL     1       2.122   2.517  26.214  0.00  0.00    -0.192 NA
BRANCH  54  55
ATOM     55  N   UNL     1       1.444   3.686  26.275  0.00  0.00    -0.253 N 
ATOM     56  C   UNL     1       1.330   4.573  25.100  0.00  0.00    +0.141 C 
ATOM     57  C   UNL     1       2.109   5.894  25.220  0.00  0.00    +0.104 C 
ATOM     58  N   UNL     1       1.838   6.639  26.465  0.00  0.00    -0.302 NA
ATOM     59  C   UNL     1       0.445   7.099  26.509  0.00  0.00    +0.105 C 
ATOM     60  C   UNL     1       2.135   5.735  27.595  0.00  0.00    +0.104 C 
ATOM     61  C   UNL     1       1.355   4.404  27.555  0.00  0.00    +0.141 C 
ENDBRANCH  54  55
ENDBRANCH  39  53
BRANCH   4  62
ATOM     62  O   UNL     1      11.066  -0.042  22.038  0.00  0.00    -0.461 OA
BRANCH  62  63
ATOM     63  C   UNL     1      12.074  -1.351  21.998  0.00  0.00    +0.304 C 
ATOM     64  O   UNL     1      11.814  -2.275  22.797  0.00  0.00    -0.251 OA
ATOM     65  C   UNL     1      13.566  -1.788  21.005  0.00  0.00    +0.136 C 
ENDBRANCH  62  63
ENDBRANCH   4  62
TORSDOF 10
ENDMDL
MODEL 2
REMARK VINA RESULT:      22.6      2.888      9.389
REMARK  Name = 
REMARK  20 active torsions:
REMARK  status: ('A' for Active; 'I' for Inactive)
REMARK    1  A    between atoms: C_1  and  O_2
REMARK    2  A    between atoms: O_2  and  C_3
REMARK    3  A    between atoms: C_8  and  C_9
REMARK    4  A    between atoms: C_16  and  O_17
REMARK    5  A    between atoms: C_18  and  C_19
REMARK    6  A    between atoms: N_20  and  N_21
REMARK    7  A    between atoms: N_24  and  C_25
REMARK    8  A    between atoms: C_32  and  C_33
REMARK    9  A    between atoms: C_37  and  C_39
REMARK   10  A    between atoms: C_40  and  O_42
REMARK   11  A    between atoms: C_43  and  C_45
REMARK   12  A    between atoms: C_46  and  O_48
REMARK   13  A    between atoms: C_49  and  C_51
REMARK   14  A    between atoms: C_52  and  O_54
REMARK   15  A    between atoms: O_54  and  C_55
REMARK   16  A    between atoms: C_55  and  C_56
REMARK   17  A    between atoms: C_58  and  C_60
REMARK   18  A    between atoms: C_61  and  O_62
REMARK   19  A    between atoms: C_64  and  O_65
REMARK   20  A    between atoms: C_66  and  C_67
REMARK                            x       y       z     vdW  Elec       q    Type
REMARK                         _______ _______ _______ _____ _____    ______ ____
ROOT
ATOM      1  C   UNL     1       8.998  -0.519  26.475  0.00  0.00    +0.150 C 
ATOM      2  C   UNL     1       8.443  -2.604  26.084  0.00  0.00    +0.060 C 
ATOM      3  C   UNL     1       9.968  -2.636  25.652  0.00  0.00    +0.014 C 
ATOM      4  C   UNL     1       7.169  -4.439  26.135  0.00  0.00    +0.187 C 
ATOM      5  C   UNL     1       5.461  -5.803  26.176  0.00  0.00    +0.056 C 
ATOM      6  C   UNL     1       4.819  -7.335  27.076  0.00  0.00    +0.014 C 
ATOM      7  C   UNL     1       4.172  -6.961  25.096  0.00  0.00    +0.126 C 
ATOM      8  C   UNL     1       2.270  -7.532  25.250  0.00  0.00    +0.044 C 
ATOM      9  C   UNL     1       0.443  -7.454  25.686  0.00  0.00    +0.013 C 
ATOM     10  C   UNL     1       1.976  -6.107  25.032  0.00  0.00    +0.126 C 
ATOM     11  C   UNL     1       1.942  -5.469  26.452  0.00  0.00    +0.037 C 
ATOM     12  C   UNL     1       1.961  -6.176  27.918  0.00  0.00    +0.014 C 
ATOM     13  C   UNL     1       3.054  -4.617  26.160  0.00  0.00    -0.021 C 
ATOM     14  C   UNL     1       2.936  -3.360  26.363  0.00  0.00    -0.003 C 
ATOM     15  C   UNL     1       3.869  -2.519  25.743  0.00  0.00    +0.008 C 
ATOM     16  C   UNL     1       3.821  -1.289  26.224  0.00  0.00    +0.012 C 
ATOM     17  C   UNL     1       2.745  -0.852  27.140  0.00  0.00    +0.049 C 
ATOM     18  C   UNL     1       5.013  -0.557  25.901  0.00  0.00    +0.244 C 
ATOM     19  O   UNL     1       6.060  -1.151  25.665  0.00  0.00    -0.270 OA
ATOM     20  N   UNL     1       4.849   0.770  25.865  0.00  0.00    -0.278 N 
ATOM     21  H   UNL     1       4.074   1.180  26.383  0.00  0.00    +0.155 HD
ATOM     22  C   UNL     1       5.745   1.677  25.310  0.00  0.00    +0.089 A 
ATOM     23  C   UNL     1       6.649   1.315  24.290  0.00  0.00    +0.150 A 
ATOM     24  C   UNL     1       7.483   2.240  23.673  0.00  0.00    +0.071 A 
ATOM     25  C   UNL     1       8.522   1.809  22.750  0.00  0.00    +0.135 A 
ATOM     26  C   UNL     1       9.415   2.671  22.170  0.00  0.00    +0.034 A 
ATOM     27  C   UNL     1      10.657   2.275  21.433  0.00  0.00    +0.051 C 
ATOM     28  C   UNL     1       9.240   3.966  22.554  0.00  0.00    +0.144 A 
ATOM     29  C   UNL     1       8.226   4.434  23.425  0.00  0.00    +0.079 A 
ATOM     30  C   UNL     1       8.846   5.559  24.090  0.00  0.00    +0.250 C 
ATOM     31  O   UNL     1       8.329   6.379  24.840  0.00  0.00    -0.284 OA
ATOM     32  C   UNL     1      10.291   5.461  23.713  0.00  0.00    +0.314 C 
ATOM     33  C   UNL     1       9.903   6.979  22.845  0.00  0.00    +0.114 C 
ATOM     34  O   UNL     1       9.930   4.336  25.091  0.00  0.00    -0.453 OA
ATOM     35  C   UNL     1      10.108   2.661  25.235  0.00  0.00    +0.190 C 
ATOM     36  O   UNL     1      10.399   4.698  22.513  0.00  0.00    -0.444 OA
ATOM     37  C   UNL     1       7.346   3.590  24.085  0.00  0.00    +0.046 A 
ATOM     38  C   UNL     1       6.479   3.955  25.162  0.00  0.00    +0.136 A 
ATOM     39  C   UNL     1       5.646   3.005  25.733  0.00  0.00    +0.061 A 
ATOM     40  C   UNL     1       9.333   1.371  25.841  0.00  0.00    +0.042 C 
ENDROOT
BRANCH   1  42
ATOM     41  C   UNL     1      11.612   0.864  27.768  0.00  0.00    +0.194 C 
ATOM     42  O   UNL     1      10.109  -0.032  27.820  0.00  0.00    -0.375 OA
ENDBRANCH   1  42
BRANCH   7  43
ATOM     43  O   UNL     1       4.665  -8.384  24.675  0.00  0.00    -0.391 OA
ATOM     44  H   UNL     1       3.939  -8.899  24.229  0.00  0.00    +0.210 HD
ENDBRANCH   7  43
BRANCH  10  45
ATOM     45  O   UNL     1       0.980  -5.694  24.097  0.00  0.00    -0.391 OA
ATOM     46  H   UNL     1       0.731  -4.790  24.366  0.00  0.00    +0.210 HD
ENDBRANCH  10  45
BRANCH  23  47
ATOM     47  O   UNL     1       6.735   0.056  23.737  0.00  0.00    -0.504 OA
ATOM     48  H   UNL     1       6.090  -0.016  23.009  0.00  0.00    +0.292 HD
ENDBRANCH  23  47
BRANCH  25  49
ATOM     49  O   UNL     1       8.814   0.482  22.529  0.00  0.00    -0.506 OA
ATOM     50  H   UNL     1       8.195  -0.023  23.088  0.00  0.00    +0.292 HD
ENDBRANCH  25  49
BRANCH  38  51
ATOM     51  O   UNL     1       6.354   5.227  25.667  0.00  0.00    -0.505 OA
ATOM     52  H   UNL     1       6.371   5.251  26.649  0.00  0.00    +0.292 HD
ENDBRANCH  38  51
BRANCH  39  53
ATOM     53  C   UNL     1       4.625   3.476  26.705  0.00  0.00    +0.143 C 
ATOM     54  N   UNL     1       3.437   2.951  26.819  0.00  0.00    -0.192 NA
BRANCH  54  55
ATOM     55  N   UNL     1       2.659   3.594  27.721  0.00  0.00    -0.253 N 
ATOM     56  C   UNL     1       3.113   3.820  29.107  0.00  0.00    +0.141 C 
ATOM     57  C   UNL     1       2.355   3.006  30.169  0.00  0.00    +0.104 C 
ATOM     58  N   UNL     1       0.886   3.120  30.075  0.00  0.00    -0.302 NA
ATOM     59  C   UNL     1       0.445   4.488  30.365  0.00  0.00    +0.105 C 
ATOM     60  C   UNL     1       0.498   2.716  28.707  0.00  0.00    +0.104 C 
ATOM     61  C   UNL     1       1.196   3.522  27.594  0.00  0.00    +0.141 C 
ENDBRANCH  54  55
ENDBRANCH  39  53
BRANCH   4  62
ATOM     62  O   UNL     1       7.746  -6.347  25.990  0.00  0.00    -0.461 OA
BRANCH  62  63
ATOM     63  C   UNL     1       8.957  -7.086  25.142  0.00  0.00    +0.304 C 
ATOM     64  O   UNL     1       9.455  -8.106  25.662  0.00  0.00    -0.251 OA
ATOM     65  C   UNL     1       9.787  -6.740  23.532  0.00  0.00    +0.136 C 
ENDBRANCH  62  63
ENDBRANCH   4  62
TORSDOF 10
ENDMDL
