MODEL 1
REMARK VINA RESULT:      -5.6      0.000      0.000
REMARK  Name = 
REMARK  11 active torsions:
REMARK  status: ('A' for Active; 'I' for Inactive)
REMARK    1  A    between atoms: C_1  and  C_2
REMARK    2  A    between atoms: C_2  and  C_3
REMARK    3  A    between atoms: C_3  and  N_4
REMARK    4  A    between atoms: C_3  and  C_8
REMARK    5  A    between atoms: N_4  and  C_5
REMARK    6  A    between atoms: C_5  and  C_6
REMARK    7  A    between atoms: C_5  and  C_7
REMARK    8  A    between atoms: C_8  and  O_9
REMARK    9  A    between atoms: C_8  and  C_10
REMARK   10  A    between atoms: C_12  and  O_13
REMARK   11  A    between atoms: C_14  and  O_15
REMARK                            x       y       z     vdW  Elec       q    Type
REMARK                         _______ _______ _______ _____ _____    ______ ____
ROOT
ATOM      1  C   UNL     1       9.097  -2.837  24.303  0.00  0.00    +0.161 C 
ENDROOT
BRANCH   1   2
ATOM      2  C   UNL     1       9.418  -1.540  23.575  0.00  0.00    -0.014 A 
ATOM      3  C   UNL     1       9.180  -1.449  22.190  0.00  0.00    +0.010 A 
ATOM      4  C   UNL     1       9.433  -0.265  21.483  0.00  0.00    +0.049 A 
ATOM      5  C   UNL     1       9.916   0.837  22.172  0.00  0.00    +0.158 A 
ATOM      6  C   UNL     1      10.154   0.771  23.539  0.00  0.00    +0.159 A 
ATOM      7  C   UNL     1       9.906  -0.401  24.243  0.00  0.00    +0.055 A 
BRANCH   5   8
ATOM      8  O   UNL     1      10.151   1.998  21.494  0.00  0.00    -0.503 OA
ATOM      9  H   UNL     1       9.257   2.358  21.319  0.00  0.00    +0.292 HD
ENDBRANCH   5   8
BRANCH   6  10
ATOM     10  O   UNL     1      10.639   1.889  24.159  0.00  0.00    -0.503 OA
ATOM     11  H   UNL     1      11.190   1.605  24.907  0.00  0.00    +0.292 HD
ENDBRANCH   6  10
ENDBRANCH   1   2
BRANCH   1  12
ATOM     12  O   UNL     1      10.234  -3.695  24.158  0.00  0.00    -0.386 OA
ATOM     13  H   UNL     1      10.982  -3.134  23.883  0.00  0.00    +0.210 HD
ENDBRANCH   1  12
BRANCH   1  14
ATOM     14  C   UNL     1       7.793  -3.591  23.840  0.00  0.00    +0.087 C 
BRANCH  14  16
ATOM     15  C   UNL     1       7.503  -5.777  22.494  0.00  0.00    +0.005 C 
ATOM     16  C   UNL     1       8.037  -5.118  23.761  0.00  0.00    +0.018 C 
ENDBRANCH  14  16
BRANCH  14  17
ATOM     17  N   UNL     1       6.558  -3.178  24.538  0.00  0.00    -0.308 NA
ATOM     18  H   UNL     1       6.733  -2.389  25.158  0.00  0.00    +0.123 HD
BRANCH  17  19
ATOM     19  C   UNL     1       5.349  -2.949  23.737  0.00  0.00    +0.048 C 
ATOM     20  C   UNL     1       4.372  -4.122  23.747  0.00  0.00    +0.023 C 
ATOM     21  C   UNL     1       5.790  -2.709  22.286  0.00  0.00    +0.023 C 
ENDBRANCH  17  19
ENDBRANCH  14  17
ENDBRANCH   1  14
TORSDOF 8
ENDMDL
MODEL 2
REMARK VINA RESULT:      -5.6      2.004      2.857
REMARK  Name = 
REMARK  11 active torsions:
REMARK  status: ('A' for Active; 'I' for Inactive)
REMARK    1  A    between atoms: C_1  and  C_2
REMARK    2  A    between atoms: C_2  and  C_3
REMARK    3  A    between atoms: C_3  and  N_4
REMARK    4  A    between atoms: C_3  and  C_8
REMARK    5  A    between atoms: N_4  and  C_5
REMARK    6  A    between atoms: C_5  and  C_6
REMARK    7  A    between atoms: C_5  and  C_7
REMARK    8  A    between atoms: C_8  and  O_9
REMARK    9  A    between atoms: C_8  and  C_10
REMARK   10  A    between atoms: C_12  and  O_13
REMARK   11  A    between atoms: C_14  and  O_15
REMARK                            x       y       z     vdW  Elec       q    Type
REMARK                         _______ _______ _______ _____ _____    ______ ____
ROOT
ATOM      1  C   UNL     1      10.156  -1.545  23.173  0.00  0.00    +0.161 C 
ENDROOT
BRANCH   1   2
ATOM      2  C   UNL     1       9.810  -0.062  23.175  0.00  0.00    -0.014 A 
ATOM      3  C   UNL     1       9.860   0.659  21.966  0.00  0.00    +0.010 A 
ATOM      4  C   UNL     1       9.521   2.019  21.913  0.00  0.00    +0.049 A 
ATOM      5  C   UNL     1       9.118   2.654  23.077  0.00  0.00    +0.158 A 
ATOM      6  C   UNL     1       9.056   1.960  24.280  0.00  0.00    +0.159 A 
ATOM      7  C   UNL     1       9.393   0.614  24.336  0.00  0.00    +0.055 A 
BRANCH   5   8
ATOM      8  O   UNL     1       8.772   3.973  23.032  0.00  0.00    -0.503 OA
ATOM      9  H   UNL     1       8.136   4.029  22.289  0.00  0.00    +0.292 HD
ENDBRANCH   5   8
BRANCH   6  10
ATOM     10  O   UNL     1       8.659   2.646  25.395  0.00  0.00    -0.503 OA
ATOM     11  H   UNL     1       7.957   3.265  25.135  0.00  0.00    +0.292 HD
ENDBRANCH   6  10
ENDBRANCH   1   2
BRANCH   1  12
ATOM     12  O   UNL     1      10.553  -1.883  21.840  0.00  0.00    -0.386 OA
ATOM     13  H   UNL     1       9.803  -1.669  21.255  0.00  0.00    +0.210 HD
ENDBRANCH   1  12
BRANCH   1  14
ATOM     14  C   UNL     1       9.023  -2.525  23.660  0.00  0.00    +0.087 C 
BRANCH  14  16
ATOM     15  C   UNL     1       6.615  -2.095  22.830  0.00  0.00    +0.005 C 
ATOM     16  C   UNL     1       7.966  -2.743  22.550  0.00  0.00    +0.018 C 
ENDBRANCH  14  16
BRANCH  14  17
ATOM     17  N   UNL     1       9.510  -3.751  24.327  0.00  0.00    -0.308 NA
ATOM     18  H   UNL     1      10.527  -3.768  24.368  0.00  0.00    +0.123 HD
BRANCH  17  19
ATOM     19  C   UNL     1       8.934  -4.110  25.629  0.00  0.00    +0.048 C 
ATOM     20  C   UNL     1       7.782  -5.108  25.538  0.00  0.00    +0.023 C 
ATOM     21  C   UNL     1       8.400  -2.823  26.274  0.00  0.00    +0.023 C 
ENDBRANCH  17  19
ENDBRANCH  14  17
ENDBRANCH   1  14
TORSDOF 8
ENDMDL
MODEL 3
REMARK VINA RESULT:      -5.4      1.306      1.896
REMARK  Name = 
REMARK  11 active torsions:
REMARK  status: ('A' for Active; 'I' for Inactive)
REMARK    1  A    between atoms: C_1  and  C_2
REMARK    2  A    between atoms: C_2  and  C_3
REMARK    3  A    between atoms: C_3  and  N_4
REMARK    4  A    between atoms: C_3  and  C_8
REMARK    5  A    between atoms: N_4  and  C_5
REMARK    6  A    between atoms: C_5  and  C_6
REMARK    7  A    between atoms: C_5  and  C_7
REMARK    8  A    between atoms: C_8  and  O_9
REMARK    9  A    between atoms: C_8  and  C_10
REMARK   10  A    between atoms: C_12  and  O_13
REMARK   11  A    between atoms: C_14  and  O_15
REMARK                            x       y       z     vdW  Elec       q    Type
REMARK                         _______ _______ _______ _____ _____    ______ ____
ROOT
ATOM      1  C   UNL     1       9.051  -2.573  24.396  0.00  0.00    +0.161 C 
ENDROOT
BRANCH   1   2
ATOM      2  C   UNL     1       9.402  -1.298  23.641  0.00  0.00    -0.014 A 
ATOM      3  C   UNL     1       9.232  -1.256  22.244  0.00  0.00    +0.010 A 
ATOM      4  C   UNL     1       9.513  -0.094  21.510  0.00  0.00    +0.049 A 
ATOM      5  C   UNL     1       9.955   1.033  22.185  0.00  0.00    +0.158 A 
ATOM      6  C   UNL     1      10.125   1.015  23.564  0.00  0.00    +0.159 A 
ATOM      7  C   UNL     1       9.848  -0.134  24.294  0.00  0.00    +0.055 A 
BRANCH   5   8
ATOM      8  O   UNL     1      10.217   2.173  21.481  0.00  0.00    -0.503 OA
ATOM      9  H   UNL     1       9.348   2.619  21.414  0.00  0.00    +0.292 HD
ENDBRANCH   5   8
BRANCH   6  10
ATOM     10  O   UNL     1      10.572   2.157  24.169  0.00  0.00    -0.503 OA
ATOM     11  H   UNL     1      10.245   2.161  25.085  0.00  0.00    +0.292 HD
ENDBRANCH   6  10
ENDBRANCH   1   2
BRANCH   1  12
ATOM     12  O   UNL     1      10.053  -3.543  24.073  0.00  0.00    -0.386 OA
ATOM     13  H   UNL     1      10.769  -3.444  24.728  0.00  0.00    +0.210 HD
ENDBRANCH   1  12
BRANCH   1  14
ATOM     14  C   UNL     1       7.618  -3.171  24.126  0.00  0.00    +0.087 C 
BRANCH  14  16
ATOM     15  C   UNL     1       6.489  -3.949  21.938  0.00  0.00    +0.005 C 
ATOM     16  C   UNL     1       7.643  -4.136  22.915  0.00  0.00    +0.018 C 
ENDBRANCH  14  16
BRANCH  14  17
ATOM     17  N   UNL     1       6.921  -3.673  25.328  0.00  0.00    -0.308 NA
ATOM     18  H   UNL     1       5.947  -3.379  25.338  0.00  0.00    +0.123 HD
BRANCH  17  19
ATOM     19  C   UNL     1       7.034  -5.100  25.653  0.00  0.00    +0.048 C 
ATOM     20  C   UNL     1       5.702  -5.760  26.003  0.00  0.00    +0.023 C 
ATOM     21  C   UNL     1       7.964  -5.231  26.867  0.00  0.00    +0.023 C 
ENDBRANCH  17  19
ENDBRANCH  14  17
ENDBRANCH   1  14
TORSDOF 8
ENDMDL
MODEL 4
REMARK VINA RESULT:      -5.4      2.252      5.247
REMARK  Name = 
REMARK  11 active torsions:
REMARK  status: ('A' for Active; 'I' for Inactive)
REMARK    1  A    between atoms: C_1  and  C_2
REMARK    2  A    between atoms: C_2  and  C_3
REMARK    3  A    between atoms: C_3  and  N_4
REMARK    4  A    between atoms: C_3  and  C_8
REMARK    5  A    between atoms: N_4  and  C_5
REMARK    6  A    between atoms: C_5  and  C_6
REMARK    7  A    between atoms: C_5  and  C_7
REMARK    8  A    between atoms: C_8  and  O_9
REMARK    9  A    between atoms: C_8  and  C_10
REMARK   10  A    between atoms: C_12  and  O_13
REMARK   11  A    between atoms: C_14  and  O_15
REMARK                            x       y       z     vdW  Elec       q    Type
REMARK                         _______ _______ _______ _____ _____    ______ ____
ROOT
ATOM      1  C   UNL     1       9.370  -1.516  24.223  0.00  0.00    +0.161 C 
ENDROOT
BRANCH   1   2
ATOM      2  C   UNL     1       9.026  -2.722  25.086  0.00  0.00    -0.014 A 
ATOM      3  C   UNL     1       8.036  -2.598  26.079  0.00  0.00    +0.010 A 
ATOM      4  C   UNL     1       7.664  -3.689  26.878  0.00  0.00    +0.049 A 
ATOM      5  C   UNL     1       8.282  -4.912  26.670  0.00  0.00    +0.158 A 
ATOM      6  C   UNL     1       9.258  -5.058  25.693  0.00  0.00    +0.159 A 
ATOM      7  C   UNL     1       9.630  -3.979  24.900  0.00  0.00    +0.055 A 
BRANCH   5   8
ATOM      8  O   UNL     1       7.916  -5.983  27.433  0.00  0.00    -0.503 OA
ATOM      9  H   UNL     1       8.674  -6.599  27.361  0.00  0.00    +0.292 HD
ENDBRANCH   5   8
BRANCH   6  10
ATOM     10  O   UNL     1       9.836  -6.289  25.542  0.00  0.00    -0.503 OA
ATOM     11  H   UNL     1      10.424  -6.441  26.301  0.00  0.00    +0.292 HD
ENDBRANCH   6  10
ENDBRANCH   1   2
BRANCH   1  12
ATOM     12  O   UNL     1       9.591  -0.413  25.108  0.00  0.00    -0.386 OA
ATOM     13  H   UNL     1       9.252   0.385  24.661  0.00  0.00    +0.210 HD
ENDBRANCH   1  12
BRANCH   1  14
ATOM     14  C   UNL     1       8.311  -1.119  23.126  0.00  0.00    +0.087 C 
BRANCH  14  16
ATOM     15  C   UNL     1       9.262   0.450  21.309  0.00  0.00    +0.005 C 
ATOM     16  C   UNL     1       8.534   0.335  22.643  0.00  0.00    +0.018 C 
ENDBRANCH  14  16
BRANCH  14  17
ATOM     17  N   UNL     1       8.120  -2.124  22.059  0.00  0.00    -0.308 NA
ATOM     18  H   UNL     1       8.927  -2.739  21.984  0.00  0.00    +0.123 HD
BRANCH  17  19
ATOM     19  C   UNL     1       6.875  -2.902  22.052  0.00  0.00    +0.048 C 
ATOM     20  C   UNL     1       5.883  -2.489  23.137  0.00  0.00    +0.023 C 
ATOM     21  C   UNL     1       7.243  -4.375  22.279  0.00  0.00    +0.023 C 
ENDBRANCH  17  19
ENDBRANCH  14  17
ENDBRANCH   1  14
TORSDOF 8
ENDMDL
MODEL 5
REMARK VINA RESULT:      -5.4      2.341      5.398
REMARK  Name = 
REMARK  11 active torsions:
REMARK  status: ('A' for Active; 'I' for Inactive)
REMARK    1  A    between atoms: C_1  and  C_2
REMARK    2  A    between atoms: C_2  and  C_3
REMARK    3  A    between atoms: C_3  and  N_4
REMARK    4  A    between atoms: C_3  and  C_8
REMARK    5  A    between atoms: N_4  and  C_5
REMARK    6  A    between atoms: C_5  and  C_6
REMARK    7  A    between atoms: C_5  and  C_7
REMARK    8  A    between atoms: C_8  and  O_9
REMARK    9  A    between atoms: C_8  and  C_10
REMARK   10  A    between atoms: C_12  and  O_13
REMARK   11  A    between atoms: C_14  and  O_15
REMARK                            x       y       z     vdW  Elec       q    Type
REMARK                         _______ _______ _______ _____ _____    ______ ____
ROOT
ATOM      1  C   UNL     1       8.780  -1.663  21.989  0.00  0.00    +0.161 C 
ENDROOT
BRANCH   1   2
ATOM      2  C   UNL     1       8.568  -2.781  23.000  0.00  0.00    -0.014 A 
ATOM      3  C   UNL     1       9.422  -2.872  24.116  0.00  0.00    +0.010 A 
ATOM      4  C   UNL     1       9.247  -3.866  25.090  0.00  0.00    +0.049 A 
ATOM      5  C   UNL     1       8.202  -4.765  24.948  0.00  0.00    +0.158 A 
ATOM      6  C   UNL     1       7.345  -4.691  23.857  0.00  0.00    +0.159 A 
ATOM      7  C   UNL     1       7.515  -3.708  22.890  0.00  0.00    +0.055 A 
BRANCH   5   8
ATOM      8  O   UNL     1       8.016  -5.727  25.897  0.00  0.00    -0.503 OA
ATOM      9  H   UNL     1       8.278  -6.559  25.451  0.00  0.00    +0.292 HD
ENDBRANCH   5   8
BRANCH   6  10
ATOM     10  O   UNL     1       6.337  -5.613  23.770  0.00  0.00    -0.503 OA
ATOM     11  H   UNL     1       5.511  -5.140  23.576  0.00  0.00    +0.292 HD
ENDBRANCH   6  10
ENDBRANCH   1   2
BRANCH   1  12
ATOM     12  O   UNL     1      10.162  -1.686  21.619  0.00  0.00    -0.386 OA
ATOM     13  H   UNL     1      10.462  -0.759  21.574  0.00  0.00    +0.210 HD
ENDBRANCH   1  12
BRANCH   1  14
ATOM     14  C   UNL     1       8.374  -0.214  22.457  0.00  0.00    +0.087 C 
BRANCH  14  16
ATOM     15  C   UNL     1       9.983   1.781  22.141  0.00  0.00    +0.005 C 
ATOM     16  C   UNL     1       8.954   0.857  21.501  0.00  0.00    +0.018 C 
ENDBRANCH  14  16
BRANCH  14  17
ATOM     17  N   UNL     1       6.946  -0.054  22.805  0.00  0.00    -0.308 NA
ATOM     18  H   UNL     1       6.390  -0.825  22.440  0.00  0.00    +0.123 HD
BRANCH  17  19
ATOM     19  C   UNL     1       6.598   0.219  24.204  0.00  0.00    +0.048 C 
ATOM     20  C   UNL     1       7.808   0.423  25.112  0.00  0.00    +0.023 C 
ATOM     21  C   UNL     1       5.806  -0.986  24.732  0.00  0.00    +0.023 C 
ENDBRANCH  17  19
ENDBRANCH  14  17
ENDBRANCH   1  14
TORSDOF 8
ENDMDL
MODEL 6
REMARK VINA RESULT:      -5.3      1.548      2.395
REMARK  Name = 
REMARK  11 active torsions:
REMARK  status: ('A' for Active; 'I' for Inactive)
REMARK    1  A    between atoms: C_1  and  C_2
REMARK    2  A    between atoms: C_2  and  C_3
REMARK    3  A    between atoms: C_3  and  N_4
REMARK    4  A    between atoms: C_3  and  C_8
REMARK    5  A    between atoms: N_4  and  C_5
REMARK    6  A    between atoms: C_5  and  C_6
REMARK    7  A    between atoms: C_5  and  C_7
REMARK    8  A    between atoms: C_8  and  O_9
REMARK    9  A    between atoms: C_8  and  C_10
REMARK   10  A    between atoms: C_12  and  O_13
REMARK   11  A    between atoms: C_14  and  O_15
REMARK                            x       y       z     vdW  Elec       q    Type
REMARK                         _______ _______ _______ _____ _____    ______ ____
ROOT
ATOM      1  C   UNL     1       8.306  -1.840  24.582  0.00  0.00    +0.161 C 
ENDROOT
BRANCH   1   2
ATOM      2  C   UNL     1       8.870  -0.645  23.828  0.00  0.00    -0.014 A 
ATOM      3  C   UNL     1       9.915   0.104  24.405  0.00  0.00    +0.010 A 
ATOM      4  C   UNL     1      10.487   1.195  23.734  0.00  0.00    +0.049 A 
ATOM      5  C   UNL     1      10.015   1.528  22.474  0.00  0.00    +0.158 A 
ATOM      6  C   UNL     1       8.989   0.801  21.885  0.00  0.00    +0.159 A 
ATOM      7  C   UNL     1       8.419  -0.280  22.546  0.00  0.00    +0.055 A 
BRANCH   5   8
ATOM      8  O   UNL     1      10.575   2.580  21.808  0.00  0.00    -0.503 OA
ATOM      9  H   UNL     1      10.592   3.301  22.471  0.00  0.00    +0.292 HD
ENDBRANCH   5   8
BRANCH   6  10
ATOM     10  O   UNL     1       8.562   1.185  20.643  0.00  0.00    -0.503 OA
ATOM     11  H   UNL     1       8.408   0.384  20.115  0.00  0.00    +0.292 HD
ENDBRANCH   6  10
ENDBRANCH   1   2
BRANCH   1  12
ATOM     12  O   UNL     1       8.779  -1.750  25.930  0.00  0.00    -0.386 OA
ATOM     13  H   UNL     1       8.069  -1.338  26.456  0.00  0.00    +0.210 HD
ENDBRANCH   1  12
BRANCH   1  14
ATOM     14  C   UNL     1       8.643  -3.261  23.989  0.00  0.00    +0.087 C 
BRANCH  14  16
ATOM     15  C   UNL     1       9.234  -5.402  25.306  0.00  0.00    +0.005 C 
ATOM     16  C   UNL     1       9.666  -4.003  24.883  0.00  0.00    +0.018 C 
ENDBRANCH  14  16
BRANCH  14  17
ATOM     17  N   UNL     1       7.467  -4.052  23.572  0.00  0.00    -0.308 NA
ATOM     18  H   UNL     1       6.660  -3.849  24.159  0.00  0.00    +0.123 HD
BRANCH  17  19
ATOM     19  C   UNL     1       7.089  -4.042  22.153  0.00  0.00    +0.048 C 
ATOM     20  C   UNL     1       5.764  -3.337  21.873  0.00  0.00    +0.023 C 
ATOM     21  C   UNL     1       6.958  -5.501  21.694  0.00  0.00    +0.023 C 
ENDBRANCH  17  19
ENDBRANCH  14  17
ENDBRANCH   1  14
TORSDOF 8
ENDMDL
MODEL 7
REMARK VINA RESULT:      -5.3      2.749      5.794
REMARK  Name = 
REMARK  11 active torsions:
REMARK  status: ('A' for Active; 'I' for Inactive)
REMARK    1  A    between atoms: C_1  and  C_2
REMARK    2  A    between atoms: C_2  and  C_3
REMARK    3  A    between atoms: C_3  and  N_4
REMARK    4  A    between atoms: C_3  and  C_8
REMARK    5  A    between atoms: N_4  and  C_5
REMARK    6  A    between atoms: C_5  and  C_6
REMARK    7  A    between atoms: C_5  and  C_7
REMARK    8  A    between atoms: C_8  and  O_9
REMARK    9  A    between atoms: C_8  and  C_10
REMARK   10  A    between atoms: C_12  and  O_13
REMARK   11  A    between atoms: C_14  and  O_15
REMARK                            x       y       z     vdW  Elec       q    Type
REMARK                         _______ _______ _______ _____ _____    ______ ____
ROOT
ATOM      1  C   UNL     1       8.619  -1.382  23.893  0.00  0.00    +0.161 C 
ENDROOT
BRANCH   1   2
ATOM      2  C   UNL     1       8.521  -2.611  24.786  0.00  0.00    -0.014 A 
ATOM      3  C   UNL     1       7.545  -2.650  25.799  0.00  0.00    +0.010 A 
ATOM      4  C   UNL     1       7.398  -3.773  26.627  0.00  0.00    +0.049 A 
ATOM      5  C   UNL     1       8.227  -4.865  26.427  0.00  0.00    +0.158 A 
ATOM      6  C   UNL     1       9.194  -4.850  25.430  0.00  0.00    +0.159 A 
ATOM      7  C   UNL     1       9.344  -3.739  24.609  0.00  0.00    +0.055 A 
BRANCH   5   8
ATOM      8  O   UNL     1       8.081  -5.968  27.218  0.00  0.00    -0.503 OA
ATOM      9  H   UNL     1       7.321  -6.445  26.826  0.00  0.00    +0.292 HD
ENDBRANCH   5   8
BRANCH   6  10
ATOM     10  O   UNL     1       9.987  -5.956  25.289  0.00  0.00    -0.503 OA
ATOM     11  H   UNL     1       9.878  -6.509  26.081  0.00  0.00    +0.292 HD
ENDBRANCH   6  10
ENDBRANCH   1   2
BRANCH   1  12
ATOM     12  O   UNL     1       9.660  -1.633  22.942  0.00  0.00    -0.386 OA
ATOM     13  H   UNL     1      10.396  -2.051  23.428  0.00  0.00    +0.210 HD
ENDBRANCH   1  12
BRANCH   1  14
ATOM     14  C   UNL     1       8.880  -0.010  24.623  0.00  0.00    +0.087 C 
BRANCH  14  16
ATOM     15  C   UNL     1      11.111   1.232  24.239  0.00  0.00    +0.005 C 
ATOM     16  C   UNL     1      10.373   0.139  25.002  0.00  0.00    +0.018 C 
ENDBRANCH  14  16
BRANCH  14  17
ATOM     17  N   UNL     1       8.267   1.165  23.967  0.00  0.00    -0.308 NA
ATOM     18  H   UNL     1       8.897   1.965  23.983  0.00  0.00    +0.123 HD
BRANCH  17  19
ATOM     19  C   UNL     1       7.685   0.991  22.632  0.00  0.00    +0.048 C 
ATOM     20  C   UNL     1       8.606   1.427  21.495  0.00  0.00    +0.023 C 
ATOM     21  C   UNL     1       6.409   1.844  22.564  0.00  0.00    +0.023 C 
ENDBRANCH  17  19
ENDBRANCH  14  17
ENDBRANCH   1  14
TORSDOF 8
ENDMDL
MODEL 8
REMARK VINA RESULT:      -5.2      2.791      5.659
REMARK  Name = 
REMARK  11 active torsions:
REMARK  status: ('A' for Active; 'I' for Inactive)
REMARK    1  A    between atoms: C_1  and  C_2
REMARK    2  A    between atoms: C_2  and  C_3
REMARK    3  A    between atoms: C_3  and  N_4
REMARK    4  A    between atoms: C_3  and  C_8
REMARK    5  A    between atoms: N_4  and  C_5
REMARK    6  A    between atoms: C_5  and  C_6
REMARK    7  A    between atoms: C_5  and  C_7
REMARK    8  A    between atoms: C_8  and  O_9
REMARK    9  A    between atoms: C_8  and  C_10
REMARK   10  A    between atoms: C_12  and  O_13
REMARK   11  A    between atoms: C_14  and  O_15
REMARK                            x       y       z     vdW  Elec       q    Type
REMARK                         _______ _______ _______ _____ _____    ______ ____
ROOT
ATOM      1  C   UNL     1       9.200  -1.197  21.799  0.00  0.00    +0.161 C 
ENDROOT
BRANCH   1   2
ATOM      2  C   UNL     1       8.354  -2.260  22.486  0.00  0.00    -0.014 A 
ATOM      3  C   UNL     1       8.879  -2.946  23.599  0.00  0.00    +0.010 A 
ATOM      4  C   UNL     1       8.126  -3.912  24.282  0.00  0.00    +0.049 A 
ATOM      5  C   UNL     1       6.837  -4.182  23.852  0.00  0.00    +0.158 A 
ATOM      6  C   UNL     1       6.297  -3.515  22.759  0.00  0.00    +0.159 A 
ATOM      7  C   UNL     1       7.041  -2.558  22.080  0.00  0.00    +0.055 A 
BRANCH   5   8
ATOM      8  O   UNL     1       6.091  -5.111  24.520  0.00  0.00    -0.503 OA
ATOM      9  H   UNL     1       5.194  -5.016  24.139  0.00  0.00    +0.292 HD
ENDBRANCH   5   8
BRANCH   6  10
ATOM     10  O   UNL     1       5.022  -3.833  22.380  0.00  0.00    -0.503 OA
ATOM     11  H   UNL     1       4.931  -4.800  22.407  0.00  0.00    +0.292 HD
ENDBRANCH   6  10
ENDBRANCH   1   2
BRANCH   1  12
ATOM     12  O   UNL     1      10.543  -1.691  21.753  0.00  0.00    -0.386 OA
ATOM     13  H   UNL     1      11.068  -1.149  22.371  0.00  0.00    +0.210 HD
ENDBRANCH   1  12
BRANCH   1  14
ATOM     14  C   UNL     1       9.178   0.238  22.451  0.00  0.00    +0.087 C 
BRANCH  14  16
ATOM     15  C   UNL     1      10.193   0.397  24.820  0.00  0.00    +0.005 C 
ATOM     16  C   UNL     1      10.440   0.469  23.318  0.00  0.00    +0.018 C 
ENDBRANCH  14  16
BRANCH  14  17
ATOM     17  N   UNL     1       8.833   1.334  21.521  0.00  0.00    -0.308 NA
ATOM     18  H   UNL     1       8.917   1.034  20.552  0.00  0.00    +0.123 HD
BRANCH  17  19
ATOM     19  C   UNL     1       7.571   2.053  21.733  0.00  0.00    +0.048 C 
ATOM     20  C   UNL     1       7.751   3.468  22.276  0.00  0.00    +0.023 C 
ATOM     21  C   UNL     1       6.743   1.254  22.750  0.00  0.00    +0.023 C 
ENDBRANCH  17  19
ENDBRANCH  14  17
ENDBRANCH   1  14
TORSDOF 8
ENDMDL
MODEL 9
REMARK VINA RESULT:      -5.2      2.686      5.968
REMARK  Name = 
REMARK  11 active torsions:
REMARK  status: ('A' for Active; 'I' for Inactive)
REMARK    1  A    between atoms: C_1  and  C_2
REMARK    2  A    between atoms: C_2  and  C_3
REMARK    3  A    between atoms: C_3  and  N_4
REMARK    4  A    between atoms: C_3  and  C_8
REMARK    5  A    between atoms: N_4  and  C_5
REMARK    6  A    between atoms: C_5  and  C_6
REMARK    7  A    between atoms: C_5  and  C_7
REMARK    8  A    between atoms: C_8  and  O_9
REMARK    9  A    between atoms: C_8  and  C_10
REMARK   10  A    between atoms: C_12  and  O_13
REMARK   11  A    between atoms: C_14  and  O_15
REMARK                            x       y       z     vdW  Elec       q    Type
REMARK                         _______ _______ _______ _____ _____    ______ ____
ROOT
ATOM      1  C   UNL     1       7.397  -2.259  23.312  0.00  0.00    +0.161 C 
ENDROOT
BRANCH   1   2
ATOM      2  C   UNL     1       7.590  -3.247  24.454  0.00  0.00    -0.014 A 
ATOM      3  C   UNL     1       6.689  -3.235  25.536  0.00  0.00    +0.010 A 
ATOM      4  C   UNL     1       6.810  -4.146  26.596  0.00  0.00    +0.049 A 
ATOM      5  C   UNL     1       7.832  -5.081  26.562  0.00  0.00    +0.158 A 
ATOM      6  C   UNL     1       8.730  -5.114  25.502  0.00  0.00    +0.159 A 
ATOM      7  C   UNL     1       8.614  -4.212  24.451  0.00  0.00    +0.055 A 
BRANCH   5   8
ATOM      8  O   UNL     1       7.948  -5.981  27.581  0.00  0.00    -0.503 OA
ATOM      9  H   UNL     1       7.615  -6.819  27.200  0.00  0.00    +0.292 HD
ENDBRANCH   5   8
BRANCH   6  10
ATOM     10  O   UNL     1       9.722  -6.055  25.531  0.00  0.00    -0.503 OA
ATOM     11  H   UNL     1      10.497  -5.691  25.072  0.00  0.00    +0.292 HD
ENDBRANCH   6  10
ENDBRANCH   1   2
BRANCH   1  12
ATOM     12  O   UNL     1       7.970  -2.851  22.141  0.00  0.00    -0.386 OA
ATOM     13  H   UNL     1       8.352  -3.707  22.411  0.00  0.00    +0.210 HD
ENDBRANCH   1  12
BRANCH   1  14
ATOM     14  C   UNL     1       7.994  -0.817  23.531  0.00  0.00    +0.087 C 
BRANCH  14  16
ATOM     15  C   UNL     1       7.340   0.448  25.685  0.00  0.00    +0.005 C 
ATOM     16  C   UNL     1       6.972   0.099  24.248  0.00  0.00    +0.018 C 
ENDBRANCH  14  16
BRANCH  14  17
ATOM     17  N   UNL     1       9.367  -0.793  24.077  0.00  0.00    -0.308 NA
ATOM     18  H   UNL     1       9.721  -1.736  24.225  0.00  0.00    +0.123 HD
BRANCH  17  19
ATOM     19  C   UNL     1      10.371   0.036  23.398  0.00  0.00    +0.048 C 
ATOM     20  C   UNL     1      10.648   1.365  24.097  0.00  0.00    +0.023 C 
ATOM     21  C   UNL     1       9.847   0.340  21.987  0.00  0.00    +0.023 C 
ENDBRANCH  17  19
ENDBRANCH  14  17
ENDBRANCH   1  14
TORSDOF 8
ENDMDL
