MODEL 1
REMARK VINA RESULT:      -7.9      0.000      0.000
REMARK  Name = 
REMARK  7 active torsions:
REMARK  status: ('A' for Active; 'I' for Inactive)
REMARK    1  A    between atoms: C_2  and  N_3
REMARK    2  A    between atoms: C_2  and  C_4
REMARK    3  A    between atoms: C_2  and  C_21
REMARK    4  A    between atoms: C_4  and  C_5
REMARK    5  A    between atoms: C_14  and  C_16
REMARK    6  A    between atoms: C_16  and  C_17
REMARK    7  A    between atoms: C_21  and  C_22
REMARK                            x       y       z     vdW  Elec       q    Type
REMARK                         _______ _______ _______ _____ _____    ______ ____
ROOT
ATOM      1  C   UNL     1       7.397  -2.096  23.584  0.00  0.00    +0.218 C 
ATOM      2  N   UNL     1       7.216  -3.246  24.366  0.00  0.00    -0.290 N 
ATOM      3  C   UNL     1       7.850  -4.557  24.048  0.00  0.00    +0.170 C 
ATOM      4  C   UNL     1       8.908  -4.933  25.098  0.00  0.00    +0.234 C 
ATOM      5  O   UNL     1      10.109  -4.918  24.832  0.00  0.00    -0.274 OA
ATOM      6  N   UNL     1       8.526  -5.276  26.359  0.00  0.00    -0.314 N 
ATOM      7  H   UNL     1       9.324  -5.458  26.959  0.00  0.00    +0.149 HD
ATOM      8  C   UNL     1       7.270  -4.959  26.998  0.00  0.00    +0.106 C 
ATOM      9  C   UNL     1       6.905  -3.492  26.856  0.00  0.00    +0.038 C 
ATOM     10  C   UNL     1       6.284  -3.157  25.499  0.00  0.00    +0.110 C 
ATOM     11  O   UNL     1       6.673  -1.107  23.700  0.00  0.00    -0.276 OA
ENDROOT
BRANCH   1  12
ATOM     12  C   UNL     1       8.547  -2.115  22.586  0.00  0.00    +0.114 C 
BRANCH  12  13
ATOM     13  C   UNL     1       9.861  -1.501  23.097  0.00  0.00    +0.064 C 
BRANCH  13  14
ATOM     14  N   UNL     1       9.601  -1.072  24.490  0.00  0.00    -0.327 NA
ATOM     15  H   UNL     1      10.307  -1.469  25.109  0.00  0.00    +0.118 HD
ATOM     16  H   UNL     1       9.730  -0.058  24.562  0.00  0.00    +0.118 HD
ENDBRANCH  13  14
BRANCH  13  17
ATOM     17  C   UNL     1      10.349  -0.325  22.216  0.00  0.00    +0.057 C 
BRANCH  17  18
ATOM     18  C   UNL     1       9.688   0.998  22.531  0.00  0.00    -0.008 A 
ATOM     19  C   UNL     1       8.514   1.392  21.869  0.00  0.00    +0.047 A 
ATOM     20  C   UNL     1       7.924   2.616  22.178  0.00  0.00    +0.159 A 
ATOM     21  F   UNL     1       6.797   2.980  21.551  0.00  0.00    -0.202 F 
ATOM     22  C   UNL     1       8.495   3.454  23.136  0.00  0.00    +0.161 A 
ATOM     23  F   UNL     1       7.919   4.628  23.428  0.00  0.00    -0.202 F 
ATOM     24  C   UNL     1       9.656   3.084  23.791  0.00  0.00    +0.080 A 
ATOM     25  C   UNL     1      10.241   1.860  23.489  0.00  0.00    +0.129 A 
ATOM     26  F   UNL     1      11.371   1.511  24.119  0.00  0.00    -0.205 F 
ENDBRANCH  17  18
ENDBRANCH  13  17
ENDBRANCH  12  13
ENDBRANCH   1  12
BRANCH   3  27
ATOM     27  C   UNL     1       6.842  -5.663  23.736  0.00  0.00    +0.145 C 
BRANCH  27  28
ATOM     28  C   UNL     1       6.595  -5.820  22.248  0.00  0.00    +0.392 C 
ATOM     29  F   UNL     1       5.338  -5.424  21.941  0.00  0.00    -0.171 F 
ATOM     30  F   UNL     1       6.707  -7.117  21.883  0.00  0.00    -0.171 F 
ATOM     31  F   UNL     1       7.438  -5.103  21.484  0.00  0.00    -0.171 F 
ENDBRANCH  27  28
ENDBRANCH   3  27
TORSDOF 7
ENDMDL
MODEL 2
REMARK VINA RESULT:      -7.7      0.995      1.553
REMARK  Name = 
REMARK  7 active torsions:
REMARK  status: ('A' for Active; 'I' for Inactive)
REMARK    1  A    between atoms: C_2  and  N_3
REMARK    2  A    between atoms: C_2  and  C_4
REMARK    3  A    between atoms: C_2  and  C_21
REMARK    4  A    between atoms: C_4  and  C_5
REMARK    5  A    between atoms: C_14  and  C_16
REMARK    6  A    between atoms: C_16  and  C_17
REMARK    7  A    between atoms: C_21  and  C_22
REMARK                            x       y       z     vdW  Elec       q    Type
REMARK                         _______ _______ _______ _____ _____    ______ ____
ROOT
ATOM      1  C   UNL     1       7.306  -2.060  23.843  0.00  0.00    +0.218 C 
ATOM      2  N   UNL     1       7.073  -3.323  24.406  0.00  0.00    -0.290 N 
ATOM      3  C   UNL     1       7.748  -4.565  23.932  0.00  0.00    +0.170 C 
ATOM      4  C   UNL     1       8.717  -5.112  24.992  0.00  0.00    +0.234 C 
ATOM      5  O   UNL     1       9.937  -5.055  24.835  0.00  0.00    -0.274 OA
ATOM      6  N   UNL     1       8.235  -5.657  26.142  0.00  0.00    -0.314 N 
ATOM      7  H   UNL     1       8.981  -5.937  26.770  0.00  0.00    +0.149 HD
ATOM      8  C   UNL     1       6.926  -5.447  26.715  0.00  0.00    +0.106 C 
ATOM      9  C   UNL     1       6.556  -3.975  26.787  0.00  0.00    +0.038 C 
ATOM     10  C   UNL     1       6.049  -3.420  25.455  0.00  0.00    +0.110 C 
ATOM     11  O   UNL     1       6.564  -1.102  24.058  0.00  0.00    -0.276 OA
ENDROOT
BRANCH   1  12
ATOM     12  C   UNL     1       8.536  -1.917  22.957  0.00  0.00    +0.114 C 
BRANCH  12  13
ATOM     13  C   UNL     1       9.828  -1.531  23.697  0.00  0.00    +0.064 C 
BRANCH  13  14
ATOM     14  N   UNL     1       9.436  -1.259  25.098  0.00  0.00    -0.327 NA
ATOM     15  H   UNL     1      10.032  -1.791  25.731  0.00  0.00    +0.118 HD
ATOM     16  H   UNL     1       9.628  -0.278  25.319  0.00  0.00    +0.118 HD
ENDBRANCH  13  14
BRANCH  13  17
ATOM     17  C   UNL     1      10.541  -0.315  23.054  0.00  0.00    +0.057 C 
BRANCH  17  18
ATOM     18  C   UNL     1       9.712   0.950  23.041  0.00  0.00    -0.008 A 
ATOM     19  C   UNL     1       9.649   1.780  24.170  0.00  0.00    +0.047 A 
ATOM     20  C   UNL     1       8.879   2.941  24.133  0.00  0.00    +0.159 A 
ATOM     21  F   UNL     1       8.833   3.737  25.210  0.00  0.00    -0.202 F 
ATOM     22  C   UNL     1       8.166   3.279  22.982  0.00  0.00    +0.161 A 
ATOM     23  F   UNL     1       7.429   4.398  22.954  0.00  0.00    -0.202 F 
ATOM     24  C   UNL     1       8.211   2.465  21.864  0.00  0.00    +0.080 A 
ATOM     25  C   UNL     1       8.985   1.311  21.898  0.00  0.00    +0.129 A 
ATOM     26  F   UNL     1       9.017   0.522  20.816  0.00  0.00    -0.205 F 
ENDBRANCH  17  18
ENDBRANCH  13  17
ENDBRANCH  12  13
ENDBRANCH   1  12
BRANCH   3  27
ATOM     27  C   UNL     1       6.783  -5.602  23.358  0.00  0.00    +0.145 C 
BRANCH  27  28
ATOM     28  C   UNL     1       6.555  -5.421  21.869  0.00  0.00    +0.392 C 
ATOM     29  F   UNL     1       5.420  -6.053  21.492  0.00  0.00    -0.171 F 
ATOM     30  F   UNL     1       7.571  -5.966  21.164  0.00  0.00    -0.171 F 
ATOM     31  F   UNL     1       6.439  -4.135  21.496  0.00  0.00    -0.171 F 
ENDBRANCH  27  28
ENDBRANCH   3  27
TORSDOF 7
ENDMDL
MODEL 3
REMARK VINA RESULT:      -7.7      1.737      2.406
REMARK  Name = 
REMARK  7 active torsions:
REMARK  status: ('A' for Active; 'I' for Inactive)
REMARK    1  A    between atoms: C_2  and  N_3
REMARK    2  A    between atoms: C_2  and  C_4
REMARK    3  A    between atoms: C_2  and  C_21
REMARK    4  A    between atoms: C_4  and  C_5
REMARK    5  A    between atoms: C_14  and  C_16
REMARK    6  A    between atoms: C_16  and  C_17
REMARK    7  A    between atoms: C_21  and  C_22
REMARK                            x       y       z     vdW  Elec       q    Type
REMARK                         _______ _______ _______ _____ _____    ______ ____
ROOT
ATOM      1  C   UNL     1       5.781  -2.360  24.292  0.00  0.00    +0.218 C 
ATOM      2  N   UNL     1       6.610  -3.454  24.577  0.00  0.00    -0.290 N 
ATOM      3  C   UNL     1       7.728  -3.884  23.690  0.00  0.00    +0.170 C 
ATOM      4  C   UNL     1       9.092  -3.647  24.357  0.00  0.00    +0.234 C 
ATOM      5  O   UNL     1       9.855  -2.767  23.962  0.00  0.00    -0.274 OA
ATOM      6  N   UNL     1       9.472  -4.406  25.422  0.00  0.00    -0.314 N 
ATOM      7  H   UNL     1      10.372  -4.116  25.791  0.00  0.00    +0.149 HD
ATOM      8  C   UNL     1       8.608  -5.165  26.295  0.00  0.00    +0.106 C 
ATOM      9  C   UNL     1       7.426  -4.348  26.790  0.00  0.00    +0.038 C 
ATOM     10  C   UNL     1       6.292  -4.255  25.768  0.00  0.00    +0.110 C 
ATOM     11  O   UNL     1       4.716  -2.176  24.881  0.00  0.00    -0.276 OA
ENDROOT
BRANCH   1  12
ATOM     12  C   UNL     1       6.264  -1.389  23.223  0.00  0.00    +0.114 C 
BRANCH  12  13
ATOM     13  C   UNL     1       6.629   0.014  23.736  0.00  0.00    +0.064 C 
BRANCH  13  14
ATOM     14  N   UNL     1       5.454   0.493  24.498  0.00  0.00    -0.327 NA
ATOM     15  H   UNL     1       4.658   0.601  23.870  0.00  0.00    +0.118 HD
ATOM     16  H   UNL     1       5.165  -0.228  25.166  0.00  0.00    +0.118 HD
ENDBRANCH  13  14
BRANCH  13  17
ATOM     17  C   UNL     1       7.005   0.986  22.592  0.00  0.00    +0.057 C 
BRANCH  17  18
ATOM     18  C   UNL     1       8.266   1.781  22.847  0.00  0.00    -0.008 A 
ATOM     19  C   UNL     1       8.274   2.842  23.765  0.00  0.00    +0.047 A 
ATOM     20  C   UNL     1       9.450   3.559  23.982  0.00  0.00    +0.159 A 
ATOM     21  F   UNL     1       9.455   4.563  24.868  0.00  0.00    -0.202 F 
ATOM     22  C   UNL     1      10.615   3.231  23.289  0.00  0.00    +0.161 A 
ATOM     23  F   UNL     1      11.742   3.925  23.506  0.00  0.00    -0.202 F 
ATOM     24  C   UNL     1      10.621   2.193  22.375  0.00  0.00    +0.080 A 
ATOM     25  C   UNL     1       9.450   1.473  22.163  0.00  0.00    +0.129 A 
ATOM     26  F   UNL     1       9.459   0.475  21.268  0.00  0.00    -0.205 F 
ENDBRANCH  17  18
ENDBRANCH  13  17
ENDBRANCH  12  13
ENDBRANCH   1  12
BRANCH   3  27
ATOM     27  C   UNL     1       7.541  -5.285  23.107  0.00  0.00    +0.145 C 
BRANCH  27  28
ATOM     28  C   UNL     1       6.607  -5.295  21.912  0.00  0.00    +0.392 C 
ATOM     29  F   UNL     1       6.490  -4.048  21.402  0.00  0.00    -0.171 F 
ATOM     30  F   UNL     1       5.369  -5.695  22.281  0.00  0.00    -0.171 F 
ATOM     31  F   UNL     1       7.018  -6.099  20.915  0.00  0.00    -0.171 F 
ENDBRANCH  27  28
ENDBRANCH   3  27
TORSDOF 7
ENDMDL
MODEL 4
REMARK VINA RESULT:      -7.3      3.059      4.395
REMARK  Name = 
REMARK  7 active torsions:
REMARK  status: ('A' for Active; 'I' for Inactive)
REMARK    1  A    between atoms: C_2  and  N_3
REMARK    2  A    between atoms: C_2  and  C_4
REMARK    3  A    between atoms: C_2  and  C_21
REMARK    4  A    between atoms: C_4  and  C_5
REMARK    5  A    between atoms: C_14  and  C_16
REMARK    6  A    between atoms: C_16  and  C_17
REMARK    7  A    between atoms: C_21  and  C_22
REMARK                            x       y       z     vdW  Elec       q    Type
REMARK                         _______ _______ _______ _____ _____    ______ ____
ROOT
ATOM      1  C   UNL     1       7.036  -5.237  25.540  0.00  0.00    +0.218 C 
ATOM      2  N   UNL     1       5.674  -4.906  25.598  0.00  0.00    -0.290 N 
ATOM      3  C   UNL     1       5.022  -3.964  24.644  0.00  0.00    +0.170 C 
ATOM      4  C   UNL     1       4.026  -4.696  23.731  0.00  0.00    +0.234 C 
ATOM      5  O   UNL     1       4.259  -4.869  22.535  0.00  0.00    -0.274 OA
ATOM      6  N   UNL     1       2.864  -5.187  24.244  0.00  0.00    -0.314 N 
ATOM      7  H   UNL     1       2.321  -5.684  23.544  0.00  0.00    +0.149 HD
ATOM      8  C   UNL     1       2.586  -5.478  25.631  0.00  0.00    +0.106 C 
ATOM      9  C   UNL     1       3.686  -6.300  26.280  0.00  0.00    +0.038 C 
ATOM     10  C   UNL     1       4.888  -5.458  26.710  0.00  0.00    +0.110 C 
ATOM     11  O   UNL     1       7.612  -5.797  26.473  0.00  0.00    -0.276 OA
ENDROOT
BRANCH   1  12
ATOM     12  C   UNL     1       7.777  -4.885  24.257  0.00  0.00    +0.114 C 
BRANCH  12  13
ATOM     13  C   UNL     1       9.132  -4.188  24.460  0.00  0.00    +0.064 C 
BRANCH  13  14
ATOM     14  N   UNL     1      10.028  -5.196  25.069  0.00  0.00    -0.327 NA
ATOM     15  H   UNL     1      10.525  -5.701  24.336  0.00  0.00    +0.118 HD
ATOM     16  H   UNL     1      10.761  -4.721  25.603  0.00  0.00    +0.118 HD
ENDBRANCH  13  14
BRANCH  13  17
ATOM     17  C   UNL     1       9.021  -2.916  25.338  0.00  0.00    +0.057 C 
BRANCH  17  18
ATOM     18  C   UNL     1       9.382  -1.636  24.619  0.00  0.00    -0.008 A 
ATOM     19  C   UNL     1       9.584  -1.624  23.230  0.00  0.00    +0.047 A 
ATOM     20  C   UNL     1       9.916  -0.430  22.591  0.00  0.00    +0.159 A 
ATOM     21  F   UNL     1      10.096  -0.422  21.264  0.00  0.00    -0.202 F 
ATOM     22  C   UNL     1      10.054   0.749  23.324  0.00  0.00    +0.161 A 
ATOM     23  F   UNL     1      10.371   1.892  22.700  0.00  0.00    -0.202 F 
ATOM     24  C   UNL     1       9.866   0.751  24.694  0.00  0.00    +0.080 A 
ATOM     25  C   UNL     1       9.527  -0.437  25.331  0.00  0.00    +0.129 A 
ATOM     26  F   UNL     1       9.356  -0.432  26.661  0.00  0.00    -0.205 F 
ENDBRANCH  17  18
ENDBRANCH  13  17
ENDBRANCH  12  13
ENDBRANCH   1  12
BRANCH   3  27
ATOM     27  C   UNL     1       4.466  -2.707  25.313  0.00  0.00    +0.145 C 
BRANCH  27  28
ATOM     28  C   UNL     1       5.494  -1.595  25.401  0.00  0.00    +0.392 C 
ATOM     29  F   UNL     1       4.879  -0.411  25.627  0.00  0.00    -0.171 F 
ATOM     30  F   UNL     1       6.169  -1.479  24.236  0.00  0.00    -0.171 F 
ATOM     31  F   UNL     1       6.395  -1.772  26.383  0.00  0.00    -0.171 F 
ENDBRANCH  27  28
ENDBRANCH   3  27
TORSDOF 7
ENDMDL
MODEL 5
REMARK VINA RESULT:      -7.3      2.414      3.506
REMARK  Name = 
REMARK  7 active torsions:
REMARK  status: ('A' for Active; 'I' for Inactive)
REMARK    1  A    between atoms: C_2  and  N_3
REMARK    2  A    between atoms: C_2  and  C_4
REMARK    3  A    between atoms: C_2  and  C_21
REMARK    4  A    between atoms: C_4  and  C_5
REMARK    5  A    between atoms: C_14  and  C_16
REMARK    6  A    between atoms: C_16  and  C_17
REMARK    7  A    between atoms: C_21  and  C_22
REMARK                            x       y       z     vdW  Elec       q    Type
REMARK                         _______ _______ _______ _____ _____    ______ ____
ROOT
ATOM      1  C   UNL     1       8.461  -2.328  23.682  0.00  0.00    +0.218 C 
ATOM      2  N   UNL     1       7.484  -3.332  23.750  0.00  0.00    -0.290 N 
ATOM      3  C   UNL     1       6.545  -3.480  24.897  0.00  0.00    +0.170 C 
ATOM      4  C   UNL     1       5.100  -3.161  24.480  0.00  0.00    +0.234 C 
ATOM      5  O   UNL     1       4.532  -2.141  24.867  0.00  0.00    -0.274 OA
ATOM      6  N   UNL     1       4.427  -4.006  23.651  0.00  0.00    -0.314 N 
ATOM      7  H   UNL     1       3.503  -3.654  23.422  0.00  0.00    +0.149 HD
ATOM      8  C   UNL     1       5.004  -4.988  22.763  0.00  0.00    +0.106 C 
ATOM      9  C   UNL     1       6.128  -4.413  21.918  0.00  0.00    +0.038 C 
ATOM     10  C   UNL     1       7.458  -4.328  22.669  0.00  0.00    +0.110 C 
ATOM     11  O   UNL     1       9.388  -2.372  22.874  0.00  0.00    -0.276 OA
ENDROOT
BRANCH   1  12
ATOM     12  C   UNL     1       8.318  -1.161  24.650  0.00  0.00    +0.114 C 
BRANCH  12  13
ATOM     13  C   UNL     1       9.598  -0.797  25.422  0.00  0.00    +0.064 C 
BRANCH  13  14
ATOM     14  N   UNL     1       9.166  -0.431  26.789  0.00  0.00    -0.327 NA
ATOM     15  H   UNL     1       9.934  -0.578  27.442  0.00  0.00    +0.118 HD
ATOM     16  H   UNL     1       8.976   0.574  26.827  0.00  0.00    +0.118 HD
ENDBRANCH  13  14
BRANCH  13  17
ATOM     17  C   UNL     1      10.394   0.347  24.746  0.00  0.00    +0.057 C 
BRANCH  17  18
ATOM     18  C   UNL     1       9.534   1.332  23.987  0.00  0.00    -0.008 A 
ATOM     19  C   UNL     1       8.767   2.291  24.667  0.00  0.00    +0.047 A 
ATOM     20  C   UNL     1       7.983   3.188  23.943  0.00  0.00    +0.159 A 
ATOM     21  F   UNL     1       7.262   4.108  24.597  0.00  0.00    -0.202 F 
ATOM     22  C   UNL     1       7.953   3.135  22.550  0.00  0.00    +0.161 A 
ATOM     23  F   UNL     1       7.197   4.004  21.862  0.00  0.00    -0.202 F 
ATOM     24  C   UNL     1       8.697   2.191  21.866  0.00  0.00    +0.080 A 
ATOM     25  C   UNL     1       9.484   1.300  22.586  0.00  0.00    +0.129 A 
ATOM     26  F   UNL     1      10.195   0.380  21.919  0.00  0.00    -0.205 F 
ENDBRANCH  17  18
ENDBRANCH  13  17
ENDBRANCH  12  13
ENDBRANCH   1  12
BRANCH   3  27
ATOM     27  C   UNL     1       6.711  -4.798  25.656  0.00  0.00    +0.145 C 
BRANCH  27  28
ATOM     28  C   UNL     1       8.012  -4.860  26.432  0.00  0.00    +0.392 C 
ATOM     29  F   UNL     1       8.985  -5.404  25.666  0.00  0.00    -0.171 F 
ATOM     30  F   UNL     1       7.876  -5.644  27.525  0.00  0.00    -0.171 F 
ATOM     31  F   UNL     1       8.452  -3.657  26.841  0.00  0.00    -0.171 F 
ENDBRANCH  27  28
ENDBRANCH   3  27
TORSDOF 7
ENDMDL
MODEL 6
REMARK VINA RESULT:      -7.3      1.854      2.337
REMARK  Name = 
REMARK  7 active torsions:
REMARK  status: ('A' for Active; 'I' for Inactive)
REMARK    1  A    between atoms: C_2  and  N_3
REMARK    2  A    between atoms: C_2  and  C_4
REMARK    3  A    between atoms: C_2  and  C_21
REMARK    4  A    between atoms: C_4  and  C_5
REMARK    5  A    between atoms: C_14  and  C_16
REMARK    6  A    between atoms: C_16  and  C_17
REMARK    7  A    between atoms: C_21  and  C_22
REMARK                            x       y       z     vdW  Elec       q    Type
REMARK                         _______ _______ _______ _____ _____    ______ ____
ROOT
ATOM      1  C   UNL     1       6.921  -2.097  25.323  0.00  0.00    +0.218 C 
ATOM      2  N   UNL     1       6.126  -3.249  25.234  0.00  0.00    -0.290 N 
ATOM      3  C   UNL     1       6.679  -4.600  24.930  0.00  0.00    +0.170 C 
ATOM      4  C   UNL     1       6.563  -5.536  26.143  0.00  0.00    +0.234 C 
ATOM      5  O   UNL     1       7.556  -5.885  26.781  0.00  0.00    -0.274 OA
ATOM      6  N   UNL     1       5.342  -5.983  26.546  0.00  0.00    -0.314 N 
ATOM      7  H   UNL     1       5.405  -6.555  27.382  0.00  0.00    +0.149 HD
ATOM      8  C   UNL     1       4.060  -5.391  26.240  0.00  0.00    +0.106 C 
ATOM      9  C   UNL     1       4.041  -3.894  26.497  0.00  0.00    +0.038 C 
ATOM     10  C   UNL     1       4.672  -3.083  25.364  0.00  0.00    +0.110 C 
ATOM     11  O   UNL     1       6.435  -0.966  25.311  0.00  0.00    -0.276 OA
ENDROOT
BRANCH   1  12
ATOM     12  C   UNL     1       8.424  -2.305  25.451  0.00  0.00    +0.114 C 
BRANCH  12  13
ATOM     13  C   UNL     1       9.229  -2.029  24.170  0.00  0.00    +0.064 C 
BRANCH  13  14
ATOM     14  N   UNL     1      10.071  -3.225  23.945  0.00  0.00    -0.327 NA
ATOM     15  H   UNL     1       9.928  -3.572  22.998  0.00  0.00    +0.118 HD
ATOM     16  H   UNL     1      11.058  -2.957  23.981  0.00  0.00    +0.118 HD
ENDBRANCH  13  14
BRANCH  13  17
ATOM     17  C   UNL     1      10.081  -0.739  24.270  0.00  0.00    +0.057 C 
BRANCH  17  18
ATOM     18  C   UNL     1       9.435   0.477  23.646  0.00  0.00    -0.008 A 
ATOM     19  C   UNL     1       8.837   1.464  24.445  0.00  0.00    +0.047 A 
ATOM     20  C   UNL     1       8.249   2.576  23.844  0.00  0.00    +0.159 A 
ATOM     21  F   UNL     1       7.691   3.521  24.613  0.00  0.00    -0.202 F 
ATOM     22  C   UNL     1       8.247   2.711  22.456  0.00  0.00    +0.161 A 
ATOM     23  F   UNL     1       7.680   3.785  21.888  0.00  0.00    -0.202 F 
ATOM     24  C   UNL     1       8.824   1.742  21.655  0.00  0.00    +0.080 A 
ATOM     25  C   UNL     1       9.418   0.637  22.253  0.00  0.00    +0.129 A 
ATOM     26  F   UNL     1       9.967  -0.304  21.472  0.00  0.00    -0.205 F 
ENDBRANCH  17  18
ENDBRANCH  13  17
ENDBRANCH  12  13
ENDBRANCH   1  12
BRANCH   3  27
ATOM     27  C   UNL     1       6.159  -5.191  23.619  0.00  0.00    +0.145 C 
BRANCH  27  28
ATOM     28  C   UNL     1       7.258  -5.374  22.589  0.00  0.00    +0.392 C 
ATOM     29  F   UNL     1       8.359  -5.901  23.172  0.00  0.00    -0.171 F 
ATOM     30  F   UNL     1       7.616  -4.182  22.061  0.00  0.00    -0.171 F 
ATOM     31  F   UNL     1       6.914  -6.186  21.575  0.00  0.00    -0.171 F 
ENDBRANCH  27  28
ENDBRANCH   3  27
TORSDOF 7
ENDMDL
MODEL 7
REMARK VINA RESULT:      -7.3      2.697      3.829
REMARK  Name = 
REMARK  7 active torsions:
REMARK  status: ('A' for Active; 'I' for Inactive)
REMARK    1  A    between atoms: C_2  and  N_3
REMARK    2  A    between atoms: C_2  and  C_4
REMARK    3  A    between atoms: C_2  and  C_21
REMARK    4  A    between atoms: C_4  and  C_5
REMARK    5  A    between atoms: C_14  and  C_16
REMARK    6  A    between atoms: C_16  and  C_17
REMARK    7  A    between atoms: C_21  and  C_22
REMARK                            x       y       z     vdW  Elec       q    Type
REMARK                         _______ _______ _______ _____ _____    ______ ____
ROOT
ATOM      1  C   UNL     1       5.574  -3.091  25.792  0.00  0.00    +0.218 C 
ATOM      2  N   UNL     1       4.953  -4.135  25.091  0.00  0.00    -0.290 N 
ATOM      3  C   UNL     1       5.569  -5.481  24.919  0.00  0.00    +0.170 C 
ATOM      4  C   UNL     1       4.789  -6.555  25.693  0.00  0.00    +0.234 C 
ATOM      5  O   UNL     1       5.255  -7.084  26.702  0.00  0.00    -0.274 OA
ATOM      6  N   UNL     1       3.546  -6.927  25.280  0.00  0.00    -0.314 N 
ATOM      7  H   UNL     1       3.128  -7.609  25.904  0.00  0.00    +0.149 HD
ATOM      8  C   UNL     1       2.657  -6.172  24.427  0.00  0.00    +0.106 C 
ATOM      9  C   UNL     1       2.512  -4.729  24.877  0.00  0.00    +0.038 C 
ATOM     10  C   UNL     1       3.675  -3.842  24.429  0.00  0.00    +0.110 C 
ATOM     11  O   UNL     1       5.187  -1.925  25.706  0.00  0.00    -0.276 OA
ENDROOT
BRANCH   1  12
ATOM     12  C   UNL     1       6.749  -3.464  26.686  0.00  0.00    +0.114 C 
BRANCH  12  13
ATOM     13  C   UNL     1       8.126  -3.410  26.004  0.00  0.00    +0.064 C 
BRANCH  13  14
ATOM     14  N   UNL     1       9.011  -4.300  26.788  0.00  0.00    -0.327 NA
ATOM     15  H   UNL     1       8.521  -4.625  27.621  0.00  0.00    +0.118 HD
ATOM     16  H   UNL     1       9.203  -5.149  26.248  0.00  0.00    +0.118 HD
ENDBRANCH  13  14
BRANCH  13  17
ATOM     17  C   UNL     1       8.692  -1.970  25.920  0.00  0.00    +0.057 C 
BRANCH  17  18
ATOM     18  C   UNL     1       8.831  -1.444  24.509  0.00  0.00    -0.008 A 
ATOM     19  C   UNL     1       8.061  -0.357  24.068  0.00  0.00    +0.047 A 
ATOM     20  C   UNL     1       8.209   0.110  22.763  0.00  0.00    +0.159 A 
ATOM     21  F   UNL     1       7.480   1.156  22.351  0.00  0.00    -0.202 F 
ATOM     22  C   UNL     1       9.113  -0.499  21.893  0.00  0.00    +0.161 A 
ATOM     23  F   UNL     1       9.249  -0.042  20.640  0.00  0.00    -0.202 F 
ATOM     24  C   UNL     1       9.873  -1.577  22.311  0.00  0.00    +0.080 A 
ATOM     25  C   UNL     1       9.731  -2.038  23.614  0.00  0.00    +0.129 A 
ATOM     26  F   UNL     1      10.463  -3.090  24.011  0.00  0.00    -0.205 F 
ENDBRANCH  17  18
ENDBRANCH  13  17
ENDBRANCH  12  13
ENDBRANCH   1  12
BRANCH   3  27
ATOM     27  C   UNL     1       5.862  -5.836  23.461  0.00  0.00    +0.145 C 
BRANCH  27  28
ATOM     28  C   UNL     1       7.170  -5.244  22.971  0.00  0.00    +0.392 C 
ATOM     29  F   UNL     1       8.165  -5.531  23.841  0.00  0.00    -0.171 F 
ATOM     30  F   UNL     1       7.081  -3.897  22.895  0.00  0.00    -0.171 F 
ATOM     31  F   UNL     1       7.549  -5.700  21.765  0.00  0.00    -0.171 F 
ENDBRANCH  27  28
ENDBRANCH   3  27
TORSDOF 7
ENDMDL
MODEL 8
REMARK VINA RESULT:      -7.3      2.318      4.138
REMARK  Name = 
REMARK  7 active torsions:
REMARK  status: ('A' for Active; 'I' for Inactive)
REMARK    1  A    between atoms: C_2  and  N_3
REMARK    2  A    between atoms: C_2  and  C_4
REMARK    3  A    between atoms: C_2  and  C_21
REMARK    4  A    between atoms: C_4  and  C_5
REMARK    5  A    between atoms: C_14  and  C_16
REMARK    6  A    between atoms: C_16  and  C_17
REMARK    7  A    between atoms: C_21  and  C_22
REMARK                            x       y       z     vdW  Elec       q    Type
REMARK                         _______ _______ _______ _____ _____    ______ ____
ROOT
ATOM      1  C   UNL     1       8.463  -5.053  24.956  0.00  0.00    +0.218 C 
ATOM      2  N   UNL     1       7.404  -5.259  24.060  0.00  0.00    -0.290 N 
ATOM      3  C   UNL     1       6.039  -4.694  24.268  0.00  0.00    +0.170 C 
ATOM      4  C   UNL     1       5.715  -3.620  23.218  0.00  0.00    +0.234 C 
ATOM      5  O   UNL     1       5.648  -2.429  23.519  0.00  0.00    -0.274 OA
ATOM      6  N   UNL     1       5.513  -3.974  21.919  0.00  0.00    -0.314 N 
ATOM      7  H   UNL     1       5.352  -3.165  21.327  0.00  0.00    +0.149 HD
ATOM      8  C   UNL     1       5.950  -5.192  21.277  0.00  0.00    +0.106 C 
ATOM      9  C   UNL     1       7.413  -5.496  21.550  0.00  0.00    +0.038 C 
ATOM     10  C   UNL     1       7.645  -6.146  22.914  0.00  0.00    +0.110 C 
ATOM     11  O   UNL     1       9.492  -5.727  24.915  0.00  0.00    -0.276 OA
ENDROOT
BRANCH   1  12
ATOM     12  C   UNL     1       8.293  -3.939  25.980  0.00  0.00    +0.114 C 
BRANCH  12  13
ATOM     13  C   UNL     1       8.821  -2.564  25.539  0.00  0.00    +0.064 C 
BRANCH  13  14
ATOM     14  N   UNL     1       7.644  -1.670  25.475  0.00  0.00    -0.327 NA
ATOM     15  H   UNL     1       7.825  -0.910  24.820  0.00  0.00    +0.118 HD
ATOM     16  H   UNL     1       6.852  -2.180  25.074  0.00  0.00    +0.118 HD
ENDBRANCH  13  14
BRANCH  13  17
ATOM     17  C   UNL     1       9.570  -2.623  24.184  0.00  0.00    +0.057 C 
BRANCH  17  18
ATOM     18  C   UNL     1       9.732  -1.279  23.510  0.00  0.00    -0.008 A 
ATOM     19  C   UNL     1      10.404  -0.228  24.152  0.00  0.00    +0.047 A 
ATOM     20  C   UNL     1      10.540   1.001  23.509  0.00  0.00    +0.159 A 
ATOM     21  F   UNL     1      11.193   1.997  24.122  0.00  0.00    -0.202 F 
ATOM     22  C   UNL     1      10.008   1.193  22.233  0.00  0.00    +0.161 A 
ATOM     23  F   UNL     1      10.146   2.378  21.622  0.00  0.00    -0.202 F 
ATOM     24  C   UNL     1       9.336   0.170  21.591  0.00  0.00    +0.080 A 
ATOM     25  C   UNL     1       9.206  -1.059  22.229  0.00  0.00    +0.129 A 
ATOM     26  F   UNL     1       8.545  -2.044  21.606  0.00  0.00    -0.205 F 
ENDBRANCH  17  18
ENDBRANCH  13  17
ENDBRANCH  12  13
ENDBRANCH   1  12
BRANCH   3  27
ATOM     27  C   UNL     1       4.958  -5.761  24.440  0.00  0.00    +0.145 C 
BRANCH  27  28
ATOM     28  C   UNL     1       4.750  -6.147  25.892  0.00  0.00    +0.392 C 
ATOM     29  F   UNL     1       3.956  -7.239  25.975  0.00  0.00    -0.171 F 
ATOM     30  F   UNL     1       4.131  -5.150  26.564  0.00  0.00    -0.171 F 
ATOM     31  F   UNL     1       5.892  -6.432  26.542  0.00  0.00    -0.171 F 
ENDBRANCH  27  28
ENDBRANCH   3  27
TORSDOF 7
ENDMDL
MODEL 9
REMARK VINA RESULT:      -7.2      2.160      2.766
REMARK  Name = 
REMARK  7 active torsions:
REMARK  status: ('A' for Active; 'I' for Inactive)
REMARK    1  A    between atoms: C_2  and  N_3
REMARK    2  A    between atoms: C_2  and  C_4
REMARK    3  A    between atoms: C_2  and  C_21
REMARK    4  A    between atoms: C_4  and  C_5
REMARK    5  A    between atoms: C_14  and  C_16
REMARK    6  A    between atoms: C_16  and  C_17
REMARK    7  A    between atoms: C_21  and  C_22
REMARK                            x       y       z     vdW  Elec       q    Type
REMARK                         _______ _______ _______ _____ _____    ______ ____
ROOT
ATOM      1  C   UNL     1       7.538  -2.279  23.090  0.00  0.00    +0.218 C 
ATOM      2  N   UNL     1       7.124  -2.931  24.260  0.00  0.00    -0.290 N 
ATOM      3  C   UNL     1       7.808  -2.762  25.574  0.00  0.00    +0.170 C 
ATOM      4  C   UNL     1       6.912  -2.021  26.579  0.00  0.00    +0.234 C 
ATOM      5  O   UNL     1       7.160  -0.868  26.930  0.00  0.00    -0.274 OA
ATOM      6  N   UNL     1       5.805  -2.630  27.086  0.00  0.00    -0.314 N 
ATOM      7  H   UNL     1       5.282  -2.014  27.700  0.00  0.00    +0.149 HD
ATOM      8  C   UNL     1       5.103  -3.758  26.518  0.00  0.00    +0.106 C 
ATOM      9  C   UNL     1       4.812  -3.572  25.039  0.00  0.00    +0.038 C 
ATOM     10  C   UNL     1       6.014  -3.888  24.148  0.00  0.00    +0.110 C 
ATOM     11  O   UNL     1       7.140  -2.620  21.976  0.00  0.00    -0.276 OA
ENDROOT
BRANCH   1  12
ATOM     12  C   UNL     1       8.497  -1.108  23.257  0.00  0.00    +0.114 C 
BRANCH  12  13
ATOM     13  C   UNL     1       9.185  -0.643  21.962  0.00  0.00    +0.064 C 
BRANCH  13  14
ATOM     14  N   UNL     1      10.036  -1.770  21.519  0.00  0.00    -0.327 NA
ATOM     15  H   UNL     1      10.978  -1.433  21.325  0.00  0.00    +0.118 HD
ATOM     16  H   UNL     1      10.148  -2.434  22.290  0.00  0.00    +0.118 HD
ENDBRANCH  13  14
BRANCH  13  17
ATOM     17  C   UNL     1      10.008   0.654  22.158  0.00  0.00    +0.057 C 
BRANCH  17  18
ATOM     18  C   UNL     1       9.223   1.797  22.763  0.00  0.00    -0.008 A 
ATOM     19  C   UNL     1       8.226   2.454  22.025  0.00  0.00    +0.047 A 
ATOM     20  C   UNL     1       7.517   3.504  22.605  0.00  0.00    +0.159 A 
ATOM     21  F   UNL     1       6.558   4.121  21.901  0.00  0.00    -0.202 F 
ATOM     22  C   UNL     1       7.796   3.909  23.911  0.00  0.00    +0.161 A 
ATOM     23  F   UNL     1       7.107   4.919  24.462  0.00  0.00    -0.202 F 
ATOM     24  C   UNL     1       8.781   3.276  24.648  0.00  0.00    +0.080 A 
ATOM     25  C   UNL     1       9.484   2.224  24.072  0.00  0.00    +0.129 A 
ATOM     26  F   UNL     1      10.445   1.621  24.787  0.00  0.00    -0.205 F 
ENDBRANCH  17  18
ENDBRANCH  13  17
ENDBRANCH  12  13
ENDBRANCH   1  12
BRANCH   3  27
ATOM     27  C   UNL     1       8.429  -4.053  26.109  0.00  0.00    +0.145 C 
BRANCH  27  28
ATOM     28  C   UNL     1       9.518  -4.592  25.202  0.00  0.00    +0.392 C 
ATOM     29  F   UNL     1       8.996  -5.479  24.324  0.00  0.00    -0.171 F 
ATOM     30  F   UNL     1      10.456  -5.246  25.923  0.00  0.00    -0.171 F 
ATOM     31  F   UNL     1      10.141  -3.640  24.485  0.00  0.00    -0.171 F 
ENDBRANCH  27  28
ENDBRANCH   3  27
TORSDOF 7
ENDMDL
