MODEL 1
REMARK VINA RESULT:      -7.4      0.000      0.000
REMARK  Name = 
REMARK  10 active torsions:
REMARK  status: ('A' for Active; 'I' for Inactive)
REMARK    1  A    between atoms: C_1  and  C_2
REMARK    2  A    between atoms: C_3  and  N_4
REMARK    3  A    between atoms: C_8  and  C_10
REMARK    4  A    between atoms: C_21  and  O_22
REMARK    5  A    between atoms: O_22  and  C_23
REMARK    6  A    between atoms: C_23  and  C_24
REMARK    7  A    between atoms: C_24  and  C_25
REMARK    8  A    between atoms: C_25  and  C_26
REMARK    9  A    between atoms: C_26  and  C_27
REMARK   10  A    between atoms: C_27  and  O_28
REMARK                            x       y       z     vdW  Elec       q    Type
REMARK                         _______ _______ _______ _____ _____    ______ ____
ROOT
ATOM      1  C   UNL     1       7.059   1.393  22.731  0.00  0.00    +0.049 C 
ATOM      2  C   UNL     1       8.392   1.240  23.417  0.00  0.00    +0.012 A 
ATOM      3  C   UNL     1       9.221   2.363  23.650  0.00  0.00    +0.125 A 
ATOM      4  C   UNL     1      10.532   2.146  24.120  0.00  0.00    +0.046 A 
ATOM      5  C   UNL     1      11.016   0.869  24.385  0.00  0.00    +0.005 A 
ATOM      6  C   UNL     1      10.189  -0.226  24.212  0.00  0.00    +0.024 A 
ATOM      7  C   UNL     1       8.882  -0.050  23.751  0.00  0.00    +0.041 A 
ENDROOT
BRANCH   7   8
ATOM      8  N   UNL     1       8.027  -1.165  23.707  0.00  0.00    -0.269 N 
ATOM      9  H   UNL     1       7.263  -1.196  24.377  0.00  0.00    +0.156 HD
ATOM     10  C   UNL     1       8.043  -2.165  22.768  0.00  0.00    +0.310 C 
ATOM     11  N   UNL     1       7.182  -3.216  23.010  0.00  0.00    -0.236 N 
ATOM     12  H   UNL     1       7.177  -3.898  22.264  0.00  0.00    +0.159 HD
ATOM     13  C   UNL     1       6.432  -3.432  24.153  0.00  0.00    +0.253 C 
ATOM     14  O   UNL     1       6.455  -2.652  25.108  0.00  0.00    -0.270 OA
ATOM     15  O   UNL     1       8.716  -2.177  21.742  0.00  0.00    -0.252 OA
BRANCH  13  16
ATOM     16  C   UNL     1       5.502  -4.595  24.219  0.00  0.00    +0.055 A 
ATOM     17  C   UNL     1       5.513  -5.636  25.159  0.00  0.00    +0.054 A 
ATOM     18 CL   UNL     1       6.657  -5.751  26.445  0.00  0.00    -0.083 Cl
ATOM     19  C   UNL     1       4.542  -6.649  25.093  0.00  0.00    +0.040 A 
ATOM     20  C   UNL     1       3.560  -6.624  24.101  0.00  0.00    +0.042 A 
ATOM     21 CL   UNL     1       2.368  -7.857  24.036  0.00  0.00    -0.083 Cl
ATOM     22  C   UNL     1       3.543  -5.604  23.162  0.00  0.00    +0.021 A 
ATOM     23  C   UNL     1       4.502  -4.597  23.228  0.00  0.00    +0.016 A 
ENDBRANCH  13  16
ENDBRANCH   7   8
BRANCH   3  24
ATOM     24  O   UNL     1       8.717   3.639  23.401  0.00  0.00    -0.492 OA
BRANCH  24  25
ATOM     25  C   UNL     1       9.288   4.630  24.266  0.00  0.00    +0.229 C 
BRANCH  25  26
ATOM     26  C   UNL     1       9.877   5.883  23.615  0.00  0.00    +0.041 C 
BRANCH  26  27
ATOM     27  C   UNL     1      11.407   5.765  23.751  0.00  0.00    +0.014 C 
BRANCH  27  28
ATOM     28  C   UNL     1      12.107   5.016  22.625  0.00  0.00    +0.120 C 
BRANCH  28  29
ATOM     29  C   UNL     1      13.525   5.518  22.446  0.00  0.00    +0.305 C 
ATOM     30  O   UNL     1      13.891   6.326  21.597  0.00  0.00    -0.251 OA
BRANCH  29  31
ATOM     31  O   UNL     1      14.384   4.979  23.337  0.00  0.00    -0.481 OA
ATOM     32  H   UNL     1      15.321   5.158  23.136  0.00  0.00    +0.295 HD
ENDBRANCH  29  31
ENDBRANCH  28  29
ENDBRANCH  27  28
ENDBRANCH  26  27
ENDBRANCH  25  26
ENDBRANCH  24  25
ENDBRANCH   3  24
TORSDOF 9
ENDMDL
MODEL 2
REMARK VINA RESULT:      -7.0      3.905      9.822
REMARK  Name = 
REMARK  10 active torsions:
REMARK  status: ('A' for Active; 'I' for Inactive)
REMARK    1  A    between atoms: C_1  and  C_2
REMARK    2  A    between atoms: C_3  and  N_4
REMARK    3  A    between atoms: C_8  and  C_10
REMARK    4  A    between atoms: C_21  and  O_22
REMARK    5  A    between atoms: O_22  and  C_23
REMARK    6  A    between atoms: C_23  and  C_24
REMARK    7  A    between atoms: C_24  and  C_25
REMARK    8  A    between atoms: C_25  and  C_26
REMARK    9  A    between atoms: C_26  and  C_27
REMARK   10  A    between atoms: C_27  and  O_28
REMARK                            x       y       z     vdW  Elec       q    Type
REMARK                         _______ _______ _______ _____ _____    ______ ____
ROOT
ATOM      1  C   UNL     1       4.908  -2.543  24.725  0.00  0.00    +0.049 C 
ATOM      2  C   UNL     1       5.506  -3.381  23.624  0.00  0.00    +0.012 A 
ATOM      3  C   UNL     1       4.873  -4.570  23.192  0.00  0.00    +0.125 A 
ATOM      4  C   UNL     1       5.563  -5.414  22.300  0.00  0.00    +0.046 A 
ATOM      5  C   UNL     1       6.827  -5.095  21.815  0.00  0.00    +0.005 A 
ATOM      6  C   UNL     1       7.424  -3.905  22.190  0.00  0.00    +0.024 A 
ATOM      7  C   UNL     1       6.769  -3.041  23.071  0.00  0.00    +0.041 A 
ENDROOT
BRANCH   7   8
ATOM      8  N   UNL     1       7.342  -1.785  23.334  0.00  0.00    -0.269 N 
ATOM      9  H   UNL     1       6.865  -0.966  22.965  0.00  0.00    +0.156 HD
ATOM     10  C   UNL     1       8.420  -1.537  24.146  0.00  0.00    +0.310 C 
ATOM     11  N   UNL     1       8.871  -0.232  24.147  0.00  0.00    -0.236 N 
ATOM     12  H   UNL     1       9.623  -0.078  24.805  0.00  0.00    +0.159 HD
ATOM     13  C   UNL     1       8.452   0.794  23.318  0.00  0.00    +0.253 C 
ATOM     14  O   UNL     1       7.578   0.630  22.464  0.00  0.00    -0.270 OA
ATOM     15  O   UNL     1       8.972  -2.353  24.877  0.00  0.00    -0.252 OA
BRANCH  13  16
ATOM     16  C   UNL     1       9.007   2.165  23.500  0.00  0.00    +0.055 A 
ATOM     17  C   UNL     1       8.319   3.305  23.942  0.00  0.00    +0.054 A 
ATOM     18 CL   UNL     1       6.646   3.311  24.359  0.00  0.00    -0.083 Cl
ATOM     19  C   UNL     1       9.003   4.524  24.084  0.00  0.00    +0.040 A 
ATOM     20  C   UNL     1      10.366   4.608  23.793  0.00  0.00    +0.042 A 
ATOM     21 CL   UNL     1      11.197   6.098  23.983  0.00  0.00    -0.083 Cl
ATOM     22  C   UNL     1      11.055   3.490  23.349  0.00  0.00    +0.021 A 
ATOM     23  C   UNL     1      10.380   2.280  23.212  0.00  0.00    +0.016 A 
ENDBRANCH  13  16
ENDBRANCH   7   8
BRANCH   3  24
ATOM     24  O   UNL     1       3.597  -4.869  23.669  0.00  0.00    -0.492 OA
BRANCH  24  25
ATOM     25  C   UNL     1       3.476  -6.235  24.086  0.00  0.00    +0.229 C 
BRANCH  25  26
ATOM     26  C   UNL     1       3.438  -6.515  25.590  0.00  0.00    +0.041 C 
BRANCH  26  27
ATOM     27  C   UNL     1       4.899  -6.726  26.030  0.00  0.00    +0.014 C 
BRANCH  27  28
ATOM     28  C   UNL     1       5.557  -5.532  26.707  0.00  0.00    +0.120 C 
BRANCH  28  29
ATOM     29  C   UNL     1       7.061  -5.580  26.539  0.00  0.00    +0.305 C 
ATOM     30  O   UNL     1       7.668  -5.344  25.498  0.00  0.00    -0.251 OA
BRANCH  29  31
ATOM     31  O   UNL     1       7.701  -5.920  27.679  0.00  0.00    -0.481 OA
ATOM     32  H   UNL     1       8.462  -6.513  27.539  0.00  0.00    +0.295 HD
ENDBRANCH  29  31
ENDBRANCH  28  29
ENDBRANCH  27  28
ENDBRANCH  26  27
ENDBRANCH  25  26
ENDBRANCH  24  25
ENDBRANCH   3  24
TORSDOF 9
ENDMDL
MODEL 3
REMARK VINA RESULT:      -6.9      4.233      9.791
REMARK  Name = 
REMARK  10 active torsions:
REMARK  status: ('A' for Active; 'I' for Inactive)
REMARK    1  A    between atoms: C_1  and  C_2
REMARK    2  A    between atoms: C_3  and  N_4
REMARK    3  A    between atoms: C_8  and  C_10
REMARK    4  A    between atoms: C_21  and  O_22
REMARK    5  A    between atoms: O_22  and  C_23
REMARK    6  A    between atoms: C_23  and  C_24
REMARK    7  A    between atoms: C_24  and  C_25
REMARK    8  A    between atoms: C_25  and  C_26
REMARK    9  A    between atoms: C_26  and  C_27
REMARK   10  A    between atoms: C_27  and  O_28
REMARK                            x       y       z     vdW  Elec       q    Type
REMARK                         _______ _______ _______ _____ _____    ______ ____
ROOT
ATOM      1  C   UNL     1       4.659  -3.298  24.684  0.00  0.00    +0.049 C 
ATOM      2  C   UNL     1       5.427  -4.036  23.618  0.00  0.00    +0.012 A 
ATOM      3  C   UNL     1       4.940  -5.251  23.082  0.00  0.00    +0.125 A 
ATOM      4  C   UNL     1       5.779  -5.996  22.231  0.00  0.00    +0.046 A 
ATOM      5  C   UNL     1       7.052  -5.556  21.884  0.00  0.00    +0.005 A 
ATOM      6  C   UNL     1       7.509  -4.340  22.359  0.00  0.00    +0.024 A 
ATOM      7  C   UNL     1       6.703  -3.572  23.204  0.00  0.00    +0.041 A 
ENDROOT
BRANCH   7   8
ATOM      8  N   UNL     1       7.142  -2.287  23.567  0.00  0.00    -0.269 N 
ATOM      9  H   UNL     1       6.573  -1.497  23.273  0.00  0.00    +0.156 HD
ATOM     10  C   UNL     1       8.201  -1.991  24.388  0.00  0.00    +0.310 C 
ATOM     11  N   UNL     1       8.508  -0.650  24.496  0.00  0.00    -0.236 N 
ATOM     12  H   UNL     1       9.250  -0.470  25.158  0.00  0.00    +0.159 HD
ATOM     13  C   UNL     1       7.967   0.390  23.760  0.00  0.00    +0.253 C 
ATOM     14  O   UNL     1       7.100   0.204  22.902  0.00  0.00    -0.270 OA
ATOM     15  O   UNL     1       8.850  -2.800  25.043  0.00  0.00    -0.252 OA
BRANCH  13  16
ATOM     16  C   UNL     1       8.373   1.794  24.053  0.00  0.00    +0.055 A 
ATOM     17  C   UNL     1       9.335   2.557  23.374  0.00  0.00    +0.054 A 
ATOM     18 CL   UNL     1      10.249   1.970  22.035  0.00  0.00    -0.083 Cl
ATOM     19  C   UNL     1       9.580   3.883  23.766  0.00  0.00    +0.040 A 
ATOM     20  C   UNL     1       8.869   4.451  24.824  0.00  0.00    +0.042 A 
ATOM     21 CL   UNL     1       9.164   6.077  25.287  0.00  0.00    -0.083 Cl
ATOM     22  C   UNL     1       7.920   3.705  25.508  0.00  0.00    +0.021 A 
ATOM     23  C   UNL     1       7.673   2.391  25.118  0.00  0.00    +0.016 A 
ENDBRANCH  13  16
ENDBRANCH   7   8
BRANCH   3  24
ATOM     24  O   UNL     1       3.654  -5.672  23.421  0.00  0.00    -0.492 OA
BRANCH  24  25
ATOM     25  C   UNL     1       3.663  -6.835  24.259  0.00  0.00    +0.229 C 
BRANCH  25  26
ATOM     26  C   UNL     1       3.526  -6.620  25.769  0.00  0.00    +0.041 C 
BRANCH  26  27
ATOM     27  C   UNL     1       4.939  -6.776  26.360  0.00  0.00    +0.014 C 
BRANCH  27  28
ATOM     28  C   UNL     1       5.220  -5.952  27.609  0.00  0.00    +0.120 C 
BRANCH  28  29
ATOM     29  C   UNL     1       6.573  -5.278  27.514  0.00  0.00    +0.305 C 
ATOM     30  O   UNL     1       6.762  -4.098  27.229  0.00  0.00    -0.251 OA
BRANCH  29  31
ATOM     31  O   UNL     1       7.594  -6.122  27.780  0.00  0.00    -0.481 OA
ATOM     32  H   UNL     1       8.428  -5.880  27.337  0.00  0.00    +0.295 HD
ENDBRANCH  29  31
ENDBRANCH  28  29
ENDBRANCH  27  28
ENDBRANCH  26  27
ENDBRANCH  25  26
ENDBRANCH  24  25
ENDBRANCH   3  24
TORSDOF 9
ENDMDL
MODEL 4
REMARK VINA RESULT:      -6.8      1.549      1.835
REMARK  Name = 
REMARK  10 active torsions:
REMARK  status: ('A' for Active; 'I' for Inactive)
REMARK    1  A    between atoms: C_1  and  C_2
REMARK    2  A    between atoms: C_3  and  N_4
REMARK    3  A    between atoms: C_8  and  C_10
REMARK    4  A    between atoms: C_21  and  O_22
REMARK    5  A    between atoms: O_22  and  C_23
REMARK    6  A    between atoms: C_23  and  C_24
REMARK    7  A    between atoms: C_24  and  C_25
REMARK    8  A    between atoms: C_25  and  C_26
REMARK    9  A    between atoms: C_26  and  C_27
REMARK   10  A    between atoms: C_27  and  O_28
REMARK                            x       y       z     vdW  Elec       q    Type
REMARK                         _______ _______ _______ _____ _____    ______ ____
ROOT
ATOM      1  C   UNL     1       7.006   1.256  22.925  0.00  0.00    +0.049 C 
ATOM      2  C   UNL     1       8.343   0.986  23.566  0.00  0.00    +0.012 A 
ATOM      3  C   UNL     1       9.313   2.010  23.679  0.00  0.00    +0.125 A 
ATOM      4  C   UNL     1      10.609   1.664  24.111  0.00  0.00    +0.046 A 
ATOM      5  C   UNL     1      10.946   0.359  24.453  0.00  0.00    +0.005 A 
ATOM      6  C   UNL     1       9.984  -0.634  24.399  0.00  0.00    +0.024 A 
ATOM      7  C   UNL     1       8.687  -0.328  23.979  0.00  0.00    +0.041 A 
ENDROOT
BRANCH   7   8
ATOM      8  N   UNL     1       7.701  -1.327  24.056  0.00  0.00    -0.269 N 
ATOM      9  H   UNL     1       7.415  -1.771  23.187  0.00  0.00    +0.156 HD
ATOM     10  C   UNL     1       7.169  -1.857  25.204  0.00  0.00    +0.310 C 
ATOM     11  N   UNL     1       6.126  -2.742  25.018  0.00  0.00    -0.236 N 
ATOM     12  H   UNL     1       5.806  -3.157  25.882  0.00  0.00    +0.159 HD
ATOM     13  C   UNL     1       5.478  -3.027  23.829  0.00  0.00    +0.253 C 
ATOM     14  O   UNL     1       5.802  -2.497  22.763  0.00  0.00    -0.270 OA
ATOM     15  O   UNL     1       7.562  -1.640  26.346  0.00  0.00    -0.252 OA
BRANCH  13  16
ATOM     16  C   UNL     1       4.406  -4.062  23.800  0.00  0.00    +0.055 A 
ATOM     17  C   UNL     1       4.378  -5.232  23.026  0.00  0.00    +0.054 A 
ATOM     18 CL   UNL     1       5.631  -5.683  21.929  0.00  0.00    -0.083 Cl
ATOM     19  C   UNL     1       3.297  -6.120  23.138  0.00  0.00    +0.040 A 
ATOM     20  C   UNL     1       2.248  -5.850  24.020  0.00  0.00    +0.042 A 
ATOM     21 CL   UNL     1       0.937  -6.948  24.162  0.00  0.00    -0.083 Cl
ATOM     22  C   UNL     1       2.261  -4.694  24.785  0.00  0.00    +0.021 A 
ATOM     23  C   UNL     1       3.335  -3.814  24.678  0.00  0.00    +0.016 A 
ENDBRANCH  13  16
ENDBRANCH   7   8
BRANCH   3  24
ATOM     24  O   UNL     1       8.958   3.318  23.353  0.00  0.00    -0.492 OA
BRANCH  24  25
ATOM     25  C   UNL     1       9.391   4.264  24.340  0.00  0.00    +0.229 C 
BRANCH  25  26
ATOM     26  C   UNL     1       9.381   5.745  23.952  0.00  0.00    +0.041 C 
BRANCH  26  27
ATOM     27  C   UNL     1      10.710   6.010  23.219  0.00  0.00    +0.014 C 
BRANCH  27  28
ATOM     28  C   UNL     1      11.924   5.285  23.783  0.00  0.00    +0.120 C 
BRANCH  28  29
ATOM     29  C   UNL     1      13.061   5.285  22.782  0.00  0.00    +0.305 C 
ATOM     30  O   UNL     1      12.955   5.537  21.585  0.00  0.00    -0.251 OA
BRANCH  29  31
ATOM     31  O   UNL     1      14.248   4.970  23.345  0.00  0.00    -0.481 OA
ATOM     32  H   UNL     1      14.175   4.653  24.264  0.00  0.00    +0.295 HD
ENDBRANCH  29  31
ENDBRANCH  28  29
ENDBRANCH  27  28
ENDBRANCH  26  27
ENDBRANCH  25  26
ENDBRANCH  24  25
ENDBRANCH   3  24
TORSDOF 9
ENDMDL
MODEL 5
REMARK VINA RESULT:      -6.7      1.531      2.019
REMARK  Name = 
REMARK  10 active torsions:
REMARK  status: ('A' for Active; 'I' for Inactive)
REMARK    1  A    between atoms: C_1  and  C_2
REMARK    2  A    between atoms: C_3  and  N_4
REMARK    3  A    between atoms: C_8  and  C_10
REMARK    4  A    between atoms: C_21  and  O_22
REMARK    5  A    between atoms: O_22  and  C_23
REMARK    6  A    between atoms: C_23  and  C_24
REMARK    7  A    between atoms: C_24  and  C_25
REMARK    8  A    between atoms: C_25  and  C_26
REMARK    9  A    between atoms: C_26  and  C_27
REMARK   10  A    between atoms: C_27  and  O_28
REMARK                            x       y       z     vdW  Elec       q    Type
REMARK                         _______ _______ _______ _____ _____    ______ ____
ROOT
ATOM      1  C   UNL     1       6.942  -0.217  24.823  0.00  0.00    +0.049 C 
ATOM      2  C   UNL     1       8.040  -0.314  23.796  0.00  0.00    +0.012 A 
ATOM      3  C   UNL     1       8.972   0.738  23.628  0.00  0.00    +0.125 A 
ATOM      4  C   UNL     1       9.857   0.684  22.533  0.00  0.00    +0.046 A 
ATOM      5  C   UNL     1       9.857  -0.381  21.639  0.00  0.00    +0.005 A 
ATOM      6  C   UNL     1       8.987  -1.439  21.833  0.00  0.00    +0.024 A 
ATOM      7  C   UNL     1       8.096  -1.422  22.910  0.00  0.00    +0.041 A 
ENDROOT
BRANCH   7   8
ATOM      8  N   UNL     1       7.315  -2.565  23.155  0.00  0.00    -0.269 N 
ATOM      9  H   UNL     1       6.356  -2.557  22.819  0.00  0.00    +0.156 HD
ATOM     10  C   UNL     1       7.753  -3.748  23.695  0.00  0.00    +0.310 C 
ATOM     11  N   UNL     1       6.768  -4.681  23.949  0.00  0.00    -0.236 N 
ATOM     12  H   UNL     1       7.138  -5.560  24.285  0.00  0.00    +0.159 HD
ATOM     13  C   UNL     1       5.400  -4.494  23.857  0.00  0.00    +0.253 C 
ATOM     14  O   UNL     1       4.908  -3.418  23.506  0.00  0.00    -0.270 OA
ATOM     15  O   UNL     1       8.921  -4.044  23.927  0.00  0.00    -0.252 OA
BRANCH  13  16
ATOM     16  C   UNL     1       4.478  -5.637  24.110  0.00  0.00    +0.055 A 
ATOM     17  C   UNL     1       4.452  -6.470  25.239  0.00  0.00    +0.054 A 
ATOM     18 CL   UNL     1       5.533  -6.307  26.573  0.00  0.00    -0.083 Cl
ATOM     19  C   UNL     1       3.495  -7.493  25.331  0.00  0.00    +0.040 A 
ATOM     20  C   UNL     1       2.562  -7.684  24.310  0.00  0.00    +0.042 A 
ATOM     21 CL   UNL     1       1.385  -8.927  24.437  0.00  0.00    -0.083 Cl
ATOM     22  C   UNL     1       2.582  -6.871  23.187  0.00  0.00    +0.021 A 
ATOM     23  C   UNL     1       3.528  -5.854  23.095  0.00  0.00    +0.016 A 
ENDBRANCH  13  16
ENDBRANCH   7   8
BRANCH   3  24
ATOM     24  O   UNL     1       8.976   1.790  24.543  0.00  0.00    -0.492 OA
BRANCH  24  25
ATOM     25  C   UNL     1       8.133   2.875  24.132  0.00  0.00    +0.229 C 
BRANCH  25  26
ATOM     26  C   UNL     1       8.780   4.012  23.338  0.00  0.00    +0.041 C 
BRANCH  26  27
ATOM     27  C   UNL     1      10.182   4.220  23.941  0.00  0.00    +0.014 C 
BRANCH  27  28
ATOM     28  C   UNL     1      10.735   5.635  23.837  0.00  0.00    +0.120 C 
BRANCH  28  29
ATOM     29  C   UNL     1      12.248   5.617  23.774  0.00  0.00    +0.305 C 
ATOM     30  O   UNL     1      12.919   4.991  22.957  0.00  0.00    -0.251 OA
BRANCH  29  31
ATOM     31  O   UNL     1      12.818   6.378  24.733  0.00  0.00    -0.481 OA
ATOM     32  H   UNL     1      13.700   6.717  24.492  0.00  0.00    +0.295 HD
ENDBRANCH  29  31
ENDBRANCH  28  29
ENDBRANCH  27  28
ENDBRANCH  26  27
ENDBRANCH  25  26
ENDBRANCH  24  25
ENDBRANCH   3  24
TORSDOF 9
ENDMDL
MODEL 6
REMARK VINA RESULT:      -6.7      4.164      9.650
REMARK  Name = 
REMARK  10 active torsions:
REMARK  status: ('A' for Active; 'I' for Inactive)
REMARK    1  A    between atoms: C_1  and  C_2
REMARK    2  A    between atoms: C_3  and  N_4
REMARK    3  A    between atoms: C_8  and  C_10
REMARK    4  A    between atoms: C_21  and  O_22
REMARK    5  A    between atoms: O_22  and  C_23
REMARK    6  A    between atoms: C_23  and  C_24
REMARK    7  A    between atoms: C_24  and  C_25
REMARK    8  A    between atoms: C_25  and  C_26
REMARK    9  A    between atoms: C_26  and  C_27
REMARK   10  A    between atoms: C_27  and  O_28
REMARK                            x       y       z     vdW  Elec       q    Type
REMARK                         _______ _______ _______ _____ _____    ______ ____
ROOT
ATOM      1  C   UNL     1       7.314  -5.212  27.046  0.00  0.00    +0.049 C 
ATOM      2  C   UNL     1       6.195  -5.555  26.096  0.00  0.00    +0.012 A 
ATOM      3  C   UNL     1       5.262  -6.570  26.412  0.00  0.00    +0.125 A 
ATOM      4  C   UNL     1       4.354  -6.983  25.416  0.00  0.00    +0.046 A 
ATOM      5  C   UNL     1       4.334  -6.402  24.153  0.00  0.00    +0.005 A 
ATOM      6  C   UNL     1       5.206  -5.370  23.860  0.00  0.00    +0.024 A 
ATOM      7  C   UNL     1       6.119  -4.931  24.823  0.00  0.00    +0.041 A 
ENDROOT
BRANCH   7   8
ATOM      8  N   UNL     1       6.903  -3.799  24.541  0.00  0.00    -0.269 N 
ATOM      9  H   UNL     1       6.864  -3.026  25.201  0.00  0.00    +0.156 HD
ATOM     10  C   UNL     1       7.818  -3.676  23.526  0.00  0.00    +0.310 C 
ATOM     11  N   UNL     1       8.374  -2.422  23.381  0.00  0.00    -0.236 N 
ATOM     12  H   UNL     1       9.088  -2.390  22.666  0.00  0.00    +0.159 HD
ATOM     13  C   UNL     1       8.003  -1.264  24.042  0.00  0.00    +0.253 C 
ATOM     14  O   UNL     1       7.098  -1.251  24.880  0.00  0.00    -0.270 OA
ATOM     15  O   UNL     1       8.194  -4.579  22.784  0.00  0.00    -0.252 OA
BRANCH  13  16
ATOM     16  C   UNL     1       8.759  -0.002  23.807  0.00  0.00    +0.055 A 
ATOM     17  C   UNL     1       8.307   1.143  23.134  0.00  0.00    +0.054 A 
ATOM     18 CL   UNL     1       6.737   1.283  22.433  0.00  0.00    -0.083 Cl
ATOM     19  C   UNL     1       9.144   2.265  23.022  0.00  0.00    +0.040 A 
ATOM     20  C   UNL     1      10.424   2.252  23.581  0.00  0.00    +0.042 A 
ATOM     21 CL   UNL     1      11.435   3.632  23.452  0.00  0.00    -0.083 Cl
ATOM     22  C   UNL     1      10.884   1.123  24.242  0.00  0.00    +0.021 A 
ATOM     23  C   UNL     1      10.054   0.012  24.358  0.00  0.00    +0.016 A 
ENDBRANCH  13  16
ENDBRANCH   7   8
BRANCH   3  24
ATOM     24  O   UNL     1       5.277  -7.131  27.689  0.00  0.00    -0.492 OA
BRANCH  24  25
ATOM     25  C   UNL     1       4.630  -6.298  28.660  0.00  0.00    +0.229 C 
BRANCH  25  26
ATOM     26  C   UNL     1       3.217  -5.805  28.340  0.00  0.00    +0.041 C 
BRANCH  26  27
ATOM     27  C   UNL     1       3.281  -4.266  28.349  0.00  0.00    +0.014 C 
BRANCH  27  28
ATOM     28  C   UNL     1       3.133  -3.597  26.990  0.00  0.00    +0.120 C 
BRANCH  28  29
ATOM     29  C   UNL     1       4.253  -2.605  26.755  0.00  0.00    +0.305 C 
ATOM     30  O   UNL     1       5.088  -2.264  27.589  0.00  0.00    -0.251 OA
BRANCH  29  31
ATOM     31  O   UNL     1       4.254  -2.109  25.499  0.00  0.00    -0.481 OA
ATOM     32  H   UNL     1       4.802  -2.622  24.875  0.00  0.00    +0.295 HD
ENDBRANCH  29  31
ENDBRANCH  28  29
ENDBRANCH  27  28
ENDBRANCH  26  27
ENDBRANCH  25  26
ENDBRANCH  24  25
ENDBRANCH   3  24
TORSDOF 9
ENDMDL
MODEL 7
REMARK VINA RESULT:      -6.5      4.051      9.568
REMARK  Name = 
REMARK  10 active torsions:
REMARK  status: ('A' for Active; 'I' for Inactive)
REMARK    1  A    between atoms: C_1  and  C_2
REMARK    2  A    between atoms: C_3  and  N_4
REMARK    3  A    between atoms: C_8  and  C_10
REMARK    4  A    between atoms: C_21  and  O_22
REMARK    5  A    between atoms: O_22  and  C_23
REMARK    6  A    between atoms: C_23  and  C_24
REMARK    7  A    between atoms: C_24  and  C_25
REMARK    8  A    between atoms: C_25  and  C_26
REMARK    9  A    between atoms: C_26  and  C_27
REMARK   10  A    between atoms: C_27  and  O_28
REMARK                            x       y       z     vdW  Elec       q    Type
REMARK                         _______ _______ _______ _____ _____    ______ ____
ROOT
ATOM      1  C   UNL     1       6.069  -1.764  25.962  0.00  0.00    +0.049 C 
ATOM      2  C   UNL     1       5.880  -2.287  24.561  0.00  0.00    +0.012 A 
ATOM      3  C   UNL     1       4.953  -3.321  24.292  0.00  0.00    +0.125 A 
ATOM      4  C   UNL     1       4.949  -3.904  23.009  0.00  0.00    +0.046 A 
ATOM      5  C   UNL     1       5.805  -3.471  22.002  0.00  0.00    +0.005 A 
ATOM      6  C   UNL     1       6.672  -2.421  22.245  0.00  0.00    +0.024 A 
ATOM      7  C   UNL     1       6.703  -1.816  23.504  0.00  0.00    +0.041 A 
ENDROOT
BRANCH   7   8
ATOM      8  N   UNL     1       7.500  -0.673  23.682  0.00  0.00    -0.269 N 
ATOM      9  H   UNL     1       7.026   0.224  23.749  0.00  0.00    +0.156 HD
ATOM     10  C   UNL     1       8.855  -0.652  23.902  0.00  0.00    +0.310 C 
ATOM     11  N   UNL     1       9.430   0.602  23.924  0.00  0.00    -0.236 N 
ATOM     12  H   UNL     1      10.415   0.577  24.153  0.00  0.00    +0.159 HD
ATOM     13  C   UNL     1       8.822   1.803  23.606  0.00  0.00    +0.253 C 
ATOM     14  O   UNL     1       7.637   1.868  23.268  0.00  0.00    -0.270 OA
ATOM     15  O   UNL     1       9.564  -1.632  24.111  0.00  0.00    -0.252 OA
BRANCH  13  16
ATOM     16  C   UNL     1       9.582   3.077  23.746  0.00  0.00    +0.055 A 
ATOM     17  C   UNL     1       9.121   4.284  24.295  0.00  0.00    +0.054 A 
ATOM     18 CL   UNL     1       7.527   4.502  24.919  0.00  0.00    -0.083 Cl
ATOM     19  C   UNL     1       9.980   5.390  24.375  0.00  0.00    +0.040 A 
ATOM     20  C   UNL     1      11.297   5.299  23.918  0.00  0.00    +0.042 A 
ATOM     21 CL   UNL     1      12.346   6.652  24.033  0.00  0.00    -0.083 Cl
ATOM     22  C   UNL     1      11.763   4.114  23.367  0.00  0.00    +0.021 A 
ATOM     23  C   UNL     1      10.912   3.014  23.290  0.00  0.00    +0.016 A 
ENDBRANCH  13  16
ENDBRANCH   7   8
BRANCH   3  24
ATOM     24  O   UNL     1       4.085  -3.732  25.303  0.00  0.00    -0.492 OA
BRANCH  24  25
ATOM     25  C   UNL     1       4.319  -5.088  25.707  0.00  0.00    +0.229 C 
BRANCH  25  26
ATOM     26  C   UNL     1       5.458  -5.345  26.696  0.00  0.00    +0.041 C 
BRANCH  26  27
ATOM     27  C   UNL     1       6.686  -5.737  25.853  0.00  0.00    +0.014 C 
BRANCH  27  28
ATOM     28  C   UNL     1       7.971  -4.990  26.184  0.00  0.00    +0.120 C 
BRANCH  28  29
ATOM     29  C   UNL     1       8.937  -5.042  25.019  0.00  0.00    +0.305 C 
ATOM     30  O   UNL     1      10.161  -4.992  25.107  0.00  0.00    -0.251 OA
BRANCH  29  31
ATOM     31  O   UNL     1       8.310  -5.151  23.828  0.00  0.00    -0.481 OA
ATOM     32  H   UNL     1       8.595  -5.923  23.304  0.00  0.00    +0.295 HD
ENDBRANCH  29  31
ENDBRANCH  28  29
ENDBRANCH  27  28
ENDBRANCH  26  27
ENDBRANCH  25  26
ENDBRANCH  24  25
ENDBRANCH   3  24
TORSDOF 9
ENDMDL
MODEL 8
REMARK VINA RESULT:      -6.5      4.422      9.351
REMARK  Name = 
REMARK  10 active torsions:
REMARK  status: ('A' for Active; 'I' for Inactive)
REMARK    1  A    between atoms: C_1  and  C_2
REMARK    2  A    between atoms: C_3  and  N_4
REMARK    3  A    between atoms: C_8  and  C_10
REMARK    4  A    between atoms: C_21  and  O_22
REMARK    5  A    between atoms: O_22  and  C_23
REMARK    6  A    between atoms: C_23  and  C_24
REMARK    7  A    between atoms: C_24  and  C_25
REMARK    8  A    between atoms: C_25  and  C_26
REMARK    9  A    between atoms: C_26  and  C_27
REMARK   10  A    between atoms: C_27  and  O_28
REMARK                            x       y       z     vdW  Elec       q    Type
REMARK                         _______ _______ _______ _____ _____    ______ ____
ROOT
ATOM      1  C   UNL     1       6.359  -2.421  26.658  0.00  0.00    +0.049 C 
ATOM      2  C   UNL     1       7.400  -3.344  26.079  0.00  0.00    +0.012 A 
ATOM      3  C   UNL     1       7.462  -4.702  26.469  0.00  0.00    +0.125 A 
ATOM      4  C   UNL     1       8.564  -5.474  26.048  0.00  0.00    +0.046 A 
ATOM      5  C   UNL     1       9.566  -4.946  25.241  0.00  0.00    +0.005 A 
ATOM      6  C   UNL     1       9.478  -3.634  24.810  0.00  0.00    +0.024 A 
ATOM      7  C   UNL     1       8.399  -2.839  25.206  0.00  0.00    +0.041 A 
ENDROOT
BRANCH   7   8
ATOM      8  N   UNL     1       8.271  -1.554  24.651  0.00  0.00    -0.269 N 
ATOM      9  H   UNL     1       8.519  -0.763  25.239  0.00  0.00    +0.156 HD
ATOM     10  C   UNL     1       7.960  -1.258  23.347  0.00  0.00    +0.310 C 
ATOM     11  N   UNL     1       7.773   0.081  23.074  0.00  0.00    -0.236 N 
ATOM     12  H   UNL     1       7.611   0.262  22.092  0.00  0.00    +0.159 HD
ATOM     13  C   UNL     1       7.720   1.118  23.988  0.00  0.00    +0.253 C 
ATOM     14  O   UNL     1       7.856   0.931  25.200  0.00  0.00    -0.270 OA
ATOM     15  O   UNL     1       7.877  -2.066  22.427  0.00  0.00    -0.252 OA
BRANCH  13  16
ATOM     16  C   UNL     1       7.571   2.521  23.509  0.00  0.00    +0.055 A 
ATOM     17  C   UNL     1       8.589   3.475  23.350  0.00  0.00    +0.054 A 
ATOM     18 CL   UNL     1      10.249   3.169  23.707  0.00  0.00    -0.083 Cl
ATOM     19  C   UNL     1       8.280   4.753  22.859  0.00  0.00    +0.040 A 
ATOM     20  C   UNL     1       6.966   5.082  22.520  0.00  0.00    +0.042 A 
ATOM     21 CL   UNL     1       6.599   6.642  21.906  0.00  0.00    -0.083 Cl
ATOM     22  C   UNL     1       5.950   4.151  22.678  0.00  0.00    +0.021 A 
ATOM     23  C   UNL     1       6.256   2.881  23.161  0.00  0.00    +0.016 A 
ENDBRANCH  13  16
ENDBRANCH   7   8
BRANCH   3  24
ATOM     24  O   UNL     1       6.441  -5.227  27.261  0.00  0.00    -0.492 OA
BRANCH  24  25
ATOM     25  C   UNL     1       5.605  -6.141  26.539  0.00  0.00    +0.229 C 
BRANCH  25  26
ATOM     26  C   UNL     1       4.685  -5.559  25.462  0.00  0.00    +0.041 C 
BRANCH  26  27
ATOM     27  C   UNL     1       5.065  -6.258  24.143  0.00  0.00    +0.014 C 
BRANCH  27  28
ATOM     28  C   UNL     1       6.180  -5.593  23.348  0.00  0.00    +0.120 C 
BRANCH  28  29
ATOM     29  C   UNL     1       5.707  -5.237  21.954  0.00  0.00    +0.305 C 
ATOM     30  O   UNL     1       5.340  -4.123  21.590  0.00  0.00    -0.251 OA
BRANCH  29  31
ATOM     31  O   UNL     1       5.723  -6.294  21.114  0.00  0.00    -0.481 OA
ATOM     32  H   UNL     1       5.757  -6.045  20.172  0.00  0.00    +0.295 HD
ENDBRANCH  29  31
ENDBRANCH  28  29
ENDBRANCH  27  28
ENDBRANCH  26  27
ENDBRANCH  25  26
ENDBRANCH  24  25
ENDBRANCH   3  24
TORSDOF 9
ENDMDL
MODEL 9
REMARK VINA RESULT:      -6.5      4.191     10.087
REMARK  Name = 
REMARK  10 active torsions:
REMARK  status: ('A' for Active; 'I' for Inactive)
REMARK    1  A    between atoms: C_1  and  C_2
REMARK    2  A    between atoms: C_3  and  N_4
REMARK    3  A    between atoms: C_8  and  C_10
REMARK    4  A    between atoms: C_21  and  O_22
REMARK    5  A    between atoms: O_22  and  C_23
REMARK    6  A    between atoms: C_23  and  C_24
REMARK    7  A    between atoms: C_24  and  C_25
REMARK    8  A    between atoms: C_25  and  C_26
REMARK    9  A    between atoms: C_26  and  C_27
REMARK   10  A    between atoms: C_27  and  O_28
REMARK                            x       y       z     vdW  Elec       q    Type
REMARK                         _______ _______ _______ _____ _____    ______ ____
ROOT
ATOM      1  C   UNL     1       4.892  -4.341  22.810  0.00  0.00    +0.049 C 
ATOM      2  C   UNL     1       5.152  -5.133  24.065  0.00  0.00    +0.012 A 
ATOM      3  C   UNL     1       4.440  -6.327  24.329  0.00  0.00    +0.125 A 
ATOM      4  C   UNL     1       4.580  -6.927  25.597  0.00  0.00    +0.046 A 
ATOM      5  C   UNL     1       5.415  -6.396  26.573  0.00  0.00    +0.005 A 
ATOM      6  C   UNL     1       6.157  -5.262  26.297  0.00  0.00    +0.024 A 
ATOM      7  C   UNL     1       6.047  -4.640  25.050  0.00  0.00    +0.041 A 
ENDROOT
BRANCH   7   8
ATOM      8  N   UNL     1       6.905  -3.568  24.755  0.00  0.00    -0.269 N 
ATOM      9  H   UNL     1       6.585  -2.632  24.992  0.00  0.00    +0.156 HD
ATOM     10  C   UNL     1       8.193  -3.661  24.288  0.00  0.00    +0.310 C 
ATOM     11  N   UNL     1       8.790  -2.461  23.958  0.00  0.00    -0.236 N 
ATOM     12  H   UNL     1       9.756  -2.568  23.682  0.00  0.00    +0.159 HD
ATOM     13  C   UNL     1       8.186  -1.217  23.908  0.00  0.00    +0.253 C 
ATOM     14  O   UNL     1       6.995  -1.055  24.183  0.00  0.00    -0.270 OA
ATOM     15  O   UNL     1       8.846  -4.695  24.182  0.00  0.00    -0.252 OA
BRANCH  13  16
ATOM     16  C   UNL     1       9.002  -0.012  23.590  0.00  0.00    +0.055 A 
ATOM     17  C   UNL     1       9.450   0.399  22.325  0.00  0.00    +0.054 A 
ATOM     18 CL   UNL     1       9.121  -0.464  20.868  0.00  0.00    -0.083 Cl
ATOM     19  C   UNL     1      10.193   1.583  22.196  0.00  0.00    +0.040 A 
ATOM     20  C   UNL     1      10.486   2.361  23.318  0.00  0.00    +0.042 A 
ATOM     21 CL   UNL     1      11.382   3.815  23.150  0.00  0.00    -0.083 Cl
ATOM     22  C   UNL     1      10.055   1.962  24.574  0.00  0.00    +0.021 A 
ATOM     23  C   UNL     1       9.315   0.790  24.704  0.00  0.00    +0.016 A 
ENDBRANCH  13  16
ENDBRANCH   7   8
BRANCH   3  24
ATOM     24  O   UNL     1       3.621  -6.861  23.335  0.00  0.00    -0.492 OA
BRANCH  24  25
ATOM     25  C   UNL     1       2.242  -6.899  23.725  0.00  0.00    +0.229 C 
BRANCH  25  26
ATOM     26  C   UNL     1       1.262  -6.017  22.946  0.00  0.00    +0.041 C 
BRANCH  26  27
ATOM     27  C   UNL     1       1.141  -4.701  23.736  0.00  0.00    +0.014 C 
BRANCH  27  28
ATOM     28  C   UNL     1       1.183  -4.841  25.251  0.00  0.00    +0.120 C 
BRANCH  28  29
ATOM     29  C   UNL     1       2.193  -3.886  25.851  0.00  0.00    +0.305 C 
ATOM     30  O   UNL     1       2.587  -2.846  25.328  0.00  0.00    -0.251 OA
BRANCH  29  31
ATOM     31  O   UNL     1       2.641  -4.293  27.058  0.00  0.00    -0.481 OA
ATOM     32  H   UNL     1       1.930  -4.549  27.674  0.00  0.00    +0.295 HD
ENDBRANCH  29  31
ENDBRANCH  28  29
ENDBRANCH  27  28
ENDBRANCH  26  27
ENDBRANCH  25  26
ENDBRANCH  24  25
ENDBRANCH   3  24
TORSDOF 9
ENDMDL
