MODEL 1
REMARK VINA RESULT:      -6.0      0.000      0.000
REMARK  Name = 
REMARK  4 active torsions:
REMARK  status: ('A' for Active; 'I' for Inactive)
REMARK    1  A    between atoms: O_1  and  C_2
REMARK    2  A    between atoms: C_3  and  S_4
REMARK    3  A    between atoms: S_4  and  C_5
REMARK    4  A    between atoms: C_6  and  O_7
REMARK                            x       y       z     vdW  Elec       q    Type
REMARK                         _______ _______ _______ _____ _____    ______ ____
ROOT
ATOM      1  S   UNL     1       9.460  -3.738  24.560  0.00  0.00    -0.082 S 
ENDROOT
BRANCH   1   9
ATOM      2  C   UNL     1       6.944  -4.875  25.160  0.00  0.00    +0.149 A 
ATOM      3  C   UNL     1       5.769  -5.541  24.776  0.00  0.00    +0.085 A 
ATOM      4 CL   UNL     1       4.571  -5.997  25.935  0.00  0.00    -0.080 Cl
ATOM      5  C   UNL     1       5.526  -5.828  23.434  0.00  0.00    +0.043 A 
ATOM      6  C   UNL     1       6.458  -5.445  22.474  0.00  0.00    +0.044 A 
ATOM      7 CL   UNL     1       6.143  -5.732  20.809  0.00  0.00    -0.083 Cl
ATOM      8  C   UNL     1       7.645  -4.817  22.851  0.00  0.00    +0.038 A 
ATOM      9  C   UNL     1       7.913  -4.549  24.201  0.00  0.00    +0.057 A 
BRANCH   2  10
ATOM     10  O   UNL     1       7.104  -4.520  26.474  0.00  0.00    -0.504 OA
ATOM     11  H   UNL     1       6.367  -4.899  26.981  0.00  0.00    +0.292 HD
ENDBRANCH   2  10
ENDBRANCH   1   9
BRANCH   1  12
ATOM     12  C   UNL     1       9.239  -1.981  24.293  0.00  0.00    +0.057 A 
ATOM     13  C   UNL     1       8.562  -1.303  25.322  0.00  0.00    +0.038 A 
ATOM     14  C   UNL     1       8.328   0.070  25.246  0.00  0.00    +0.044 A 
ATOM     15 CL   UNL     1       7.453   0.855  26.502  0.00  0.00    -0.083 Cl
ATOM     16  C   UNL     1       8.784   0.805  24.161  0.00  0.00    +0.043 A 
ATOM     17  C   UNL     1       9.434   0.146  23.120  0.00  0.00    +0.085 A 
ATOM     18 CL   UNL     1       9.957   1.086  21.767  0.00  0.00    -0.080 Cl
ATOM     19  C   UNL     1       9.624  -1.245  23.162  0.00  0.00    +0.149 A 
BRANCH  19  20
ATOM     20  O   UNL     1      10.142  -1.854  22.050  0.00  0.00    -0.504 OA
ATOM     21  H   UNL     1      10.686  -1.202  21.578  0.00  0.00    +0.292 HD
ENDBRANCH  19  20
ENDBRANCH   1  12
TORSDOF 4
ENDMDL
MODEL 2
REMARK VINA RESULT:      -6.0      2.356      2.894
REMARK  Name = 
REMARK  4 active torsions:
REMARK  status: ('A' for Active; 'I' for Inactive)
REMARK    1  A    between atoms: O_1  and  C_2
REMARK    2  A    between atoms: C_3  and  S_4
REMARK    3  A    between atoms: S_4  and  C_5
REMARK    4  A    between atoms: C_6  and  O_7
REMARK                            x       y       z     vdW  Elec       q    Type
REMARK                         _______ _______ _______ _____ _____    ______ ____
ROOT
ATOM      1  S   UNL     1       8.860  -1.054  21.854  0.00  0.00    -0.082 S 
ENDROOT
BRANCH   1   9
ATOM      2  C   UNL     1       8.957  -3.263  23.613  0.00  0.00    +0.149 A 
ATOM      3  C   UNL     1       8.361  -4.373  24.232  0.00  0.00    +0.085 A 
ATOM      4 CL   UNL     1       9.255  -5.403  25.292  0.00  0.00    -0.080 Cl
ATOM      5  C   UNL     1       7.012  -4.656  24.025  0.00  0.00    +0.043 A 
ATOM      6  C   UNL     1       6.258  -3.826  23.201  0.00  0.00    +0.044 A 
ATOM      7 CL   UNL     1       4.578  -4.124  22.989  0.00  0.00    -0.083 Cl
ATOM      8  C   UNL     1       6.852  -2.744  22.552  0.00  0.00    +0.038 A 
ATOM      9  C   UNL     1       8.215  -2.466  22.731  0.00  0.00    +0.057 A 
BRANCH   2  10
ATOM     10  O   UNL     1      10.258  -2.956  23.917  0.00  0.00    -0.504 OA
ATOM     11  H   UNL     1      10.257  -2.164  24.480  0.00  0.00    +0.292 HD
ENDBRANCH   2  10
ENDBRANCH   1   9
BRANCH   1  12
ATOM     12  C   UNL     1       8.866   0.341  22.979  0.00  0.00    +0.057 A 
ATOM     13  C   UNL     1       8.145   0.147  24.170  0.00  0.00    +0.038 A 
ATOM     14  C   UNL     1       8.072   1.150  25.138  0.00  0.00    +0.044 A 
ATOM     15 CL   UNL     1       7.139   0.894  26.560  0.00  0.00    -0.083 Cl
ATOM     16  C   UNL     1       8.736   2.355  24.957  0.00  0.00    +0.043 A 
ATOM     17  C   UNL     1       9.435   2.574  23.771  0.00  0.00    +0.085 A 
ATOM     18 CL   UNL     1      10.221   4.099  23.563  0.00  0.00    -0.080 Cl
ATOM     19  C   UNL     1       9.466   1.591  22.767  0.00  0.00    +0.149 A 
BRANCH  19  20
ATOM     20  O   UNL     1      10.048   1.917  21.572  0.00  0.00    -0.504 OA
ATOM     21  H   UNL     1       9.927   1.166  20.966  0.00  0.00    +0.292 HD
ENDBRANCH  19  20
ENDBRANCH   1  12
TORSDOF 4
ENDMDL
MODEL 3
REMARK VINA RESULT:      -6.0      0.055      6.550
REMARK  Name = 
REMARK  4 active torsions:
REMARK  status: ('A' for Active; 'I' for Inactive)
REMARK    1  A    between atoms: O_1  and  C_2
REMARK    2  A    between atoms: C_3  and  S_4
REMARK    3  A    between atoms: S_4  and  C_5
REMARK    4  A    between atoms: C_6  and  O_7
REMARK                            x       y       z     vdW  Elec       q    Type
REMARK                         _______ _______ _______ _____ _____    ______ ____
ROOT
ATOM      1  S   UNL     1       9.492  -3.690  24.541  0.00  0.00    -0.082 S 
ENDROOT
BRANCH   1   9
ATOM      2  C   UNL     1       9.654  -1.214  23.189  0.00  0.00    +0.149 A 
ATOM      3  C   UNL     1       9.448   0.173  23.129  0.00  0.00    +0.085 A 
ATOM      4 CL   UNL     1       9.962   1.103  21.767  0.00  0.00    -0.080 Cl
ATOM      5  C   UNL     1       8.792   0.835  24.165  0.00  0.00    +0.043 A 
ATOM      6  C   UNL     1       8.338   0.108  25.261  0.00  0.00    +0.044 A 
ATOM      7 CL   UNL     1       7.470   0.898  26.516  0.00  0.00    -0.083 Cl
ATOM      8  C   UNL     1       8.573  -1.265  25.347  0.00  0.00    +0.038 A 
ATOM      9  C   UNL     1       9.257  -1.936  24.323  0.00  0.00    +0.057 A 
BRANCH   2  10
ATOM     10  O   UNL     1      10.212  -1.848  22.110  0.00  0.00    -0.504 OA
ATOM     11  H   UNL     1       9.823  -2.736  22.047  0.00  0.00    +0.292 HD
ENDBRANCH   2  10
ENDBRANCH   1   9
BRANCH   1  12
ATOM     12  C   UNL     1       7.924  -4.501  24.239  0.00  0.00    +0.057 A 
ATOM     13  C   UNL     1       7.656  -4.794  22.890  0.00  0.00    +0.038 A 
ATOM     14  C   UNL     1       6.473  -5.431  22.513  0.00  0.00    +0.044 A 
ATOM     15 CL   UNL     1       6.159  -5.728  20.848  0.00  0.00    -0.083 Cl
ATOM     16  C   UNL     1       5.544  -5.816  23.469  0.00  0.00    +0.043 A 
ATOM     17  C   UNL     1       5.780  -5.511  24.808  0.00  0.00    +0.085 A 
ATOM     18 CL   UNL     1       4.585  -5.972  25.968  0.00  0.00    -0.080 Cl
ATOM     19  C   UNL     1       6.942  -4.819  25.190  0.00  0.00    +0.149 A 
BRANCH  19  20
ATOM     20  O   UNL     1       7.052  -4.425  26.496  0.00  0.00    -0.504 OA
ATOM     21  H   UNL     1       6.155  -4.342  26.860  0.00  0.00    +0.292 HD
ENDBRANCH  19  20
ENDBRANCH   1  12
TORSDOF 4
ENDMDL
MODEL 4
REMARK VINA RESULT:      -5.9      2.461      6.695
REMARK  Name = 
REMARK  4 active torsions:
REMARK  status: ('A' for Active; 'I' for Inactive)
REMARK    1  A    between atoms: O_1  and  C_2
REMARK    2  A    between atoms: C_3  and  S_4
REMARK    3  A    between atoms: S_4  and  C_5
REMARK    4  A    between atoms: C_6  and  O_7
REMARK                            x       y       z     vdW  Elec       q    Type
REMARK                         _______ _______ _______ _____ _____    ______ ____
ROOT
ATOM      1  S   UNL     1       9.025  -0.783  21.909  0.00  0.00    -0.082 S 
ENDROOT
BRANCH   1   9
ATOM      2  C   UNL     1       9.544   1.839  22.825  0.00  0.00    +0.149 A 
ATOM      3  C   UNL     1       9.449   2.846  23.799  0.00  0.00    +0.085 A 
ATOM      4 CL   UNL     1      10.205   4.384  23.582  0.00  0.00    -0.080 Cl
ATOM      5  C   UNL     1       8.712   2.635  24.963  0.00  0.00    +0.043 A 
ATOM      6  C   UNL     1       8.067   1.417  25.152  0.00  0.00    +0.044 A 
ATOM      7 CL   UNL     1       7.100   1.166  26.551  0.00  0.00    -0.083 Cl
ATOM      8  C   UNL     1       8.187   0.398  24.207  0.00  0.00    +0.038 A 
ATOM      9  C   UNL     1       8.949   0.589  23.046  0.00  0.00    +0.057 A 
BRANCH   2  10
ATOM     10  O   UNL     1      10.191   2.114  21.649  0.00  0.00    -0.504 OA
ATOM     11  H   UNL     1      10.959   1.523  21.582  0.00  0.00    +0.292 HD
ENDBRANCH   2  10
ENDBRANCH   1   9
BRANCH   1  12
ATOM     12  C   UNL     1       8.368  -2.228  22.740  0.00  0.00    +0.057 A 
ATOM     13  C   UNL     1       6.989  -2.439  22.566  0.00  0.00    +0.038 A 
ATOM     14  C   UNL     1       6.348  -3.531  23.153  0.00  0.00    +0.044 A 
ATOM     15 CL   UNL     1       4.651  -3.727  22.958  0.00  0.00    -0.083 Cl
ATOM     16  C   UNL     1       7.067  -4.451  23.902  0.00  0.00    +0.043 A 
ATOM     17  C   UNL     1       8.430  -4.245  24.106  0.00  0.00    +0.085 A 
ATOM     18 CL   UNL     1       9.288  -5.392  25.074  0.00  0.00    -0.080 Cl
ATOM     19  C   UNL     1       9.072  -3.118  23.566  0.00  0.00    +0.149 A 
BRANCH  19  20
ATOM     20  O   UNL     1      10.376  -2.894  23.917  0.00  0.00    -0.504 OA
ATOM     21  H   UNL     1      10.857  -2.617  23.119  0.00  0.00    +0.292 HD
ENDBRANCH  19  20
ENDBRANCH   1  12
TORSDOF 4
ENDMDL
MODEL 5
REMARK VINA RESULT:      -5.9      1.173      6.139
REMARK  Name = 
REMARK  4 active torsions:
REMARK  status: ('A' for Active; 'I' for Inactive)
REMARK    1  A    between atoms: O_1  and  C_2
REMARK    2  A    between atoms: C_3  and  S_4
REMARK    3  A    between atoms: S_4  and  C_5
REMARK    4  A    between atoms: C_6  and  O_7
REMARK                            x       y       z     vdW  Elec       q    Type
REMARK                         _______ _______ _______ _____ _____    ______ ____
ROOT
ATOM      1  S   UNL     1       9.439  -3.564  24.520  0.00  0.00    -0.082 S 
ENDROOT
BRANCH   1   9
ATOM      2  C   UNL     1       8.449  -1.101  25.488  0.00  0.00    +0.149 A 
ATOM      3  C   UNL     1       8.188   0.269  25.332  0.00  0.00    +0.085 A 
ATOM      4 CL   UNL     1       7.372   1.177  26.555  0.00  0.00    -0.080 Cl
ATOM      5  C   UNL     1       8.610   0.942  24.187  0.00  0.00    +0.043 A 
ATOM      6  C   UNL     1       9.297   0.244  23.198  0.00  0.00    +0.044 A 
ATOM      7 CL   UNL     1       9.882   1.074  21.811  0.00  0.00    -0.083 Cl
ATOM      8  C   UNL     1       9.527  -1.125  23.329  0.00  0.00    +0.038 A 
ATOM      9  C   UNL     1       9.082  -1.818  24.463  0.00  0.00    +0.057 A 
BRANCH   2  10
ATOM     10  O   UNL     1       8.110  -1.710  26.668  0.00  0.00    -0.504 OA
ATOM     11  H   UNL     1       8.921  -1.829  27.190  0.00  0.00    +0.292 HD
ENDBRANCH   2  10
ENDBRANCH   1   9
BRANCH   1  12
ATOM     12  C   UNL     1       7.906  -4.452  24.255  0.00  0.00    +0.057 A 
ATOM     13  C   UNL     1       7.617  -4.752  22.912  0.00  0.00    +0.038 A 
ATOM     14  C   UNL     1       6.458  -5.446  22.563  0.00  0.00    +0.044 A 
ATOM     15 CL   UNL     1       6.115  -5.752  20.905  0.00  0.00    -0.083 Cl
ATOM     16  C   UNL     1       5.575  -5.881  23.541  0.00  0.00    +0.043 A 
ATOM     17  C   UNL     1       5.832  -5.571  24.875  0.00  0.00    +0.085 A 
ATOM     18 CL   UNL     1       4.693  -6.096  26.064  0.00  0.00    -0.080 Cl
ATOM     19  C   UNL     1       6.967  -4.823  25.230  0.00  0.00    +0.149 A 
BRANCH  19  20
ATOM     20  O   UNL     1       7.092  -4.429  26.535  0.00  0.00    -0.504 OA
ATOM     21  H   UNL     1       6.293  -4.713  27.010  0.00  0.00    +0.292 HD
ENDBRANCH  19  20
ENDBRANCH   1  12
TORSDOF 4
ENDMDL
MODEL 6
REMARK VINA RESULT:      -5.8      1.182      2.373
REMARK  Name = 
REMARK  4 active torsions:
REMARK  status: ('A' for Active; 'I' for Inactive)
REMARK    1  A    between atoms: O_1  and  C_2
REMARK    2  A    between atoms: C_3  and  S_4
REMARK    3  A    between atoms: S_4  and  C_5
REMARK    4  A    between atoms: C_6  and  O_7
REMARK                            x       y       z     vdW  Elec       q    Type
REMARK                         _______ _______ _______ _____ _____    ______ ____
ROOT
ATOM      1  S   UNL     1       9.447  -3.566  24.506  0.00  0.00    -0.082 S 
ENDROOT
BRANCH   1   9
ATOM      2  C   UNL     1       7.016  -4.825  25.206  0.00  0.00    +0.149 A 
ATOM      3  C   UNL     1       5.863  -5.552  24.871  0.00  0.00    +0.085 A 
ATOM      4 CL   UNL     1       4.734  -6.060  26.075  0.00  0.00    -0.080 Cl
ATOM      5  C   UNL     1       5.584  -5.859  23.540  0.00  0.00    +0.043 A 
ATOM      6  C   UNL     1       6.459  -5.436  22.544  0.00  0.00    +0.044 A 
ATOM      7 CL   UNL     1       6.096  -5.751  20.893  0.00  0.00    -0.083 Cl
ATOM      8  C   UNL     1       7.626  -4.747  22.872  0.00  0.00    +0.038 A 
ATOM      9  C   UNL     1       7.930  -4.457  24.210  0.00  0.00    +0.057 A 
BRANCH   2  10
ATOM     10  O   UNL     1       7.207  -4.453  26.511  0.00  0.00    -0.504 OA
ATOM     11  H   UNL     1       8.109  -4.706  26.768  0.00  0.00    +0.292 HD
ENDBRANCH   2  10
ENDBRANCH   1   9
BRANCH   1  12
ATOM     12  C   UNL     1       9.074  -1.815  24.485  0.00  0.00    +0.057 A 
ATOM     13  C   UNL     1       9.515  -1.126  23.341  0.00  0.00    +0.038 A 
ATOM     14  C   UNL     1       9.285   0.242  23.192  0.00  0.00    +0.044 A 
ATOM     15 CL   UNL     1       9.884   1.059  21.801  0.00  0.00    -0.083 Cl
ATOM     16  C   UNL     1       8.589   0.950  24.160  0.00  0.00    +0.043 A 
ATOM     17  C   UNL     1       8.166   0.290  25.312  0.00  0.00    +0.085 A 
ATOM     18 CL   UNL     1       7.333   1.210  26.515  0.00  0.00    -0.080 Cl
ATOM     19  C   UNL     1       8.443  -1.075  25.497  0.00  0.00    +0.149 A 
BRANCH  19  20
ATOM     20  O   UNL     1       8.128  -1.634  26.706  0.00  0.00    -0.504 OA
ATOM     21  H   UNL     1       7.460  -1.070  27.131  0.00  0.00    +0.292 HD
ENDBRANCH  19  20
ENDBRANCH   1  12
TORSDOF 4
ENDMDL
MODEL 7
REMARK VINA RESULT:      -5.8      1.486      6.189
REMARK  Name = 
REMARK  4 active torsions:
REMARK  status: ('A' for Active; 'I' for Inactive)
REMARK    1  A    between atoms: O_1  and  C_2
REMARK    2  A    between atoms: C_3  and  S_4
REMARK    3  A    between atoms: S_4  and  C_5
REMARK    4  A    between atoms: C_6  and  O_7
REMARK                            x       y       z     vdW  Elec       q    Type
REMARK                         _______ _______ _______ _____ _____    ______ ____
ROOT
ATOM      1  S   UNL     1       8.568  -4.375  26.191  0.00  0.00    -0.082 S 
ENDROOT
BRANCH   1   9
ATOM      2  C   UNL     1       9.456  -2.146  24.699  0.00  0.00    +0.149 A 
ATOM      3  C   UNL     1       9.503  -0.764  24.458  0.00  0.00    +0.085 A 
ATOM      4 CL   UNL     1      10.474  -0.102  23.192  0.00  0.00    -0.080 Cl
ATOM      5  C   UNL     1       8.736   0.113  25.224  0.00  0.00    +0.043 A 
ATOM      6  C   UNL     1       7.920  -0.394  26.230  0.00  0.00    +0.044 A 
ATOM      7 CL   UNL     1       6.919   0.668  27.139  0.00  0.00    -0.083 Cl
ATOM      8  C   UNL     1       7.897  -1.762  26.502  0.00  0.00    +0.038 A 
ATOM      9  C   UNL     1       8.685  -2.650  25.756  0.00  0.00    +0.057 A 
BRANCH   2  10
ATOM     10  O   UNL     1      10.143  -2.988  23.864  0.00  0.00    -0.504 OA
ATOM     11  H   UNL     1      10.857  -2.480  23.445  0.00  0.00    +0.292 HD
ENDBRANCH   2  10
ENDBRANCH   1   9
BRANCH   1  12
ATOM     12  C   UNL     1       7.216  -5.091  25.259  0.00  0.00    +0.057 A 
ATOM     13  C   UNL     1       6.170  -5.619  26.037  0.00  0.00    +0.038 A 
ATOM     14  C   UNL     1       5.052  -6.201  25.438  0.00  0.00    +0.044 A 
ATOM     15 CL   UNL     1       3.817  -6.880  26.424  0.00  0.00    -0.083 Cl
ATOM     16  C   UNL     1       4.934  -6.247  24.057  0.00  0.00    +0.043 A 
ATOM     17  C   UNL     1       5.972  -5.752  23.270  0.00  0.00    +0.085 A 
ATOM     18 CL   UNL     1       5.809  -5.857  21.553  0.00  0.00    -0.080 Cl
ATOM     19  C   UNL     1       7.127  -5.215  23.864  0.00  0.00    +0.149 A 
BRANCH  19  20
ATOM     20  O   UNL     1       8.170  -4.875  23.044  0.00  0.00    -0.504 OA
ATOM     21  H   UNL     1       8.650  -5.690  22.817  0.00  0.00    +0.292 HD
ENDBRANCH  19  20
ENDBRANCH   1  12
TORSDOF 4
ENDMDL
MODEL 8
REMARK VINA RESULT:      -5.8      1.444      2.432
REMARK  Name = 
REMARK  4 active torsions:
REMARK  status: ('A' for Active; 'I' for Inactive)
REMARK    1  A    between atoms: O_1  and  C_2
REMARK    2  A    between atoms: C_3  and  S_4
REMARK    3  A    between atoms: S_4  and  C_5
REMARK    4  A    between atoms: C_6  and  O_7
REMARK                            x       y       z     vdW  Elec       q    Type
REMARK                         _______ _______ _______ _____ _____    ______ ____
ROOT
ATOM      1  S   UNL     1       9.656  -3.580  24.440  0.00  0.00    -0.082 S 
ENDROOT
BRANCH   1   9
ATOM      2  C   UNL     1       7.125  -4.674  23.826  0.00  0.00    +0.149 A 
ATOM      3  C   UNL     1       5.914  -5.272  24.211  0.00  0.00    +0.085 A 
ATOM      4 CL   UNL     1       4.676  -5.624  23.060  0.00  0.00    -0.080 Cl
ATOM      5  C   UNL     1       5.693  -5.626  25.541  0.00  0.00    +0.043 A 
ATOM      6  C   UNL     1       6.685  -5.384  26.487  0.00  0.00    +0.044 A 
ATOM      7 CL   UNL     1       6.454  -5.875  28.118  0.00  0.00    -0.083 Cl
ATOM      8  C   UNL     1       7.875  -4.755  26.120  0.00  0.00    +0.038 A 
ATOM      9  C   UNL     1       8.096  -4.370  24.790  0.00  0.00    +0.057 A 
BRANCH   2  10
ATOM     10  O   UNL     1       7.350  -4.431  22.497  0.00  0.00    -0.504 OA
ATOM     11  H   UNL     1       7.800  -3.574  22.419  0.00  0.00    +0.292 HD
ENDBRANCH   2  10
ENDBRANCH   1   9
BRANCH   1  12
ATOM     12  C   UNL     1       9.349  -1.832  24.194  0.00  0.00    +0.057 A 
ATOM     13  C   UNL     1       8.604  -1.210  25.210  0.00  0.00    +0.038 A 
ATOM     14  C   UNL     1       8.297   0.150  25.148  0.00  0.00    +0.044 A 
ATOM     15 CL   UNL     1       7.341   0.864  26.387  0.00  0.00    -0.083 Cl
ATOM     16  C   UNL     1       8.748   0.927  24.091  0.00  0.00    +0.043 A 
ATOM     17  C   UNL     1       9.467   0.323  23.062  0.00  0.00    +0.085 A 
ATOM     18 CL   UNL     1       9.982   1.313  21.742  0.00  0.00    -0.080 Cl
ATOM     19  C   UNL     1       9.731  -1.057  23.088  0.00  0.00    +0.149 A 
BRANCH  19  20
ATOM     20  O   UNL     1      10.316  -1.618  21.984  0.00  0.00    -0.504 OA
ATOM     21  H   UNL     1      10.682  -0.899  21.442  0.00  0.00    +0.292 HD
ENDBRANCH  19  20
ENDBRANCH   1  12
TORSDOF 4
ENDMDL
MODEL 9
REMARK VINA RESULT:      -5.7      2.789      6.446
REMARK  Name = 
REMARK  4 active torsions:
REMARK  status: ('A' for Active; 'I' for Inactive)
REMARK    1  A    between atoms: O_1  and  C_2
REMARK    2  A    between atoms: C_3  and  S_4
REMARK    3  A    between atoms: S_4  and  C_5
REMARK    4  A    between atoms: C_6  and  O_7
REMARK                            x       y       z     vdW  Elec       q    Type
REMARK                         _______ _______ _______ _____ _____    ______ ____
ROOT
ATOM      1  S   UNL     1       6.132  -1.151  24.649  0.00  0.00    -0.082 S 
ENDROOT
BRANCH   1   9
ATOM      2  C   UNL     1       6.902   1.264  23.401  0.00  0.00    +0.149 A 
ATOM      3  C   UNL     1       7.881   2.185  22.995  0.00  0.00    +0.085 A 
ATOM      4 CL   UNL     1       7.472   3.595  22.086  0.00  0.00    -0.080 Cl
ATOM      5  C   UNL     1       9.217   1.994  23.345  0.00  0.00    +0.043 A 
ATOM      6  C   UNL     1       9.573   0.883  24.104  0.00  0.00    +0.044 A 
ATOM      7 CL   UNL     1      11.205   0.670  24.599  0.00  0.00    -0.083 Cl
ATOM      8  C   UNL     1       8.612  -0.056  24.478  0.00  0.00    +0.038 A 
ATOM      9  C   UNL     1       7.270   0.111  24.108  0.00  0.00    +0.057 A 
BRANCH   2  10
ATOM     10  O   UNL     1       5.586   1.533  23.127  0.00  0.00    -0.504 OA
ATOM     11  H   UNL     1       5.178   1.891  23.933  0.00  0.00    +0.292 HD
ENDBRANCH   2  10
ENDBRANCH   1   9
BRANCH   1  12
ATOM     12  C   UNL     1       6.701  -2.723  24.004  0.00  0.00    +0.057 A 
ATOM     13  C   UNL     1       7.698  -3.354  24.768  0.00  0.00    +0.038 A 
ATOM     14  C   UNL     1       8.227  -4.587  24.383  0.00  0.00    +0.044 A 
ATOM     15 CL   UNL     1       9.480  -5.304  25.317  0.00  0.00    -0.083 Cl
ATOM     16  C   UNL     1       7.757  -5.232  23.248  0.00  0.00    +0.043 A 
ATOM     17  C   UNL     1       6.787  -4.610  22.465  0.00  0.00    +0.085 A 
ATOM     18 CL   UNL     1       6.252  -5.426  21.038  0.00  0.00    -0.080 Cl
ATOM     19  C   UNL     1       6.291  -3.343  22.814  0.00  0.00    +0.149 A 
BRANCH  19  20
ATOM     20  O   UNL     1       5.446  -2.722  21.933  0.00  0.00    -0.504 OA
ATOM     21  H   UNL     1       5.325  -3.311  21.170  0.00  0.00    +0.292 HD
ENDBRANCH  19  20
ENDBRANCH   1  12
TORSDOF 4
ENDMDL
