MODEL 1
REMARK VINA RESULT:      -7.2      0.000      0.000
REMARK  Name = 
REMARK  15 active torsions:
REMARK  status: ('A' for Active; 'I' for Inactive)
REMARK    1  A    between atoms: O_1  and  C_2
REMARK    2  A    between atoms: C_2  and  C_4
REMARK    3  A    between atoms: C_4  and  C_5
REMARK    4  A    between atoms: C_5  and  N_6
REMARK    5  A    between atoms: C_7  and  C_9
REMARK    6  A    between atoms: N_14  and  S_15
REMARK    7  A    between atoms: S_15  and  C_18
REMARK    8  A    between atoms: C_21  and  C_24
REMARK    9  A    between atoms: N_26  and  CA_27
REMARK   10  A    between atoms: CA_27  and  CB_29
REMARK   11  A    between atoms: CA_27  and  C_34
REMARK   12  A    between atoms: CB_29  and  CG_30
REMARK   13  A    between atoms: CG_30  and  CD_31
REMARK   14  A    between atoms: CD_31  and  OE1_32
REMARK   15  A    between atoms: C_34  and  O_35
REMARK                            x       y       z     vdW  Elec       q    Type
REMARK                         _______ _______ _______ _____ _____    ______ ____
ROOT
ATOM      1  C   UNK A   0       9.089   0.139  23.543  0.00  0.00    +0.106 A 
ATOM      2  C   UNK A   0       9.298  -0.385  24.823  0.00  0.00    +0.029 A 
ATOM      3  C   UNK A   0       8.997  -1.725  25.105  0.00  0.00    +0.015 A 
ATOM      4  C   UNK A   0       8.475  -2.558  24.106  0.00  0.00    +0.037 A 
ATOM      5  C   UNK A   0       8.299  -2.025  22.813  0.00  0.00    +0.015 A 
ATOM      6  C   UNK A   0       8.604  -0.682  22.525  0.00  0.00    +0.029 A 
ENDROOT
BRANCH   4   7
ATOM      7  C   UNK A   0       8.062  -3.982  24.359  0.00  0.00    +0.245 C 
ATOM      8  N   GLU A   1       7.052  -4.231  25.272  0.00  0.00    -0.298 N 
ATOM      9  H   GLU A   1       6.547  -3.463  25.699  0.00  0.00    +0.150 HD
ATOM     10  O   UNK A   0       8.592  -4.894  23.732  0.00  0.00    -0.270 OA
BRANCH   8  11
ATOM     11  CA  GLU A   1       6.456  -5.571  25.458  0.00  0.00    +0.182 C 
BRANCH  11  12
ATOM     12  C   GLU A   1       6.595  -5.945  26.944  0.00  0.00    +0.325 C 
ATOM     13  OXT GLU A   1       5.746  -6.496  27.624  0.00  0.00    -0.249 OA
BRANCH  12  14
ATOM     14  O   GLU A   1       7.830  -5.650  27.431  0.00  0.00    -0.479 OA
ATOM     15  H   GLU A   1       7.793  -5.474  28.394  0.00  0.00    +0.295 HD
ENDBRANCH  12  14
ENDBRANCH  11  12
BRANCH  11  16
ATOM     16  CB  GLU A   1       4.992  -5.659  25.005  0.00  0.00    +0.045 C 
BRANCH  16  17
ATOM     17  CG  GLU A   1       4.817  -6.412  23.687  0.00  0.00    +0.123 C 
BRANCH  17  18
ATOM     18  CD  GLU A   1       5.165  -5.568  22.485  0.00  0.00    +0.305 C 
ATOM     19  OE2 GLU A   1       5.110  -4.351  22.438  0.00  0.00    -0.251 OA
BRANCH  18  20
ATOM     20  OE1 GLU A   1       5.576  -6.322  21.439  0.00  0.00    -0.481 OA
ATOM     21  HE1 GLU A   1       6.311  -6.927  21.658  0.00  0.00    +0.295 HD
ENDBRANCH  18  20
ENDBRANCH  17  18
ENDBRANCH  16  17
ENDBRANCH  11  16
ENDBRANCH   8  11
ENDBRANCH   4   7
BRANCH   1  22
ATOM     22  S   UNK A   0       9.394   1.872  23.261  0.00  0.00    +0.062 S 
ATOM     23  O   UNK A   0       9.815   2.449  24.519  0.00  0.00    -0.153 OA
ATOM     24  O   UNK A   0      10.188   2.022  22.062  0.00  0.00    -0.153 OA
BRANCH  22  26
ATOM     25  C   UNK A   0       7.807   4.006  22.634  0.00  0.00    +0.165 C 
ATOM     26  N   UNK A   0       7.883   2.528  22.918  0.00  0.00    -0.165 NA
ATOM     27  C   UNK A   0       6.745   2.155  23.798  0.00  0.00    +0.110 C 
ATOM     28  C   UNK A   0       6.026   3.451  24.119  0.00  0.00    +0.019 C 
ATOM     29  C   UNK A   0       6.322   4.313  22.906  0.00  0.00    +0.031 C 
BRANCH  25  32
ATOM     30  N   UNK A   0       9.973   5.189  23.009  0.00  0.00    -0.313 N 
ATOM     31  H   UNK A   0      10.375   4.546  22.325  0.00  0.00    +0.149 HD
ATOM     32  C   UNK A   0       8.681   4.973  23.456  0.00  0.00    +0.232 C 
ATOM     33  O   UNK A   0       8.250   5.579  24.441  0.00  0.00    -0.274 OA
BRANCH  30  34
ATOM     34  C   UNK A   0      10.854   6.002  23.830  0.00  0.00    +0.115 C 
BRANCH  34  35
ATOM     35  C   UNK A   0      12.197   5.377  24.145  0.00  0.00    +0.139 C 
BRANCH  35  36
ATOM     36  C   UNK A   0      13.097   5.375  22.941  0.00  0.00    +0.306 C 
ATOM     37  O   UNK A   0      12.730   5.698  21.822  0.00  0.00    -0.251 OA
BRANCH  36  38
ATOM     38  O   UNK A   0      14.365   4.986  23.200  0.00  0.00    -0.481 OA
ATOM     39  H   UNK A   0      15.054   5.490  22.728  0.00  0.00    +0.295 HD
ENDBRANCH  36  38
ENDBRANCH  35  36
ENDBRANCH  34  35
ENDBRANCH  30  34
ENDBRANCH  25  32
ENDBRANCH  22  26
ENDBRANCH   1  22
TORSDOF 15
ENDMDL
MODEL 2
REMARK VINA RESULT:      -7.1      1.706      2.110
REMARK  Name = 
REMARK  15 active torsions:
REMARK  status: ('A' for Active; 'I' for Inactive)
REMARK    1  A    between atoms: O_1  and  C_2
REMARK    2  A    between atoms: C_2  and  C_4
REMARK    3  A    between atoms: C_4  and  C_5
REMARK    4  A    between atoms: C_5  and  N_6
REMARK    5  A    between atoms: C_7  and  C_9
REMARK    6  A    between atoms: N_14  and  S_15
REMARK    7  A    between atoms: S_15  and  C_18
REMARK    8  A    between atoms: C_21  and  C_24
REMARK    9  A    between atoms: N_26  and  CA_27
REMARK   10  A    between atoms: CA_27  and  CB_29
REMARK   11  A    between atoms: CA_27  and  C_34
REMARK   12  A    between atoms: CB_29  and  CG_30
REMARK   13  A    between atoms: CG_30  and  CD_31
REMARK   14  A    between atoms: CD_31  and  OE1_32
REMARK   15  A    between atoms: C_34  and  O_35
REMARK                            x       y       z     vdW  Elec       q    Type
REMARK                         _______ _______ _______ _____ _____    ______ ____
ROOT
ATOM      1  C   UNK A   0       8.921  -1.595  24.502  0.00  0.00    +0.106 A 
ATOM      2  C   UNK A   0       8.631  -1.680  25.868  0.00  0.00    +0.029 A 
ATOM      3  C   UNK A   0       8.053  -2.838  26.405  0.00  0.00    +0.015 A 
ATOM      4  C   UNK A   0       7.752  -3.928  25.579  0.00  0.00    +0.037 A 
ATOM      5  C   UNK A   0       8.078  -3.841  24.210  0.00  0.00    +0.015 A 
ATOM      6  C   UNK A   0       8.662  -2.682  23.667  0.00  0.00    +0.029 A 
ENDROOT
BRANCH   4   7
ATOM      7  C   UNK A   0       7.065  -5.171  26.076  0.00  0.00    +0.245 C 
ATOM      8  N   GLU A   1       5.729  -5.361  25.770  0.00  0.00    -0.298 N 
ATOM      9  H   GLU A   1       5.248  -4.717  25.154  0.00  0.00    +0.150 HD
ATOM     10  O   UNK A   0       7.700  -6.009  26.708  0.00  0.00    -0.270 OA
BRANCH   8  11
ATOM     11  CA  GLU A   1       5.016  -6.624  26.058  0.00  0.00    +0.182 C 
BRANCH  11  12
ATOM     12  C   GLU A   1       4.730  -6.668  27.569  0.00  0.00    +0.325 C 
ATOM     13  OXT GLU A   1       3.863  -6.035  28.150  0.00  0.00    -0.249 OA
BRANCH  12  14
ATOM     14  O   GLU A   1       5.522  -7.565  28.214  0.00  0.00    -0.479 OA
ATOM     15  H   GLU A   1       6.403  -7.622  27.789  0.00  0.00    +0.295 HD
ENDBRANCH  12  14
ENDBRANCH  11  12
BRANCH  11  16
ATOM     16  CB  GLU A   1       3.723  -6.797  25.249  0.00  0.00    +0.045 C 
BRANCH  16  17
ATOM     17  CG  GLU A   1       3.080  -5.467  24.857  0.00  0.00    +0.123 C 
BRANCH  17  18
ATOM     18  CD  GLU A   1       3.194  -5.181  23.379  0.00  0.00    +0.305 C 
ATOM     19  OE2 GLU A   1       4.169  -4.703  22.825  0.00  0.00    -0.251 OA
BRANCH  18  20
ATOM     20  OE1 GLU A   1       2.075  -5.540  22.707  0.00  0.00    -0.481 OA
ATOM     21  HE1 GLU A   1       1.911  -6.503  22.707  0.00  0.00    +0.295 HD
ENDBRANCH  18  20
ENDBRANCH  17  18
ENDBRANCH  16  17
ENDBRANCH  11  16
ENDBRANCH   8  11
ENDBRANCH   4   7
BRANCH   1  22
ATOM     22  S   UNK A   0       9.563  -0.066  23.850  0.00  0.00    +0.062 S 
ATOM     23  O   UNK A   0       9.772   0.829  24.968  0.00  0.00    -0.153 OA
ATOM     24  O   UNK A   0      10.626  -0.362  22.915  0.00  0.00    -0.153 OA
BRANCH  22  26
ATOM     25  C   UNK A   0       8.542   1.898  22.248  0.00  0.00    +0.165 C 
ATOM     26  N   UNK A   0       8.301   0.585  22.949  0.00  0.00    -0.165 NA
ATOM     27  C   UNK A   0       6.949   0.617  23.564  0.00  0.00    +0.110 C 
ATOM     28  C   UNK A   0       6.406   2.009  23.303  0.00  0.00    +0.019 C 
ATOM     29  C   UNK A   0       7.108   2.412  22.019  0.00  0.00    +0.031 C 
BRANCH  25  32
ATOM     30  N   UNK A   0      10.728   2.994  22.749  0.00  0.00    -0.313 N 
ATOM     31  H   UNK A   0      11.169   2.168  22.342  0.00  0.00    +0.149 HD
ATOM     32  C   UNK A   0       9.360   2.989  22.965  0.00  0.00    +0.232 C 
ATOM     33  O   UNK A   0       8.834   3.862  23.659  0.00  0.00    -0.274 OA
BRANCH  30  34
ATOM     34  C   UNK A   0      11.535   3.937  23.504  0.00  0.00    +0.115 C 
BRANCH  34  35
ATOM     35  C   UNK A   0      11.830   5.242  22.795  0.00  0.00    +0.139 C 
BRANCH  35  36
ATOM     36  C   UNK A   0      13.292   5.371  22.467  0.00  0.00    +0.306 C 
ATOM     37  O   UNK A   0      13.712   5.894  21.446  0.00  0.00    -0.251 OA
BRANCH  36  38
ATOM     38  O   UNK A   0      14.117   4.859  23.407  0.00  0.00    -0.481 OA
ATOM     39  H   UNK A   0      13.930   5.148  24.319  0.00  0.00    +0.295 HD
ENDBRANCH  36  38
ENDBRANCH  35  36
ENDBRANCH  34  35
ENDBRANCH  30  34
ENDBRANCH  25  32
ENDBRANCH  22  26
ENDBRANCH   1  22
TORSDOF 15
ENDMDL
MODEL 3
REMARK VINA RESULT:      -6.9      2.549      8.424
REMARK  Name = 
REMARK  15 active torsions:
REMARK  status: ('A' for Active; 'I' for Inactive)
REMARK    1  A    between atoms: O_1  and  C_2
REMARK    2  A    between atoms: C_2  and  C_4
REMARK    3  A    between atoms: C_4  and  C_5
REMARK    4  A    between atoms: C_5  and  N_6
REMARK    5  A    between atoms: C_7  and  C_9
REMARK    6  A    between atoms: N_14  and  S_15
REMARK    7  A    between atoms: S_15  and  C_18
REMARK    8  A    between atoms: C_21  and  C_24
REMARK    9  A    between atoms: N_26  and  CA_27
REMARK   10  A    between atoms: CA_27  and  CB_29
REMARK   11  A    between atoms: CA_27  and  C_34
REMARK   12  A    between atoms: CB_29  and  CG_30
REMARK   13  A    between atoms: CG_30  and  CD_31
REMARK   14  A    between atoms: CD_31  and  OE1_32
REMARK   15  A    between atoms: C_34  and  O_35
REMARK                            x       y       z     vdW  Elec       q    Type
REMARK                         _______ _______ _______ _____ _____    ______ ____
ROOT
ATOM      1  C   UNK A   0       6.479  -0.447  24.990  0.00  0.00    +0.106 A 
ATOM      2  C   UNK A   0       6.902  -0.104  26.279  0.00  0.00    +0.029 A 
ATOM      3  C   UNK A   0       7.363   1.189  26.559  0.00  0.00    +0.015 A 
ATOM      4  C   UNK A   0       7.411   2.158  25.549  0.00  0.00    +0.037 A 
ATOM      5  C   UNK A   0       6.952   1.808  24.262  0.00  0.00    +0.015 A 
ATOM      6  C   UNK A   0       6.485   0.513  23.977  0.00  0.00    +0.029 A 
ENDROOT
BRANCH   4   7
ATOM      7  C   UNK A   0       7.962   3.542  25.764  0.00  0.00    +0.245 C 
ATOM      8  N   GLU A   1       8.748   4.107  24.775  0.00  0.00    -0.298 N 
ATOM      9  H   GLU A   1       8.880   3.630  23.891  0.00  0.00    +0.150 HD
ATOM     10  O   UNK A   0       7.680   4.161  26.785  0.00  0.00    -0.270 OA
BRANCH   8  11
ATOM     11  CA  GLU A   1       9.187   5.519  24.812  0.00  0.00    +0.182 C 
BRANCH  11  12
ATOM     12  C   GLU A   1      10.542   5.608  24.091  0.00  0.00    +0.325 C 
ATOM     13  OXT GLU A   1      11.426   6.415  24.329  0.00  0.00    -0.249 OA
BRANCH  12  14
ATOM     14  O   GLU A   1      10.696   4.620  23.169  0.00  0.00    -0.479 OA
ATOM     15  H   GLU A   1      10.032   3.913  23.300  0.00  0.00    +0.295 HD
ENDBRANCH  12  14
ENDBRANCH  11  12
BRANCH  11  16
ATOM     16  CB  GLU A   1       8.172   6.493  24.198  0.00  0.00    +0.045 C 
BRANCH  16  17
ATOM     17  CG  GLU A   1       6.985   5.787  23.543  0.00  0.00    +0.123 C 
BRANCH  17  18
ATOM     18  CD  GLU A   1       7.313   5.255  22.169  0.00  0.00    +0.305 C 
ATOM     19  OE2 GLU A   1       7.405   4.076  21.872  0.00  0.00    -0.251 OA
BRANCH  18  20
ATOM     20  OE1 GLU A   1       7.481   6.251  21.268  0.00  0.00    -0.481 OA
ATOM     21  HE1 GLU A   1       8.355   6.685  21.323  0.00  0.00    +0.295 HD
ENDBRANCH  18  20
ENDBRANCH  17  18
ENDBRANCH  16  17
ENDBRANCH  11  16
ENDBRANCH   8  11
ENDBRANCH   4   7
BRANCH   1  22
ATOM     22  S   UNK A   0       5.996  -2.130  24.660  0.00  0.00    +0.062 S 
ATOM     23  O   UNK A   0       4.599  -2.259  25.014  0.00  0.00    -0.153 OA
ATOM     24  O   UNK A   0       6.477  -2.510  23.350  0.00  0.00    -0.153 OA
BRANCH  22  26
ATOM     25  C   UNK A   0       8.352  -2.875  25.825  0.00  0.00    +0.165 C 
ATOM     26  N   UNK A   0       6.856  -3.053  25.772  0.00  0.00    -0.165 NA
ATOM     27  C   UNK A   0       6.548  -4.503  25.862  0.00  0.00    +0.110 C 
ATOM     28  C   UNK A   0       7.888  -5.213  25.879  0.00  0.00    +0.019 C 
ATOM     29  C   UNK A   0       8.811  -4.182  26.501  0.00  0.00    +0.031 C 
BRANCH  25  32
ATOM     30  N   UNK A   0       9.562  -1.407  24.209  0.00  0.00    -0.313 N 
ATOM     31  H   UNK A   0       9.160  -0.616  24.717  0.00  0.00    +0.149 HD
ATOM     32  C   UNK A   0       9.131  -2.687  24.509  0.00  0.00    +0.232 C 
ATOM     33  O   UNK A   0       9.416  -3.632  23.768  0.00  0.00    -0.274 OA
BRANCH  30  34
ATOM     34  C   UNK A   0      10.194  -1.181  22.921  0.00  0.00    +0.115 C 
BRANCH  34  35
ATOM     35  C   UNK A   0       9.541  -0.119  22.061  0.00  0.00    +0.139 C 
BRANCH  35  36
ATOM     36  C   UNK A   0       9.967   1.262  22.477  0.00  0.00    +0.306 C 
ATOM     37  O   UNK A   0      10.428   1.524  23.577  0.00  0.00    -0.251 OA
BRANCH  36  38
ATOM     38  O   UNK A   0       9.801   2.203  21.522  0.00  0.00    -0.481 OA
ATOM     39  H   UNK A   0      10.368   2.990  21.618  0.00  0.00    +0.295 HD
ENDBRANCH  36  38
ENDBRANCH  35  36
ENDBRANCH  34  35
ENDBRANCH  30  34
ENDBRANCH  25  32
ENDBRANCH  22  26
ENDBRANCH   1  22
TORSDOF 15
ENDMDL
MODEL 4
REMARK VINA RESULT:      -6.7      2.091      9.982
REMARK  Name = 
REMARK  15 active torsions:
REMARK  status: ('A' for Active; 'I' for Inactive)
REMARK    1  A    between atoms: O_1  and  C_2
REMARK    2  A    between atoms: C_2  and  C_4
REMARK    3  A    between atoms: C_4  and  C_5
REMARK    4  A    between atoms: C_5  and  N_6
REMARK    5  A    between atoms: C_7  and  C_9
REMARK    6  A    between atoms: N_14  and  S_15
REMARK    7  A    between atoms: S_15  and  C_18
REMARK    8  A    between atoms: C_21  and  C_24
REMARK    9  A    between atoms: N_26  and  CA_27
REMARK   10  A    between atoms: CA_27  and  CB_29
REMARK   11  A    between atoms: CA_27  and  C_34
REMARK   12  A    between atoms: CB_29  and  CG_30
REMARK   13  A    between atoms: CG_30  and  CD_31
REMARK   14  A    between atoms: CD_31  and  OE1_32
REMARK   15  A    between atoms: C_34  and  O_35
REMARK                            x       y       z     vdW  Elec       q    Type
REMARK                         _______ _______ _______ _____ _____    ______ ____
ROOT
ATOM      1  C   UNK A   0       8.099  -0.035  23.357  0.00  0.00    +0.106 A 
ATOM      2  C   UNK A   0       7.110   0.814  22.849  0.00  0.00    +0.029 A 
ATOM      3  C   UNK A   0       7.265   2.206  22.908  0.00  0.00    +0.015 A 
ATOM      4  C   UNK A   0       8.412   2.767  23.484  0.00  0.00    +0.037 A 
ATOM      5  C   UNK A   0       9.414   1.899  23.964  0.00  0.00    +0.015 A 
ATOM      6  C   UNK A   0       9.265   0.502  23.902  0.00  0.00    +0.029 A 
ENDROOT
BRANCH   4   7
ATOM      7  C   UNK A   0       8.608   4.250  23.646  0.00  0.00    +0.245 C 
ATOM      8  N   GLU A   1       9.460   4.705  24.636  0.00  0.00    -0.298 N 
ATOM      9  H   GLU A   1      10.004   4.050  25.185  0.00  0.00    +0.150 HD
ATOM     10  O   UNK A   0       8.044   5.029  22.883  0.00  0.00    -0.270 OA
BRANCH   8  11
ATOM     11  CA  GLU A   1       9.854   6.125  24.760  0.00  0.00    +0.182 C 
BRANCH  11  12
ATOM     12  C   GLU A   1       9.018   6.748  25.891  0.00  0.00    +0.325 C 
ATOM     13  OXT GLU A   1       7.855   7.108  25.804  0.00  0.00    -0.249 OA
BRANCH  12  14
ATOM     14  O   GLU A   1       9.703   6.800  27.064  0.00  0.00    -0.479 OA
ATOM     15  H   GLU A   1      10.604   6.431  26.959  0.00  0.00    +0.295 HD
ENDBRANCH  12  14
ENDBRANCH  11  12
BRANCH  11  16
ATOM     16  CB  GLU A   1      11.355   6.325  25.013  0.00  0.00    +0.045 C 
BRANCH  16  17
ATOM     17  CG  GLU A   1      12.182   6.347  23.729  0.00  0.00    +0.123 C 
BRANCH  17  18
ATOM     18  CD  GLU A   1      12.762   4.995  23.389  0.00  0.00    +0.305 C 
ATOM     19  OE2 GLU A   1      12.128   3.959  23.289  0.00  0.00    -0.251 OA
BRANCH  18  20
ATOM     20  OE1 GLU A   1      14.099   5.057  23.182  0.00  0.00    -0.481 OA
ATOM     21  HE1 GLU A   1      14.628   4.794  23.960  0.00  0.00    +0.295 HD
ENDBRANCH  18  20
ENDBRANCH  17  18
ENDBRANCH  16  17
ENDBRANCH  11  16
ENDBRANCH   8  11
ENDBRANCH   4   7
BRANCH   1  22
ATOM     22  S   UNK A   0       7.812  -1.794  23.348  0.00  0.00    +0.062 S 
ATOM     23  O   UNK A   0       6.386  -2.001  23.220  0.00  0.00    -0.153 OA
ATOM     24  O   UNK A   0       8.747  -2.419  22.439  0.00  0.00    -0.153 OA
BRANCH  22  26
ATOM     25  C   UNK A   0       8.661  -3.744  25.064  0.00  0.00    +0.165 C 
ATOM     26  N   UNK A   0       8.230  -2.309  24.894  0.00  0.00    -0.165 NA
ATOM     27  C   UNK A   0       7.328  -1.949  26.017  0.00  0.00    +0.110 C 
ATOM     28  C   UNK A   0       7.142  -3.219  26.826  0.00  0.00    +0.019 C 
ATOM     29  C   UNK A   0       8.433  -3.975  26.570  0.00  0.00    +0.031 C 
BRANCH  25  32
ATOM     30  N   UNK A   0       6.547  -4.839  24.313  0.00  0.00    -0.313 N 
ATOM     31  H   UNK A   0       6.076  -4.290  25.034  0.00  0.00    +0.149 HD
ATOM     32  C   UNK A   0       7.931  -4.843  24.269  0.00  0.00    +0.232 C 
ATOM     33  O   UNK A   0       8.531  -5.666  23.572  0.00  0.00    -0.274 OA
BRANCH  30  34
ATOM     34  C   UNK A   0       5.839  -5.933  23.670  0.00  0.00    +0.115 C 
BRANCH  34  35
ATOM     35  C   UNK A   0       5.064  -5.553  22.426  0.00  0.00    +0.139 C 
BRANCH  35  36
ATOM     36  C   UNK A   0       5.973  -5.017  21.355  0.00  0.00    +0.306 C 
ATOM     37  O   UNK A   0       5.763  -3.978  20.748  0.00  0.00    -0.251 OA
BRANCH  36  38
ATOM     38  O   UNK A   0       7.059  -5.784  21.115  0.00  0.00    -0.481 OA
ATOM     39  H   UNK A   0       7.139  -6.572  21.684  0.00  0.00    +0.295 HD
ENDBRANCH  36  38
ENDBRANCH  35  36
ENDBRANCH  34  35
ENDBRANCH  30  34
ENDBRANCH  25  32
ENDBRANCH  22  26
ENDBRANCH   1  22
TORSDOF 15
ENDMDL
MODEL 5
REMARK VINA RESULT:      -6.7      2.118     10.369
REMARK  Name = 
REMARK  15 active torsions:
REMARK  status: ('A' for Active; 'I' for Inactive)
REMARK    1  A    between atoms: O_1  and  C_2
REMARK    2  A    between atoms: C_2  and  C_4
REMARK    3  A    between atoms: C_4  and  C_5
REMARK    4  A    between atoms: C_5  and  N_6
REMARK    5  A    between atoms: C_7  and  C_9
REMARK    6  A    between atoms: N_14  and  S_15
REMARK    7  A    between atoms: S_15  and  C_18
REMARK    8  A    between atoms: C_21  and  C_24
REMARK    9  A    between atoms: N_26  and  CA_27
REMARK   10  A    between atoms: CA_27  and  CB_29
REMARK   11  A    between atoms: CA_27  and  C_34
REMARK   12  A    between atoms: CB_29  and  CG_30
REMARK   13  A    between atoms: CG_30  and  CD_31
REMARK   14  A    between atoms: CD_31  and  OE1_32
REMARK   15  A    between atoms: C_34  and  O_35
REMARK                            x       y       z     vdW  Elec       q    Type
REMARK                         _______ _______ _______ _____ _____    ______ ____
ROOT
ATOM      1  C   UNK A   0       8.202  -1.940  24.410  0.00  0.00    +0.106 A 
ATOM      2  C   UNK A   0       9.571  -1.653  24.441  0.00  0.00    +0.029 A 
ATOM      3  C   UNK A   0      10.049  -0.405  24.016  0.00  0.00    +0.015 A 
ATOM      4  C   UNK A   0       9.160   0.571  23.548  0.00  0.00    +0.037 A 
ATOM      5  C   UNK A   0       7.781   0.279  23.552  0.00  0.00    +0.015 A 
ATOM      6  C   UNK A   0       7.296  -0.970  23.982  0.00  0.00    +0.029 A 
ENDROOT
BRANCH   4   7
ATOM      7  C   UNK A   0       9.611   1.901  23.008  0.00  0.00    +0.245 C 
ATOM      8  N   GLU A   1       9.477   3.024  23.805  0.00  0.00    -0.298 N 
ATOM      9  H   GLU A   1       9.156   2.937  24.762  0.00  0.00    +0.150 HD
ATOM     10  O   UNK A   0      10.124   1.967  21.895  0.00  0.00    -0.270 OA
BRANCH   8  11
ATOM     11  CA  GLU A   1      10.049   4.337  23.438  0.00  0.00    +0.182 C 
BRANCH  11  12
ATOM     12  C   GLU A   1       9.310   5.415  24.250  0.00  0.00    +0.325 C 
ATOM     13  OXT GLU A   1       9.012   5.340  25.431  0.00  0.00    -0.249 OA
BRANCH  12  14
ATOM     14  O   GLU A   1       9.069   6.533  23.515  0.00  0.00    -0.479 OA
ATOM     15  H   GLU A   1       8.607   7.211  24.050  0.00  0.00    +0.295 HD
ENDBRANCH  12  14
ENDBRANCH  11  12
BRANCH  11  16
ATOM     16  CB  GLU A   1      11.566   4.428  23.658  0.00  0.00    +0.045 C 
BRANCH  16  17
ATOM     17  CG  GLU A   1      12.162   5.752  23.182  0.00  0.00    +0.123 C 
BRANCH  17  18
ATOM     18  CD  GLU A   1      13.509   5.578  22.524  0.00  0.00    +0.305 C 
ATOM     19  OE2 GLU A   1      13.821   6.011  21.429  0.00  0.00    -0.251 OA
BRANCH  18  20
ATOM     20  OE1 GLU A   1      14.370   4.888  23.310  0.00  0.00    -0.481 OA
ATOM     21  HE1 GLU A   1      15.281   5.239  23.293  0.00  0.00    +0.295 HD
ENDBRANCH  18  20
ENDBRANCH  17  18
ENDBRANCH  16  17
ENDBRANCH  11  16
ENDBRANCH   8  11
ENDBRANCH   4   7
BRANCH   1  22
ATOM     22  S   UNK A   0       7.653  -3.573  24.867  0.00  0.00    +0.062 S 
ATOM     23  O   UNK A   0       8.781  -4.468  24.716  0.00  0.00    -0.153 OA
ATOM     24  O   UNK A   0       6.920  -3.493  26.111  0.00  0.00    -0.153 OA
BRANCH  22  26
ATOM     25  C   UNK A   0       5.179  -4.468  24.132  0.00  0.00    +0.165 C 
ATOM     26  N   UNK A   0       6.541  -4.004  23.682  0.00  0.00    -0.165 NA
ATOM     27  C   UNK A   0       7.002  -4.886  22.580  0.00  0.00    +0.110 C 
ATOM     28  C   UNK A   0       5.936  -5.954  22.428  0.00  0.00    +0.019 C 
ATOM     29  C   UNK A   0       4.679  -5.249  22.902  0.00  0.00    +0.031 C 
BRANCH  25  32
ATOM     30  N   UNK A   0       4.404  -4.847  26.475  0.00  0.00    -0.313 N 
ATOM     31  H   UNK A   0       4.228  -3.841  26.517  0.00  0.00    +0.149 HD
ATOM     32  C   UNK A   0       5.070  -5.368  25.378  0.00  0.00    +0.232 C 
ATOM     33  O   UNK A   0       5.501  -6.524  25.400  0.00  0.00    -0.274 OA
BRANCH  30  34
ATOM     34  C   UNK A   0       4.389  -5.627  27.700  0.00  0.00    +0.115 C 
BRANCH  34  35
ATOM     35  C   UNK A   0       5.477  -5.282  28.695  0.00  0.00    +0.139 C 
BRANCH  35  36
ATOM     36  C   UNK A   0       6.602  -6.279  28.646  0.00  0.00    +0.306 C 
ATOM     37  O   UNK A   0       6.657  -7.271  29.357  0.00  0.00    -0.251 OA
BRANCH  36  38
ATOM     38  O   UNK A   0       7.559  -5.989  27.737  0.00  0.00    -0.481 OA
ATOM     39  H   UNK A   0       8.465  -5.944  28.095  0.00  0.00    +0.295 HD
ENDBRANCH  36  38
ENDBRANCH  35  36
ENDBRANCH  34  35
ENDBRANCH  30  34
ENDBRANCH  25  32
ENDBRANCH  22  26
ENDBRANCH   1  22
TORSDOF 15
ENDMDL
MODEL 6
REMARK VINA RESULT:      -6.5      2.371      9.636
REMARK  Name = 
REMARK  15 active torsions:
REMARK  status: ('A' for Active; 'I' for Inactive)
REMARK    1  A    between atoms: O_1  and  C_2
REMARK    2  A    between atoms: C_2  and  C_4
REMARK    3  A    between atoms: C_4  and  C_5
REMARK    4  A    between atoms: C_5  and  N_6
REMARK    5  A    between atoms: C_7  and  C_9
REMARK    6  A    between atoms: N_14  and  S_15
REMARK    7  A    between atoms: S_15  and  C_18
REMARK    8  A    between atoms: C_21  and  C_24
REMARK    9  A    between atoms: N_26  and  CA_27
REMARK   10  A    between atoms: CA_27  and  CB_29
REMARK   11  A    between atoms: CA_27  and  C_34
REMARK   12  A    between atoms: CB_29  and  CG_30
REMARK   13  A    between atoms: CG_30  and  CD_31
REMARK   14  A    between atoms: CD_31  and  OE1_32
REMARK   15  A    between atoms: C_34  and  O_35
REMARK                            x       y       z     vdW  Elec       q    Type
REMARK                         _______ _______ _______ _____ _____    ______ ____
ROOT
ATOM      1  C   UNK A   0       8.516  -2.531  24.974  0.00  0.00    +0.106 A 
ATOM      2  C   UNK A   0       9.095  -1.712  23.998  0.00  0.00    +0.029 A 
ATOM      3  C   UNK A   0       9.057  -0.317  24.121  0.00  0.00    +0.015 A 
ATOM      4  C   UNK A   0       8.433   0.280  25.224  0.00  0.00    +0.037 A 
ATOM      5  C   UNK A   0       7.881  -0.557  26.215  0.00  0.00    +0.015 A 
ATOM      6  C   UNK A   0       7.920  -1.958  26.098  0.00  0.00    +0.029 A 
ENDROOT
BRANCH   4   7
ATOM      7  C   UNK A   0       8.292   1.770  25.381  0.00  0.00    +0.245 C 
ATOM      8  N   GLU A   1       8.994   2.599  24.525  0.00  0.00    -0.298 N 
ATOM      9  H   GLU A   1       9.526   2.210  23.756  0.00  0.00    +0.150 HD
ATOM     10  O   UNK A   0       7.535   2.226  26.232  0.00  0.00    -0.270 OA
BRANCH   8  11
ATOM     11  CA  GLU A   1       8.786   4.063  24.482  0.00  0.00    +0.182 C 
BRANCH  11  12
ATOM     12  C   GLU A   1      10.010   4.690  23.792  0.00  0.00    +0.325 C 
ATOM     13  OXT GLU A   1      10.315   5.872  23.815  0.00  0.00    -0.249 OA
BRANCH  12  14
ATOM     14  O   GLU A   1      10.789   3.756  23.185  0.00  0.00    -0.479 OA
ATOM     15  H   GLU A   1      11.591   3.571  23.716  0.00  0.00    +0.295 HD
ENDBRANCH  12  14
ENDBRANCH  11  12
BRANCH  11  16
ATOM     16  CB  GLU A   1       7.486   4.478  23.780  0.00  0.00    +0.045 C 
BRANCH  16  17
ATOM     17  CG  GLU A   1       7.489   4.169  22.284  0.00  0.00    +0.123 C 
BRANCH  17  18
ATOM     18  CD  GLU A   1       7.580   2.689  21.997  0.00  0.00    +0.305 C 
ATOM     19  OE2 GLU A   1       6.698   1.874  22.204  0.00  0.00    -0.251 OA
BRANCH  18  20
ATOM     20  OE1 GLU A   1       8.773   2.353  21.452  0.00  0.00    -0.481 OA
ATOM     21  HE1 GLU A   1       9.045   2.937  20.717  0.00  0.00    +0.295 HD
ENDBRANCH  18  20
ENDBRANCH  17  18
ENDBRANCH  16  17
ENDBRANCH  11  16
ENDBRANCH   8  11
ENDBRANCH   4   7
BRANCH   1  22
ATOM     22  S   UNK A   0       8.502  -4.295  24.723  0.00  0.00    +0.062 S 
ATOM     23  O   UNK A   0       9.878  -4.727  24.606  0.00  0.00    -0.153 OA
ATOM     24  O   UNK A   0       7.603  -4.900  25.680  0.00  0.00    -0.153 OA
BRANCH  22  26
ATOM     25  C   UNK A   0       6.457  -3.885  22.960  0.00  0.00    +0.165 C 
ATOM     26  N   UNK A   0       7.805  -4.512  23.208  0.00  0.00    -0.165 NA
ATOM     27  C   UNK A   0       7.806  -5.879  22.628  0.00  0.00    +0.110 C 
ATOM     28  C   UNK A   0       6.403  -6.109  22.102  0.00  0.00    +0.019 C 
ATOM     29  C   UNK A   0       5.932  -4.706  21.766  0.00  0.00    +0.031 C 
BRANCH  25  32
ATOM     30  N   UNK A   0       5.028  -5.141  24.576  0.00  0.00    -0.313 N 
ATOM     31  H   UNK A   0       5.258  -5.978  24.038  0.00  0.00    +0.149 HD
ATOM     32  C   UNK A   0       5.405  -3.902  24.085  0.00  0.00    +0.232 C 
ATOM     33  O   UNK A   0       4.947  -2.869  24.580  0.00  0.00    -0.274 OA
BRANCH  30  34
ATOM     34  C   UNK A   0       3.954  -5.192  25.553  0.00  0.00    +0.115 C 
BRANCH  34  35
ATOM     35  C   UNK A   0       2.657  -5.793  25.053  0.00  0.00    +0.139 C 
BRANCH  35  36
ATOM     36  C   UNK A   0       2.857  -6.531  23.759  0.00  0.00    +0.306 C 
ATOM     37  O   UNK A   0       2.580  -6.064  22.665  0.00  0.00    -0.251 OA
BRANCH  36  38
ATOM     38  O   UNK A   0       3.380  -7.769  23.902  0.00  0.00    -0.481 OA
ATOM     39  H   UNK A   0       4.274  -7.794  24.292  0.00  0.00    +0.295 HD
ENDBRANCH  36  38
ENDBRANCH  35  36
ENDBRANCH  34  35
ENDBRANCH  30  34
ENDBRANCH  25  32
ENDBRANCH  22  26
ENDBRANCH   1  22
TORSDOF 15
ENDMDL
MODEL 7
REMARK VINA RESULT:      -6.5      2.773      8.035
REMARK  Name = 
REMARK  15 active torsions:
REMARK  status: ('A' for Active; 'I' for Inactive)
REMARK    1  A    between atoms: O_1  and  C_2
REMARK    2  A    between atoms: C_2  and  C_4
REMARK    3  A    between atoms: C_4  and  C_5
REMARK    4  A    between atoms: C_5  and  N_6
REMARK    5  A    between atoms: C_7  and  C_9
REMARK    6  A    between atoms: N_14  and  S_15
REMARK    7  A    between atoms: S_15  and  C_18
REMARK    8  A    between atoms: C_21  and  C_24
REMARK    9  A    between atoms: N_26  and  CA_27
REMARK   10  A    between atoms: CA_27  and  CB_29
REMARK   11  A    between atoms: CA_27  and  C_34
REMARK   12  A    between atoms: CB_29  and  CG_30
REMARK   13  A    between atoms: CG_30  and  CD_31
REMARK   14  A    between atoms: CD_31  and  OE1_32
REMARK   15  A    between atoms: C_34  and  O_35
REMARK                            x       y       z     vdW  Elec       q    Type
REMARK                         _______ _______ _______ _____ _____    ______ ____
ROOT
ATOM      1  C   UNK A   0       6.007  -2.787  25.652  0.00  0.00    +0.106 A 
ATOM      2  C   UNK A   0       7.050  -2.488  26.536  0.00  0.00    +0.029 A 
ATOM      3  C   UNK A   0       7.568  -1.189  26.616  0.00  0.00    +0.015 A 
ATOM      4  C   UNK A   0       7.052  -0.169  25.806  0.00  0.00    +0.037 A 
ATOM      5  C   UNK A   0       5.981  -0.477  24.943  0.00  0.00    +0.015 A 
ATOM      6  C   UNK A   0       5.454  -1.779  24.862  0.00  0.00    +0.029 A 
ENDROOT
BRANCH   4   7
ATOM      7  C   UNK A   0       7.611   1.228  25.789  0.00  0.00    +0.245 C 
ATOM      8  N   GLU A   1       8.299   1.656  24.668  0.00  0.00    -0.298 N 
ATOM      9  H   GLU A   1       8.354   1.068  23.845  0.00  0.00    +0.150 HD
ATOM     10  O   UNK A   0       7.419   1.975  26.743  0.00  0.00    -0.270 OA
BRANCH   8  11
ATOM     11  CA  GLU A   1       8.730   3.058  24.482  0.00  0.00    +0.182 C 
BRANCH  11  12
ATOM     12  C   GLU A   1       9.950   3.055  23.545  0.00  0.00    +0.325 C 
ATOM     13  OXT GLU A   1      10.345   2.103  22.891  0.00  0.00    -0.249 OA
BRANCH  12  14
ATOM     14  O   GLU A   1      10.531   4.281  23.458  0.00  0.00    -0.479 OA
ATOM     15  H   GLU A   1      10.625   4.687  24.345  0.00  0.00    +0.295 HD
ENDBRANCH  12  14
ENDBRANCH  11  12
BRANCH  11  16
ATOM     16  CB  GLU A   1       7.623   3.973  23.939  0.00  0.00    +0.045 C 
BRANCH  16  17
ATOM     17  CG  GLU A   1       7.249   3.664  22.490  0.00  0.00    +0.123 C 
BRANCH  17  18
ATOM     18  CD  GLU A   1       5.965   2.878  22.377  0.00  0.00    +0.305 C 
ATOM     19  OE2 GLU A   1       4.848   3.357  22.293  0.00  0.00    -0.251 OA
BRANCH  18  20
ATOM     20  OE1 GLU A   1       6.191   1.543  22.359  0.00  0.00    -0.481 OA
ATOM     21  HE1 GLU A   1       6.551   1.196  23.198  0.00  0.00    +0.295 HD
ENDBRANCH  18  20
ENDBRANCH  17  18
ENDBRANCH  16  17
ENDBRANCH  11  16
ENDBRANCH   8  11
ENDBRANCH   4   7
BRANCH   1  22
ATOM     22  S   UNK A   0       5.449  -4.474  25.515  0.00  0.00    +0.062 S 
ATOM     23  O   UNK A   0       6.371  -5.298  26.265  0.00  0.00    -0.153 OA
ATOM     24  O   UNK A   0       4.025  -4.521  25.765  0.00  0.00    -0.153 OA
BRANCH  22  26
ATOM     25  C   UNK A   0       7.028  -5.344  23.463  0.00  0.00    +0.165 C 
ATOM     26  N   UNK A   0       5.663  -4.871  23.895  0.00  0.00    -0.165 NA
ATOM     27  C   UNK A   0       5.142  -3.930  22.871  0.00  0.00    +0.110 C 
ATOM     28  C   UNK A   0       6.253  -3.767  21.851  0.00  0.00    +0.019 C 
ATOM     29  C   UNK A   0       6.995  -5.088  21.944  0.00  0.00    +0.031 C 
BRANCH  25  32
ATOM     30  N   UNK A   0       8.588  -3.401  23.604  0.00  0.00    -0.313 N 
ATOM     31  H   UNK A   0       8.149  -3.061  22.746  0.00  0.00    +0.149 HD
ATOM     32  C   UNK A   0       8.278  -4.670  24.061  0.00  0.00    +0.232 C 
ATOM     33  O   UNK A   0       8.953  -5.197  24.949  0.00  0.00    -0.274 OA
BRANCH  30  34
ATOM     34  C   UNK A   0       9.825  -2.792  24.064  0.00  0.00    +0.115 C 
BRANCH  34  35
ATOM     35  C   UNK A   0      10.051  -1.368  23.600  0.00  0.00    +0.139 C 
BRANCH  35  36
ATOM     36  C   UNK A   0       9.269  -1.066  22.352  0.00  0.00    +0.306 C 
ATOM     37  O   UNK A   0       8.220  -0.442  22.347  0.00  0.00    -0.251 OA
BRANCH  36  38
ATOM     38  O   UNK A   0       9.831  -1.542  21.218  0.00  0.00    -0.481 OA
ATOM     39  H   UNK A   0      10.508  -0.964  20.821  0.00  0.00    +0.295 HD
ENDBRANCH  36  38
ENDBRANCH  35  36
ENDBRANCH  34  35
ENDBRANCH  30  34
ENDBRANCH  25  32
ENDBRANCH  22  26
ENDBRANCH   1  22
TORSDOF 15
ENDMDL
MODEL 8
REMARK VINA RESULT:      -6.3      3.153     10.239
REMARK  Name = 
REMARK  15 active torsions:
REMARK  status: ('A' for Active; 'I' for Inactive)
REMARK    1  A    between atoms: O_1  and  C_2
REMARK    2  A    between atoms: C_2  and  C_4
REMARK    3  A    between atoms: C_4  and  C_5
REMARK    4  A    between atoms: C_5  and  N_6
REMARK    5  A    between atoms: C_7  and  C_9
REMARK    6  A    between atoms: N_14  and  S_15
REMARK    7  A    between atoms: S_15  and  C_18
REMARK    8  A    between atoms: C_21  and  C_24
REMARK    9  A    between atoms: N_26  and  CA_27
REMARK   10  A    between atoms: CA_27  and  CB_29
REMARK   11  A    between atoms: CA_27  and  C_34
REMARK   12  A    between atoms: CB_29  and  CG_30
REMARK   13  A    between atoms: CG_30  and  CD_31
REMARK   14  A    between atoms: CD_31  and  OE1_32
REMARK   15  A    between atoms: C_34  and  O_35
REMARK                            x       y       z     vdW  Elec       q    Type
REMARK                         _______ _______ _______ _____ _____    ______ ____
ROOT
ATOM      1  C   UNK A   0       7.038  -4.731  25.819  0.00  0.00    +0.106 A 
ATOM      2  C   UNK A   0       7.010  -4.727  24.420  0.00  0.00    +0.029 A 
ATOM      3  C   UNK A   0       7.868  -3.892  23.691  0.00  0.00    +0.015 A 
ATOM      4  C   UNK A   0       8.762  -3.043  24.355  0.00  0.00    +0.037 A 
ATOM      5  C   UNK A   0       8.801  -3.080  25.764  0.00  0.00    +0.015 A 
ATOM      6  C   UNK A   0       7.946  -3.920  26.500  0.00  0.00    +0.029 A 
ENDROOT
BRANCH   4   7
ATOM      7  C   UNK A   0       9.657  -2.069  23.637  0.00  0.00    +0.245 C 
ATOM      8  N   GLU A   1       9.396  -0.715  23.753  0.00  0.00    -0.298 N 
ATOM      9  H   GLU A   1       8.668  -0.385  24.375  0.00  0.00    +0.150 HD
ATOM     10  O   UNK A   0      10.618  -2.481  22.995  0.00  0.00    -0.270 OA
BRANCH   8  11
ATOM     11  CA  GLU A   1      10.315   0.322  23.235  0.00  0.00    +0.182 C 
BRANCH  11  12
ATOM     12  C   GLU A   1       9.811   0.743  21.844  0.00  0.00    +0.325 C 
ATOM     13  OXT GLU A   1       9.103   0.075  21.109  0.00  0.00    -0.249 OA
BRANCH  12  14
ATOM     14  O   GLU A   1      10.190   2.009  21.525  0.00  0.00    -0.479 OA
ATOM     15  H   GLU A   1      11.158   2.121  21.629  0.00  0.00    +0.295 HD
ENDBRANCH  12  14
ENDBRANCH  11  12
BRANCH  11  16
ATOM     16  CB  GLU A   1      10.450   1.538  24.162  0.00  0.00    +0.045 C 
BRANCH  16  17
ATOM     17  CG  GLU A   1       9.107   2.048  24.682  0.00  0.00    +0.123 C 
BRANCH  17  18
ATOM     18  CD  GLU A   1       8.944   3.538  24.507  0.00  0.00    +0.305 C 
ATOM     19  OE2 GLU A   1       8.380   4.284  25.288  0.00  0.00    -0.251 OA
BRANCH  18  20
ATOM     20  OE1 GLU A   1       9.525   3.979  23.366  0.00  0.00    -0.481 OA
ATOM     21  HE1 GLU A   1       8.886   4.318  22.708  0.00  0.00    +0.295 HD
ENDBRANCH  18  20
ENDBRANCH  17  18
ENDBRANCH  16  17
ENDBRANCH  11  16
ENDBRANCH   8  11
ENDBRANCH   4   7
BRANCH   1  22
ATOM     22  S   UNK A   0       5.860  -5.737  26.702  0.00  0.00    +0.062 S 
ATOM     23  O   UNK A   0       5.209  -6.592  25.733  0.00  0.00    -0.153 OA
ATOM     24  O   UNK A   0       6.497  -6.284  27.879  0.00  0.00    -0.153 OA
BRANCH  22  26
ATOM     25  C   UNK A   0       3.358  -4.653  26.545  0.00  0.00    +0.165 C 
ATOM     26  N   UNK A   0       4.691  -4.658  27.247  0.00  0.00    -0.165 NA
ATOM     27  C   UNK A   0       5.101  -3.252  27.496  0.00  0.00    +0.110 C 
ATOM     28  C   UNK A   0       4.036  -2.388  26.849  0.00  0.00    +0.019 C 
ATOM     29  C   UNK A   0       2.800  -3.265  26.916  0.00  0.00    +0.031 C 
BRANCH  25  32
ATOM     30  N   UNK A   0       2.714  -5.963  24.519  0.00  0.00    -0.313 N 
ATOM     31  H   UNK A   0       2.541  -6.745  25.152  0.00  0.00    +0.149 HD
ATOM     32  C   UNK A   0       3.318  -4.819  25.013  0.00  0.00    +0.232 C 
ATOM     33  O   UNK A   0       3.750  -3.958  24.243  0.00  0.00    -0.274 OA
BRANCH  30  34
ATOM     34  C   UNK A   0       2.768  -6.200  23.087  0.00  0.00    +0.115 C 
BRANCH  34  35
ATOM     35  C   UNK A   0       1.479  -6.703  22.470  0.00  0.00    +0.139 C 
BRANCH  35  36
ATOM     36  C   UNK A   0       1.335  -8.191  22.637  0.00  0.00    +0.306 C 
ATOM     37  O   UNK A   0       1.315  -8.750  23.723  0.00  0.00    -0.251 OA
BRANCH  36  38
ATOM     38  O   UNK A   0       1.221  -8.870  21.474  0.00  0.00    -0.481 OA
ATOM     39  H   UNK A   0       0.418  -9.417  21.395  0.00  0.00    +0.295 HD
ENDBRANCH  36  38
ENDBRANCH  35  36
ENDBRANCH  34  35
ENDBRANCH  30  34
ENDBRANCH  25  32
ENDBRANCH  22  26
ENDBRANCH   1  22
TORSDOF 15
ENDMDL
MODEL 9
REMARK VINA RESULT:      -6.3      1.895     10.514
REMARK  Name = 
REMARK  15 active torsions:
REMARK  status: ('A' for Active; 'I' for Inactive)
REMARK    1  A    between atoms: O_1  and  C_2
REMARK    2  A    between atoms: C_2  and  C_4
REMARK    3  A    between atoms: C_4  and  C_5
REMARK    4  A    between atoms: C_5  and  N_6
REMARK    5  A    between atoms: C_7  and  C_9
REMARK    6  A    between atoms: N_14  and  S_15
REMARK    7  A    between atoms: S_15  and  C_18
REMARK    8  A    between atoms: C_21  and  C_24
REMARK    9  A    between atoms: N_26  and  CA_27
REMARK   10  A    between atoms: CA_27  and  CB_29
REMARK   11  A    between atoms: CA_27  and  C_34
REMARK   12  A    between atoms: CB_29  and  CG_30
REMARK   13  A    between atoms: CG_30  and  CD_31
REMARK   14  A    between atoms: CD_31  and  OE1_32
REMARK   15  A    between atoms: C_34  and  O_35
REMARK                            x       y       z     vdW  Elec       q    Type
REMARK                         _______ _______ _______ _____ _____    ______ ____
ROOT
ATOM      1  C   UNK A   0       7.869  -0.555  23.640  0.00  0.00    +0.106 A 
ATOM      2  C   UNK A   0       9.205  -0.195  23.429  0.00  0.00    +0.029 A 
ATOM      3  C   UNK A   0       9.625   1.130  23.610  0.00  0.00    +0.015 A 
ATOM      4  C   UNK A   0       8.710   2.116  24.000  0.00  0.00    +0.037 A 
ATOM      5  C   UNK A   0       7.374   1.733  24.240  0.00  0.00    +0.015 A 
ATOM      6  C   UNK A   0       6.949   0.404  24.064  0.00  0.00    +0.029 A 
ENDROOT
BRANCH   4   7
ATOM      7  C   UNK A   0       9.077   3.568  24.140  0.00  0.00    +0.245 C 
ATOM      8  N   GLU A   1       9.713   4.199  23.085  0.00  0.00    -0.298 N 
ATOM      9  H   GLU A   1       9.852   3.714  22.207  0.00  0.00    +0.150 HD
ATOM     10  O   UNK A   0       8.778   4.179  25.162  0.00  0.00    -0.270 OA
BRANCH   8  11
ATOM     11  CA  GLU A   1       9.954   5.658  23.055  0.00  0.00    +0.182 C 
BRANCH  11  12
ATOM     12  C   GLU A   1       8.585   6.360  23.033  0.00  0.00    +0.325 C 
ATOM     13  OXT GLU A   1       8.150   7.104  23.896  0.00  0.00    -0.249 OA
BRANCH  12  14
ATOM     14  O   GLU A   1       7.904   6.115  21.882  0.00  0.00    -0.479 OA
ATOM     15  H   GLU A   1       8.473   5.654  21.230  0.00  0.00    +0.295 HD
ENDBRANCH  12  14
ENDBRANCH  11  12
BRANCH  11  16
ATOM     16  CB  GLU A   1      10.810   6.162  24.225  0.00  0.00    +0.045 C 
BRANCH  16  17
ATOM     17  CG  GLU A   1      12.284   6.329  23.860  0.00  0.00    +0.123 C 
BRANCH  17  18
ATOM     18  CD  GLU A   1      12.949   5.018  23.517  0.00  0.00    +0.305 C 
ATOM     19  OE2 GLU A   1      12.411   3.925  23.542  0.00  0.00    -0.251 OA
BRANCH  18  20
ATOM     20  OE1 GLU A   1      14.241   5.188  23.147  0.00  0.00    -0.481 OA
ATOM     21  HE1 GLU A   1      14.348   5.466  22.217  0.00  0.00    +0.295 HD
ENDBRANCH  18  20
ENDBRANCH  17  18
ENDBRANCH  16  17
ENDBRANCH  11  16
ENDBRANCH   8  11
ENDBRANCH   4   7
BRANCH   1  22
ATOM     22  S   UNK A   0       7.364  -2.230  23.302  0.00  0.00    +0.062 S 
ATOM     23  O   UNK A   0       6.037  -2.403  23.852  0.00  0.00    -0.153 OA
ATOM     24  O   UNK A   0       7.650  -2.538  21.918  0.00  0.00    -0.153 OA
BRANCH  22  26
ATOM     25  C   UNK A   0       8.289  -4.683  24.070  0.00  0.00    +0.165 C 
ATOM     26  N   UNK A   0       8.391  -3.188  24.228  0.00  0.00    -0.165 NA
ATOM     27  C   UNK A   0       8.526  -2.871  25.672  0.00  0.00    +0.110 C 
ATOM     28  C   UNK A   0       8.412  -4.197  26.401  0.00  0.00    +0.019 C 
ATOM     29  C   UNK A   0       8.926  -5.192  25.377  0.00  0.00    +0.031 C 
BRANCH  25  32
ATOM     30  N   UNK A   0       6.089  -5.374  25.027  0.00  0.00    -0.313 N 
ATOM     31  H   UNK A   0       6.506  -5.218  25.946  0.00  0.00    +0.149 HD
ATOM     32  C   UNK A   0       6.898  -5.325  23.904  0.00  0.00    +0.232 C 
ATOM     33  O   UNK A   0       6.482  -5.732  22.816  0.00  0.00    -0.274 OA
BRANCH  30  34
ATOM     34  C   UNK A   0       4.822  -6.077  24.927  0.00  0.00    +0.115 C 
BRANCH  34  35
ATOM     35  C   UNK A   0       4.556  -7.082  26.028  0.00  0.00    +0.139 C 
BRANCH  35  36
ATOM     36  C   UNK A   0       4.998  -6.560  27.366  0.00  0.00    +0.306 C 
ATOM     37  O   UNK A   0       5.066  -5.372  27.639  0.00  0.00    -0.251 OA
BRANCH  36  38
ATOM     38  O   UNK A   0       5.315  -7.524  28.259  0.00  0.00    -0.481 OA
ATOM     39  H   UNK A   0       6.043  -7.298  28.867  0.00  0.00    +0.295 HD
ENDBRANCH  36  38
ENDBRANCH  35  36
ENDBRANCH  34  35
ENDBRANCH  30  34
ENDBRANCH  25  32
ENDBRANCH  22  26
ENDBRANCH   1  22
TORSDOF 15
ENDMDL
