MODEL 1
REMARK VINA RESULT:      -6.9      0.000      0.000
REMARK  Name = 
REMARK  8 active torsions:
REMARK  status: ('A' for Active; 'I' for Inactive)
REMARK    1  A    between atoms: C_2  and  N_15
REMARK    2  A    between atoms: C_5  and  C_9
REMARK    3  A    between atoms: N_15  and  C_16
REMARK    4  A    between atoms: C_19  and  C_21
REMARK    5  A    between atoms: C_24  and  C_27
REMARK    6  A    between atoms: C_27  and  C_28
REMARK    7  A    between atoms: C_27  and  O_29
REMARK    8  A    between atoms: C_27  and  C_30
REMARK                            x       y       z     vdW  Elec       q    Type
REMARK                         _______ _______ _______ _____ _____    ______ ____
ROOT
ATOM      1  N   UNL     1       6.307  -4.232  23.177  0.00  0.00    -0.291 N 
ATOM      2  C   UNL     1       7.021  -3.369  22.317  0.00  0.00    +0.247 C 
ATOM      3  O   UNL     1       7.105  -3.524  21.097  0.00  0.00    -0.270 OA
ENDROOT
BRANCH   1   4
ATOM      4  C   UNL     1       5.864  -3.834  24.560  0.00  0.00    +0.077 C 
ATOM      5  C   UNL     1       6.891  -4.128  25.674  0.00  0.00    +0.023 C 
ATOM      6  C   UNL     1       6.912  -5.582  26.135  0.00  0.00    +0.010 C 
ATOM      7  C   UNL     1       5.532  -6.096  26.595  0.00  0.00    +0.021 C 
ATOM      8  C   UNL     1       4.508  -5.834  25.470  0.00  0.00    +0.010 C 
ATOM      9  C   UNL     1       4.485  -4.374  24.998  0.00  0.00    +0.023 C 
BRANCH   7  10
ATOM     10  C   UNL     1       5.080  -5.600  27.961  0.00  0.00    -0.026 A 
ATOM     11  C   UNL     1       5.936  -5.543  29.063  0.00  0.00    +0.114 A 
ATOM     12  N   UNL     1       5.581  -5.143  30.304  0.00  0.00    -0.263 NA
ATOM     13  C   UNL     1       4.290  -4.801  30.485  0.00  0.00    +0.111 A 
ATOM     14  C   UNL     1       3.346  -4.855  29.485  0.00  0.00    +0.020 A 
ATOM     15  C   UNL     1       3.743  -5.269  28.219  0.00  0.00    +0.007 A 
ENDBRANCH   7  10
ENDBRANCH   1   4
BRANCH   2  16
ATOM     16  C   UNL     1       7.689  -2.143  22.819  0.00  0.00    +0.037 A 
ATOM     17  C   UNL     1       9.034  -2.240  23.192  0.00  0.00    +0.013 A 
ATOM     18  C   UNL     1       9.727  -1.112  23.630  0.00  0.00    +0.007 A 
ATOM     19  C   UNL     1       9.098   0.145  23.670  0.00  0.00    -0.008 A 
ATOM     20  C   UNL     1       7.729   0.211  23.366  0.00  0.00    +0.007 A 
ATOM     21  C   UNL     1       7.025  -0.932  22.989  0.00  0.00    +0.013 A 
BRANCH  19  22
ATOM     22  C   UNL     1       9.886   1.394  24.061  0.00  0.00    +0.183 C 
ATOM     23  C   UNL     1      11.244   0.970  24.636  0.00  0.00    +0.056 C 
BRANCH  22  24
ATOM     24  C   UNL     1      10.069   2.395  22.868  0.00  0.00    +0.422 C 
ATOM     25  F   UNL     1      10.337   1.756  21.705  0.00  0.00    -0.167 F 
ATOM     26  F   UNL     1      11.129   3.213  23.115  0.00  0.00    -0.167 F 
ATOM     27  F   UNL     1       9.004   3.196  22.650  0.00  0.00    -0.167 F 
ENDBRANCH  22  24
BRANCH  22  28
ATOM     28  O   UNL     1       9.202   2.046  25.167  0.00  0.00    -0.376 OA
ATOM     29  H   UNL     1       8.825   1.342  25.728  0.00  0.00    +0.211 HD
ENDBRANCH  22  28
ENDBRANCH  19  22
ENDBRANCH   2  16
BRANCH   1  30
ATOM     30  C   UNL     1       5.590  -5.333  22.531  0.00  0.00    +0.077 C 
ATOM     31  C   UNL     1       6.213  -6.706  22.421  0.00  0.00    +0.024 C 
ATOM     32  C   UNL     1       5.908  -5.935  21.184  0.00  0.00    +0.024 C 
ENDBRANCH   1  30
TORSDOF 7
ENDMDL
MODEL 2
REMARK VINA RESULT:      -6.6      2.641      3.834
REMARK  Name = 
REMARK  8 active torsions:
REMARK  status: ('A' for Active; 'I' for Inactive)
REMARK    1  A    between atoms: C_2  and  N_15
REMARK    2  A    between atoms: C_5  and  C_9
REMARK    3  A    between atoms: N_15  and  C_16
REMARK    4  A    between atoms: C_19  and  C_21
REMARK    5  A    between atoms: C_24  and  C_27
REMARK    6  A    between atoms: C_27  and  C_28
REMARK    7  A    between atoms: C_27  and  O_29
REMARK    8  A    between atoms: C_27  and  C_30
REMARK                            x       y       z     vdW  Elec       q    Type
REMARK                         _______ _______ _______ _____ _____    ______ ____
ROOT
ATOM      1  N   UNL     1       7.955  -3.442  24.328  0.00  0.00    -0.291 N 
ATOM      2  C   UNL     1       8.973  -2.486  24.123  0.00  0.00    +0.247 C 
ATOM      3  O   UNL     1      10.177  -2.750  24.113  0.00  0.00    -0.270 OA
ENDROOT
BRANCH   1   4
ATOM      4  C   UNL     1       6.518  -3.213  23.940  0.00  0.00    +0.077 C 
ATOM      5  C   UNL     1       5.564  -2.955  25.125  0.00  0.00    +0.023 C 
ATOM      6  C   UNL     1       5.128  -4.219  25.861  0.00  0.00    +0.010 C 
ATOM      7  C   UNL     1       4.484  -5.271  24.936  0.00  0.00    +0.021 C 
ATOM      8  C   UNL     1       5.450  -5.557  23.766  0.00  0.00    +0.010 C 
ATOM      9  C   UNL     1       5.896  -4.291  23.024  0.00  0.00    +0.023 C 
BRANCH   7  10
ATOM     10  C   UNL     1       3.062  -4.959  24.493  0.00  0.00    -0.026 A 
ATOM     11  C   UNL     1       2.217  -4.113  25.214  0.00  0.00    +0.114 A 
ATOM     12  N   UNL     1       0.938  -3.827  24.884  0.00  0.00    -0.263 NA
ATOM     13  C   UNL     1       0.443  -4.434  23.789  0.00  0.00    +0.111 A 
ATOM     14  C   UNL     1       1.168  -5.318  23.021  0.00  0.00    +0.020 A 
ATOM     15  C   UNL     1       2.481  -5.590  23.384  0.00  0.00    +0.007 A 
ENDBRANCH   7  10
ENDBRANCH   1   4
BRANCH   2  16
ATOM     16  C   UNL     1       8.662  -1.065  23.830  0.00  0.00    +0.037 A 
ATOM     17  C   UNL     1       8.312  -0.241  24.906  0.00  0.00    +0.013 A 
ATOM     18  C   UNL     1       8.052   1.113  24.700  0.00  0.00    +0.007 A 
ATOM     19  C   UNL     1       8.170   1.680  23.418  0.00  0.00    -0.008 A 
ATOM     20  C   UNL     1       8.446   0.825  22.340  0.00  0.00    +0.007 A 
ATOM     21  C   UNL     1       8.644  -0.540  22.542  0.00  0.00    +0.013 A 
BRANCH  19  22
ATOM     22  C   UNL     1       7.975   3.181  23.212  0.00  0.00    +0.183 C 
ATOM     23  C   UNL     1       6.592   3.583  23.742  0.00  0.00    +0.056 C 
BRANCH  22  24
ATOM     24  C   UNL     1       9.104   4.038  23.882  0.00  0.00    +0.422 C 
ATOM     25  F   UNL     1       9.216   5.263  23.318  0.00  0.00    -0.167 F 
ATOM     26  F   UNL     1      10.307   3.423  23.715  0.00  0.00    -0.167 F 
ATOM     27  F   UNL     1       8.944   4.220  25.211  0.00  0.00    -0.167 F 
ENDBRANCH  22  24
BRANCH  22  28
ATOM     28  O   UNL     1       7.918   3.449  21.784  0.00  0.00    -0.376 OA
ATOM     29  H   UNL     1       8.668   4.037  21.571  0.00  0.00    +0.211 HD
ENDBRANCH  22  28
ENDBRANCH  19  22
ENDBRANCH   2  16
BRANCH   1  30
ATOM     30  C   UNL     1       8.398  -4.830  24.479  0.00  0.00    +0.077 C 
ATOM     31  C   UNL     1       8.285  -5.542  25.808  0.00  0.00    +0.024 C 
ATOM     32  C   UNL     1       9.629  -5.297  25.216  0.00  0.00    +0.024 C 
ENDBRANCH   1  30
TORSDOF 7
ENDMDL
MODEL 3
REMARK VINA RESULT:      -6.6      5.084      8.929
REMARK  Name = 
REMARK  8 active torsions:
REMARK  status: ('A' for Active; 'I' for Inactive)
REMARK    1  A    between atoms: C_2  and  N_15
REMARK    2  A    between atoms: C_5  and  C_9
REMARK    3  A    between atoms: N_15  and  C_16
REMARK    4  A    between atoms: C_19  and  C_21
REMARK    5  A    between atoms: C_24  and  C_27
REMARK    6  A    between atoms: C_27  and  C_28
REMARK    7  A    between atoms: C_27  and  O_29
REMARK    8  A    between atoms: C_27  and  C_30
REMARK                            x       y       z     vdW  Elec       q    Type
REMARK                         _______ _______ _______ _____ _____    ______ ____
ROOT
ATOM      1  N   UNL     1       9.840   4.888  23.816  0.00  0.00    -0.291 N 
ATOM      2  C   UNL     1      10.813   3.948  23.412  0.00  0.00    +0.247 C 
ATOM      3  O   UNL     1      12.009   4.211  23.266  0.00  0.00    -0.270 OA
ENDROOT
BRANCH   1   4
ATOM      4  C   UNL     1       8.502   4.496  24.383  0.00  0.00    +0.077 C 
ATOM      5  C   UNL     1       7.747   3.423  23.571  0.00  0.00    +0.023 C 
ATOM      6  C   UNL     1       7.028   3.965  22.338  0.00  0.00    +0.010 C 
ATOM      7  C   UNL     1       6.049   5.112  22.660  0.00  0.00    +0.021 C 
ATOM      8  C   UNL     1       6.808   6.203  23.444  0.00  0.00    +0.010 C 
ATOM      9  C   UNL     1       7.537   5.665  24.682  0.00  0.00    +0.023 C 
BRANCH   7  10
ATOM     10  C   UNL     1       4.743   4.683  23.315  0.00  0.00    -0.026 A 
ATOM     11  C   UNL     1       4.140   3.451  23.056  0.00  0.00    +0.114 A 
ATOM     12  N   UNL     1       2.968   3.033  23.583  0.00  0.00    -0.263 NA
ATOM     13  C   UNL     1       2.328   3.894  24.399  0.00  0.00    +0.111 A 
ATOM     14  C   UNL     1       2.805   5.151  24.696  0.00  0.00    +0.020 A 
ATOM     15  C   UNL     1       4.014   5.550  24.140  0.00  0.00    +0.007 A 
ENDBRANCH   7  10
ENDBRANCH   1   4
BRANCH   2  16
ATOM     16  C   UNL     1      10.476   2.520  23.191  0.00  0.00    +0.037 A 
ATOM     17  C   UNL     1      10.511   1.665  24.298  0.00  0.00    +0.013 A 
ATOM     18  C   UNL     1      10.162   0.322  24.161  0.00  0.00    +0.007 A 
ATOM     19  C   UNL     1       9.735  -0.186  22.921  0.00  0.00    -0.008 A 
ATOM     20  C   UNL     1       9.778   0.666  21.807  0.00  0.00    +0.007 A 
ATOM     21  C   UNL     1      10.189   1.992  21.936  0.00  0.00    +0.013 A 
BRANCH  19  22
ATOM     22  C   UNL     1       9.264  -1.634  22.796  0.00  0.00    +0.183 C 
ATOM     23  C   UNL     1       9.995  -2.490  23.840  0.00  0.00    +0.056 C 
BRANCH  22  24
ATOM     24  C   UNL     1       7.710  -1.782  22.938  0.00  0.00    +0.422 C 
ATOM     25  F   UNL     1       7.356  -2.311  24.132  0.00  0.00    -0.167 F 
ATOM     26  F   UNL     1       7.241  -2.632  21.983  0.00  0.00    -0.167 F 
ATOM     27  F   UNL     1       7.029  -0.624  22.793  0.00  0.00    -0.167 F 
ENDBRANCH  22  24
BRANCH  22  28
ATOM     28  O   UNL     1       9.707  -2.156  21.513  0.00  0.00    -0.376 OA
ATOM     29  H   UNL     1      10.199  -2.980  21.691  0.00  0.00    +0.211 HD
ENDBRANCH  22  28
ENDBRANCH  19  22
ENDBRANCH   2  16
BRANCH   1  30
ATOM     30  C   UNL     1      10.333   6.232  24.122  0.00  0.00    +0.077 C 
ATOM     31  C   UNL     1      11.608   6.430  24.911  0.00  0.00    +0.024 C 
ATOM     32  C   UNL     1      10.314   6.902  25.475  0.00  0.00    +0.024 C 
ENDBRANCH   1  30
TORSDOF 7
ENDMDL
MODEL 4
REMARK VINA RESULT:      -6.4      4.475      8.334
REMARK  Name = 
REMARK  8 active torsions:
REMARK  status: ('A' for Active; 'I' for Inactive)
REMARK    1  A    between atoms: C_2  and  N_15
REMARK    2  A    between atoms: C_5  and  C_9
REMARK    3  A    between atoms: N_15  and  C_16
REMARK    4  A    between atoms: C_19  and  C_21
REMARK    5  A    between atoms: C_24  and  C_27
REMARK    6  A    between atoms: C_27  and  C_28
REMARK    7  A    between atoms: C_27  and  O_29
REMARK    8  A    between atoms: C_27  and  C_30
REMARK                            x       y       z     vdW  Elec       q    Type
REMARK                         _______ _______ _______ _____ _____    ______ ____
ROOT
ATOM      1  N   UNL     1       9.244   1.813  24.204  0.00  0.00    -0.291 N 
ATOM      2  C   UNL     1      10.098   0.732  24.515  0.00  0.00    +0.247 C 
ATOM      3  O   UNL     1      11.310   0.844  24.710  0.00  0.00    -0.270 OA
ENDROOT
BRANCH   1   4
ATOM      4  C   UNL     1       7.749   1.755  24.371  0.00  0.00    +0.077 C 
ATOM      5  C   UNL     1       6.963   1.527  23.062  0.00  0.00    +0.023 C 
ATOM      6  C   UNL     1       6.787   2.783  22.214  0.00  0.00    +0.010 C 
ATOM      7  C   UNL     1       6.130   3.949  22.980  0.00  0.00    +0.021 C 
ATOM      8  C   UNL     1       6.932   4.202  24.275  0.00  0.00    +0.010 C 
ATOM      9  C   UNL     1       7.118   2.943  25.130  0.00  0.00    +0.023 C 
BRANCH   7  10
ATOM     10  C   UNL     1       4.631   3.811  23.207  0.00  0.00    -0.026 A 
ATOM     11  C   UNL     1       3.760   3.343  22.221  0.00  0.00    +0.114 A 
ATOM     12  N   UNL     1       2.420   3.231  22.356  0.00  0.00    -0.263 NA
ATOM     13  C   UNL     1       1.893   3.631  23.529  0.00  0.00    +0.111 A 
ATOM     14  C   UNL     1       2.646   4.146  24.561  0.00  0.00    +0.020 A 
ATOM     15  C   UNL     1       4.021   4.247  24.392  0.00  0.00    +0.007 A 
ENDBRANCH   7  10
ENDBRANCH   1   4
BRANCH   2  16
ATOM     16  C   UNL     1       9.579  -0.646  24.699  0.00  0.00    +0.037 A 
ATOM     17  C   UNL     1       9.723  -1.543  23.636  0.00  0.00    +0.013 A 
ATOM     18  C   UNL     1       9.295  -2.864  23.766  0.00  0.00    +0.007 A 
ATOM     19  C   UNL     1       8.745  -3.324  24.975  0.00  0.00    -0.008 A 
ATOM     20  C   UNL     1       8.538  -2.392  26.005  0.00  0.00    +0.007 A 
ATOM     21  C   UNL     1       8.910  -1.058  25.848  0.00  0.00    +0.013 A 
BRANCH  19  22
ATOM     22  C   UNL     1       8.363  -4.793  25.145  0.00  0.00    +0.183 C 
ATOM     23  C   UNL     1       8.245  -5.110  26.642  0.00  0.00    +0.056 C 
BRANCH  22  24
ATOM     24  C   UNL     1       7.044  -5.170  24.386  0.00  0.00    +0.422 C 
ATOM     25  F   UNL     1       6.266  -6.012  25.105  0.00  0.00    -0.167 F 
ATOM     26  F   UNL     1       7.350  -5.817  23.228  0.00  0.00    -0.167 F 
ATOM     27  F   UNL     1       6.280  -4.109  24.046  0.00  0.00    -0.167 F 
ENDBRANCH  22  24
BRANCH  22  28
ATOM     28  O   UNL     1       9.467  -5.616  24.678  0.00  0.00    -0.376 OA
ATOM     29  H   UNL     1      10.254  -5.363  25.197  0.00  0.00    +0.211 HD
ENDBRANCH  22  28
ENDBRANCH  19  22
ENDBRANCH   2  16
BRANCH   1  30
ATOM     30  C   UNL     1       9.868   3.137  24.177  0.00  0.00    +0.077 C 
ATOM     31  C   UNL     1       9.978   3.918  22.887  0.00  0.00    +0.024 C 
ATOM     32  C   UNL     1      11.215   3.476  23.588  0.00  0.00    +0.024 C 
ENDBRANCH   1  30
TORSDOF 7
ENDMDL
MODEL 5
REMARK VINA RESULT:      -6.4      4.539      8.383
REMARK  Name = 
REMARK  8 active torsions:
REMARK  status: ('A' for Active; 'I' for Inactive)
REMARK    1  A    between atoms: C_2  and  N_15
REMARK    2  A    between atoms: C_5  and  C_9
REMARK    3  A    between atoms: N_15  and  C_16
REMARK    4  A    between atoms: C_19  and  C_21
REMARK    5  A    between atoms: C_24  and  C_27
REMARK    6  A    between atoms: C_27  and  C_28
REMARK    7  A    between atoms: C_27  and  O_29
REMARK    8  A    between atoms: C_27  and  C_30
REMARK                            x       y       z     vdW  Elec       q    Type
REMARK                         _______ _______ _______ _____ _____    ______ ____
ROOT
ATOM      1  N   UNL     1       8.805   1.151  23.840  0.00  0.00    -0.291 N 
ATOM      2  C   UNL     1       9.436  -0.112  23.853  0.00  0.00    +0.247 C 
ATOM      3  O   UNL     1      10.631  -0.285  24.103  0.00  0.00    -0.270 OA
ENDROOT
BRANCH   1   4
ATOM      4  C   UNL     1       7.314   1.328  23.945  0.00  0.00    +0.077 C 
ATOM      5  C   UNL     1       6.592   1.525  22.596  0.00  0.00    +0.023 C 
ATOM      6  C   UNL     1       6.687   2.942  22.039  0.00  0.00    +0.010 C 
ATOM      7  C   UNL     1       6.185   4.018  23.023  0.00  0.00    +0.021 C 
ATOM      8  C   UNL     1       6.928   3.845  24.364  0.00  0.00    +0.010 C 
ATOM      9  C   UNL     1       6.841   2.422  24.928  0.00  0.00    +0.023 C 
BRANCH   7  10
ATOM     10  C   UNL     1       4.672   4.106  23.168  0.00  0.00    -0.026 A 
ATOM     11  C   UNL     1       4.055   4.745  24.245  0.00  0.00    +0.114 A 
ATOM     12  N   UNL     1       2.720   4.825  24.440  0.00  0.00    -0.263 NA
ATOM     13  C   UNL     1       1.936   4.211  23.533  0.00  0.00    +0.111 A 
ATOM     14  C   UNL     1       2.431   3.515  22.453  0.00  0.00    +0.020 A 
ATOM     15  C   UNL     1       3.807   3.454  22.278  0.00  0.00    +0.007 A 
ENDBRANCH   7  10
ENDBRANCH   1   4
BRANCH   2  16
ATOM     16  C   UNL     1       8.677  -1.367  23.625  0.00  0.00    +0.037 A 
ATOM     17  C   UNL     1       8.414  -2.178  24.734  0.00  0.00    +0.013 A 
ATOM     18  C   UNL     1       7.668  -3.347  24.590  0.00  0.00    +0.007 A 
ATOM     19  C   UNL     1       7.139  -3.711  23.339  0.00  0.00    -0.008 A 
ATOM     20  C   UNL     1       7.477  -2.928  22.225  0.00  0.00    +0.007 A 
ATOM     21  C   UNL     1       8.276  -1.794  22.363  0.00  0.00    +0.013 A 
BRANCH  19  22
ATOM     22  C   UNL     1       6.245  -4.942  23.203  0.00  0.00    +0.183 C 
ATOM     23  C   UNL     1       4.826  -4.491  22.828  0.00  0.00    +0.056 C 
BRANCH  22  24
ATOM     24  C   UNL     1       6.795  -5.982  22.167  0.00  0.00    +0.422 C 
ATOM     25  F   UNL     1       6.177  -7.182  22.273  0.00  0.00    -0.167 F 
ATOM     26  F   UNL     1       8.118  -6.206  22.400  0.00  0.00    -0.167 F 
ATOM     27  F   UNL     1       6.690  -5.588  20.879  0.00  0.00    -0.167 F 
ENDBRANCH  22  24
BRANCH  22  28
ATOM     28  O   UNL     1       6.104  -5.559  24.512  0.00  0.00    -0.376 OA
ATOM     29  H   UNL     1       5.189  -5.895  24.575  0.00  0.00    +0.211 HD
ENDBRANCH  22  28
ENDBRANCH  19  22
ENDBRANCH   2  16
BRANCH   1  30
ATOM     30  C   UNL     1       9.646   2.292  24.207  0.00  0.00    +0.077 C 
ATOM     31  C   UNL     1      10.023   3.340  23.184  0.00  0.00    +0.024 C 
ATOM     32  C   UNL     1      11.086   2.504  23.807  0.00  0.00    +0.024 C 
ENDBRANCH   1  30
TORSDOF 7
ENDMDL
MODEL 6
REMARK VINA RESULT:      -6.2      2.781      3.764
REMARK  Name = 
REMARK  8 active torsions:
REMARK  status: ('A' for Active; 'I' for Inactive)
REMARK    1  A    between atoms: C_2  and  N_15
REMARK    2  A    between atoms: C_5  and  C_9
REMARK    3  A    between atoms: N_15  and  C_16
REMARK    4  A    between atoms: C_19  and  C_21
REMARK    5  A    between atoms: C_24  and  C_27
REMARK    6  A    between atoms: C_27  and  C_28
REMARK    7  A    between atoms: C_27  and  O_29
REMARK    8  A    between atoms: C_27  and  C_30
REMARK                            x       y       z     vdW  Elec       q    Type
REMARK                         _______ _______ _______ _____ _____    ______ ____
ROOT
ATOM      1  N   UNL     1       8.005  -2.571  24.454  0.00  0.00    -0.291 N 
ATOM      2  C   UNL     1       9.088  -1.745  24.081  0.00  0.00    +0.247 C 
ATOM      3  O   UNL     1      10.207  -2.167  23.781  0.00  0.00    -0.270 OA
ENDROOT
BRANCH   1   4
ATOM      4  C   UNL     1       6.571  -2.115  24.417  0.00  0.00    +0.077 C 
ATOM      5  C   UNL     1       5.998  -1.679  25.783  0.00  0.00    +0.023 C 
ATOM      6  C   UNL     1       5.572  -2.839  26.679  0.00  0.00    +0.010 C 
ATOM      7  C   UNL     1       4.560  -3.788  26.006  0.00  0.00    +0.021 C 
ATOM      8  C   UNL     1       5.143  -4.252  24.654  0.00  0.00    +0.010 C 
ATOM      9  C   UNL     1       5.579  -3.092  23.750  0.00  0.00    +0.023 C 
BRANCH   7  10
ATOM     10  C   UNL     1       3.139  -3.254  25.908  0.00  0.00    -0.026 A 
ATOM     11  C   UNL     1       2.688  -2.169  26.662  0.00  0.00    +0.114 A 
ATOM     12  N   UNL     1       1.431  -1.674  26.639  0.00  0.00    -0.263 NA
ATOM     13  C   UNL     1       0.546  -2.304  25.843  0.00  0.00    +0.111 A 
ATOM     14  C   UNL     1       0.863  -3.408  25.084  0.00  0.00    +0.020 A 
ATOM     15  C   UNL     1       2.164  -3.891  25.127  0.00  0.00    +0.007 A 
ENDBRANCH   7  10
ENDBRANCH   1   4
BRANCH   2  16
ATOM     16  C   UNL     1       8.941  -0.274  23.955  0.00  0.00    +0.037 A 
ATOM     17  C   UNL     1       8.849   0.262  22.666  0.00  0.00    +0.013 A 
ATOM     18  C   UNL     1       8.666   1.632  22.484  0.00  0.00    +0.007 A 
ATOM     19  C   UNL     1       8.536   2.491  23.590  0.00  0.00    -0.008 A 
ATOM     20  C   UNL     1       8.708   1.949  24.873  0.00  0.00    +0.007 A 
ATOM     21  C   UNL     1       8.953   0.587  25.047  0.00  0.00    +0.013 A 
BRANCH  19  22
ATOM     22  C   UNL     1       8.243   3.977  23.389  0.00  0.00    +0.183 C 
ATOM     23  C   UNL     1       6.950   4.337  24.134  0.00  0.00    +0.056 C 
BRANCH  22  24
ATOM     24  C   UNL     1       9.428   4.897  23.843  0.00  0.00    +0.422 C 
ATOM     25  F   UNL     1       9.453   6.067  23.162  0.00  0.00    -0.167 F 
ATOM     26  F   UNL     1      10.613   4.277  23.592  0.00  0.00    -0.167 F 
ATOM     27  F   UNL     1       9.420   5.199  25.160  0.00  0.00    -0.167 F 
ENDBRANCH  22  24
BRANCH  22  28
ATOM     28  O   UNL     1       7.937   4.202  21.985  0.00  0.00    -0.376 OA
ATOM     29  H   UNL     1       8.741   3.985  21.476  0.00  0.00    +0.211 HD
ENDBRANCH  22  28
ENDBRANCH  19  22
ENDBRANCH   2  16
BRANCH   1  30
ATOM     30  C   UNL     1       8.254  -4.013  24.414  0.00  0.00    +0.077 C 
ATOM     31  C   UNL     1       8.273  -4.834  25.684  0.00  0.00    +0.024 C 
ATOM     32  C   UNL     1       9.512  -4.714  24.868  0.00  0.00    +0.024 C 
ENDBRANCH   1  30
TORSDOF 7
ENDMDL
MODEL 7
REMARK VINA RESULT:      -6.2      2.499      3.390
REMARK  Name = 
REMARK  8 active torsions:
REMARK  status: ('A' for Active; 'I' for Inactive)
REMARK    1  A    between atoms: C_2  and  N_15
REMARK    2  A    between atoms: C_5  and  C_9
REMARK    3  A    between atoms: N_15  and  C_16
REMARK    4  A    between atoms: C_19  and  C_21
REMARK    5  A    between atoms: C_24  and  C_27
REMARK    6  A    between atoms: C_27  and  C_28
REMARK    7  A    between atoms: C_27  and  O_29
REMARK    8  A    between atoms: C_27  and  C_30
REMARK                            x       y       z     vdW  Elec       q    Type
REMARK                         _______ _______ _______ _____ _____    ______ ____
ROOT
ATOM      1  N   UNL     1       7.708  -3.358  24.832  0.00  0.00    -0.291 N 
ATOM      2  C   UNL     1       8.875  -2.726  24.351  0.00  0.00    +0.247 C 
ATOM      3  O   UNL     1       9.919  -3.322  24.072  0.00  0.00    -0.270 OA
ENDROOT
BRANCH   1   4
ATOM      4  C   UNL     1       6.345  -2.720  24.779  0.00  0.00    +0.077 C 
ATOM      5  C   UNL     1       5.884  -2.073  26.103  0.00  0.00    +0.023 C 
ATOM      6  C   UNL     1       5.344  -3.067  27.127  0.00  0.00    +0.010 C 
ATOM      7  C   UNL     1       4.192  -3.937  26.582  0.00  0.00    +0.021 C 
ATOM      8  C   UNL     1       4.660  -4.611  25.275  0.00  0.00    +0.010 C 
ATOM      9  C   UNL     1       5.210  -3.619  24.243  0.00  0.00    +0.023 C 
BRANCH   7  10
ATOM     10  C   UNL     1       2.850  -3.230  26.459  0.00  0.00    -0.026 A 
ATOM     11  C   UNL     1       1.995  -3.421  25.373  0.00  0.00    +0.114 A 
ATOM     12  N   UNL     1       0.809  -2.796  25.197  0.00  0.00    -0.263 NA
ATOM     13  C   UNL     1       0.449  -1.901  26.137  0.00  0.00    +0.111 A 
ATOM     14  C   UNL     1       1.228  -1.600  27.232  0.00  0.00    +0.020 A 
ATOM     15  C   UNL     1       2.440  -2.260  27.386  0.00  0.00    +0.007 A 
ENDBRANCH   7  10
ENDBRANCH   1   4
BRANCH   2  16
ATOM     16  C   UNL     1       8.918  -1.269  24.074  0.00  0.00    +0.037 A 
ATOM     17  C   UNL     1       9.230  -0.414  25.136  0.00  0.00    +0.013 A 
ATOM     18  C   UNL     1       9.328   0.961  24.928  0.00  0.00    +0.007 A 
ATOM     19  C   UNL     1       9.150   1.507  23.644  0.00  0.00    -0.008 A 
ATOM     20  C   UNL     1       8.763   0.645  22.607  0.00  0.00    +0.007 A 
ATOM     21  C   UNL     1       8.605  -0.722  22.834  0.00  0.00    +0.013 A 
BRANCH  19  22
ATOM     22  C   UNL     1       9.350   3.002  23.401  0.00  0.00    +0.183 C 
ATOM     23  C   UNL     1       8.768   3.783  24.588  0.00  0.00    +0.056 C 
BRANCH  22  24
ATOM     24  C   UNL     1      10.851   3.383  23.161  0.00  0.00    +0.422 C 
ATOM     25  F   UNL     1      11.689   2.677  23.955  0.00  0.00    -0.167 F 
ATOM     26  F   UNL     1      11.045   4.696  23.463  0.00  0.00    -0.167 F 
ATOM     27  F   UNL     1      11.267   3.214  21.886  0.00  0.00    -0.167 F 
ENDBRANCH  22  24
BRANCH  22  28
ATOM     28  O   UNL     1       8.538   3.399  22.262  0.00  0.00    -0.376 OA
ATOM     29  H   UNL     1       9.048   4.067  21.764  0.00  0.00    +0.211 HD
ENDBRANCH  22  28
ENDBRANCH  19  22
ENDBRANCH   2  16
BRANCH   1  30
ATOM     30  C   UNL     1       7.765  -4.817  24.939  0.00  0.00    +0.077 C 
ATOM     31  C   UNL     1       7.930  -5.492  26.281  0.00  0.00    +0.024 C 
ATOM     32  C   UNL     1       8.991  -5.641  25.248  0.00  0.00    +0.024 C 
ENDBRANCH   1  30
TORSDOF 7
ENDMDL
MODEL 8
REMARK VINA RESULT:      -6.1      3.409      5.114
REMARK  Name = 
REMARK  8 active torsions:
REMARK  status: ('A' for Active; 'I' for Inactive)
REMARK    1  A    between atoms: C_2  and  N_15
REMARK    2  A    between atoms: C_5  and  C_9
REMARK    3  A    between atoms: N_15  and  C_16
REMARK    4  A    between atoms: C_19  and  C_21
REMARK    5  A    between atoms: C_24  and  C_27
REMARK    6  A    between atoms: C_27  and  C_28
REMARK    7  A    between atoms: C_27  and  O_29
REMARK    8  A    between atoms: C_27  and  C_30
REMARK                            x       y       z     vdW  Elec       q    Type
REMARK                         _______ _______ _______ _____ _____    ______ ____
ROOT
ATOM      1  N   UNL     1       7.972  -1.204  23.279  0.00  0.00    -0.291 N 
ATOM      2  C   UNL     1       8.478   0.102  23.101  0.00  0.00    +0.247 C 
ATOM      3  O   UNL     1       9.655   0.357  22.835  0.00  0.00    -0.270 OA
ENDROOT
BRANCH   1   4
ATOM      4  C   UNL     1       6.507  -1.539  23.192  0.00  0.00    +0.077 C 
ATOM      5  C   UNL     1       5.798  -1.686  24.555  0.00  0.00    +0.023 C 
ATOM      6  C   UNL     1       6.031  -3.032  25.237  0.00  0.00    +0.010 C 
ATOM      7  C   UNL     1       5.646  -4.236  24.354  0.00  0.00    +0.021 C 
ATOM      8  C   UNL     1       6.379  -4.110  23.001  0.00  0.00    +0.010 C 
ATOM      9  C   UNL     1       6.154  -2.758  22.312  0.00  0.00    +0.023 C 
BRANCH   7  10
ATOM     10  C   UNL     1       4.151  -4.488  24.219  0.00  0.00    -0.026 A 
ATOM     11  C   UNL     1       3.605  -5.233  23.172  0.00  0.00    +0.114 A 
ATOM     12  N   UNL     1       2.286  -5.460  22.985  0.00  0.00    -0.263 NA
ATOM     13  C   UNL     1       1.442  -4.895  23.870  0.00  0.00    +0.111 A 
ATOM     14  C   UNL     1       1.861  -4.108  24.919  0.00  0.00    +0.020 A 
ATOM     15  C   UNL     1       3.223  -3.895  25.085  0.00  0.00    +0.007 A 
ENDBRANCH   7  10
ENDBRANCH   1   4
BRANCH   2  16
ATOM     16  C   UNL     1       7.598   1.295  23.156  0.00  0.00    +0.037 A 
ATOM     17  C   UNL     1       7.349   1.975  21.959  0.00  0.00    +0.013 A 
ATOM     18  C   UNL     1       6.495   3.077  21.939  0.00  0.00    +0.007 A 
ATOM     19  C   UNL     1       5.844   3.500  23.111  0.00  0.00    -0.008 A 
ATOM     20  C   UNL     1       6.163   2.855  24.316  0.00  0.00    +0.007 A 
ATOM     21  C   UNL     1       7.066   1.793  24.341  0.00  0.00    +0.013 A 
BRANCH  19  22
ATOM     22  C   UNL     1       4.837   4.649  23.068  0.00  0.00    +0.183 C 
ATOM     23  C   UNL     1       3.841   4.485  24.224  0.00  0.00    +0.056 C 
BRANCH  22  24
ATOM     24  C   UNL     1       5.522   6.059  23.114  0.00  0.00    +0.422 C 
ATOM     25  F   UNL     1       4.655   7.034  23.473  0.00  0.00    -0.167 F 
ATOM     26  F   UNL     1       5.981   6.386  21.875  0.00  0.00    -0.167 F 
ATOM     27  F   UNL     1       6.580   6.133  23.950  0.00  0.00    -0.167 F 
ENDBRANCH  22  24
BRANCH  22  28
ATOM     28  O   UNL     1       4.034   4.516  21.864  0.00  0.00    -0.376 OA
ATOM     29  H   UNL     1       4.605   4.753  21.108  0.00  0.00    +0.211 HD
ENDBRANCH  22  28
ENDBRANCH  19  22
ENDBRANCH   2  16
BRANCH   1  30
ATOM     30  C   UNL     1       8.925  -2.296  23.072  0.00  0.00    +0.077 C 
ATOM     31  C   UNL     1       9.513  -3.047  24.244  0.00  0.00    +0.024 C 
ATOM     32  C   UNL     1      10.407  -2.252  23.358  0.00  0.00    +0.024 C 
ENDBRANCH   1  30
TORSDOF 7
ENDMDL
MODEL 9
REMARK VINA RESULT:      -6.1      3.902      7.363
REMARK  Name = 
REMARK  8 active torsions:
REMARK  status: ('A' for Active; 'I' for Inactive)
REMARK    1  A    between atoms: C_2  and  N_15
REMARK    2  A    between atoms: C_5  and  C_9
REMARK    3  A    between atoms: N_15  and  C_16
REMARK    4  A    between atoms: C_19  and  C_21
REMARK    5  A    between atoms: C_24  and  C_27
REMARK    6  A    between atoms: C_27  and  C_28
REMARK    7  A    between atoms: C_27  and  O_29
REMARK    8  A    between atoms: C_27  and  C_30
REMARK                            x       y       z     vdW  Elec       q    Type
REMARK                         _______ _______ _______ _____ _____    ______ ____
ROOT
ATOM      1  N   UNL     1       6.452  -4.057  23.622  0.00  0.00    -0.291 N 
ATOM      2  C   UNL     1       5.742  -4.764  24.617  0.00  0.00    +0.247 C 
ATOM      3  O   UNL     1       5.683  -5.994  24.681  0.00  0.00    -0.270 OA
ENDROOT
BRANCH   1   4
ATOM      4  C   UNL     1       6.863  -2.616  23.771  0.00  0.00    +0.077 C 
ATOM      5  C   UNL     1       7.153  -1.888  22.441  0.00  0.00    +0.023 C 
ATOM      6  C   UNL     1       8.530  -2.187  21.855  0.00  0.00    +0.010 C 
ATOM      7  C   UNL     1       9.685  -1.893  22.834  0.00  0.00    +0.021 C 
ATOM      8  C   UNL     1       9.415  -2.645  24.154  0.00  0.00    +0.010 C 
ATOM      9  C   UNL     1       8.031  -2.354  24.747  0.00  0.00    +0.023 C 
BRANCH   7  10
ATOM     10  C   UNL     1      10.011  -0.419  23.025  0.00  0.00    -0.026 A 
ATOM     11  C   UNL     1      10.420   0.109  24.251  0.00  0.00    +0.114 A 
ATOM     12  N   UNL     1      10.691   1.413  24.485  0.00  0.00    -0.263 NA
ATOM     13  C   UNL     1      10.523   2.262  23.453  0.00  0.00    +0.111 A 
ATOM     14  C   UNL     1      10.087   1.864  22.209  0.00  0.00    +0.020 A 
ATOM     15  C   UNL     1       9.818   0.518  21.999  0.00  0.00    +0.007 A 
ENDBRANCH   7  10
ENDBRANCH   1   4
BRANCH   2  16
ATOM     16  C   UNL     1       5.048  -4.066  25.728  0.00  0.00    +0.037 A 
ATOM     17  C   UNL     1       5.612  -4.156  27.005  0.00  0.00    +0.013 A 
ATOM     18  C   UNL     1       5.030  -3.485  28.080  0.00  0.00    +0.007 A 
ATOM     19  C   UNL     1       3.892  -2.682  27.893  0.00  0.00    -0.008 A 
ATOM     20  C   UNL     1       3.296  -2.664  26.623  0.00  0.00    +0.007 A 
ATOM     21  C   UNL     1       3.845  -3.387  25.565  0.00  0.00    +0.013 A 
BRANCH  19  22
ATOM     22  C   UNL     1       3.312  -1.875  29.054  0.00  0.00    +0.183 C 
ATOM     23  C   UNL     1       3.445  -2.692  30.346  0.00  0.00    +0.056 C 
BRANCH  22  24
ATOM     24  C   UNL     1       3.982  -0.466  29.209  0.00  0.00    +0.422 C 
ATOM     25  F   UNL     1       4.758  -0.390  30.315  0.00  0.00    -0.167 F 
ATOM     26  F   UNL     1       3.020   0.488  29.344  0.00  0.00    -0.167 F 
ATOM     27  F   UNL     1       4.746  -0.098  28.156  0.00  0.00    -0.167 F 
ENDBRANCH  22  24
BRANCH  22  28
ATOM     28  O   UNL     1       1.879  -1.733  28.849  0.00  0.00    -0.376 OA
ATOM     29  H   UNL     1       1.750  -1.382  27.948  0.00  0.00    +0.211 HD
ENDBRANCH  22  28
ENDBRANCH  19  22
ENDBRANCH   2  16
BRANCH   1  30
ATOM     30  C   UNL     1       7.196  -4.873  22.661  0.00  0.00    +0.077 C 
ATOM     31  C   UNL     1       6.616  -5.195  21.303  0.00  0.00    +0.024 C 
ATOM     32  C   UNL     1       6.881  -6.296  22.269  0.00  0.00    +0.024 C 
ENDBRANCH   1  30
TORSDOF 7
ENDMDL
