MODEL 1
REMARK VINA RESULT:      -5.2      0.000      0.000
REMARK  Name = 
REMARK  14 active torsions:
REMARK  status: ('A' for Active; 'I' for Inactive)
REMARK    1  A    between atoms: O_1  and  C_2
REMARK    2  A    between atoms: C_2  and  C_4
REMARK    3  A    between atoms: C_2  and  C_10
REMARK    4  A    between atoms: C_4  and  O_5
REMARK    5  A    between atoms: O_5  and  P_6
REMARK    6  A    between atoms: P_6  and  O_7
REMARK    7  A    between atoms: P_6  and  O_8
REMARK    8  A    between atoms: C_10  and  O_12
REMARK    9  A    between atoms: C_10  and  C_13
REMARK   10  A    between atoms: C_13  and  O_15
REMARK   11  A    between atoms: C_13  and  C_16
REMARK   12  A    between atoms: C_16  and  O_18
REMARK   13  A    between atoms: C_16  and  C_19
REMARK   14  A    between atoms: C_19  and  O_20
REMARK                            x       y       z     vdW  Elec       q    Type
REMARK                         _______ _______ _______ _____ _____    ______ ____
ROOT
ATOM      1  C   UNL     1       7.495  -5.319  25.123  0.00  0.00    +0.177 C 
ENDROOT
BRANCH   1   2
ATOM      2  O   UNL     1       6.574  -4.442  24.420  0.00  0.00    -0.386 OA
ATOM      3  H   UNL     1       6.270  -3.771  25.057  0.00  0.00    +0.210 HD
ENDBRANCH   1   2
BRANCH   1   4
ATOM      4  C   UNL     1       8.905  -4.959  24.599  0.00  0.00    +0.172 C 
BRANCH   4   5
ATOM      5  O   UNL     1       9.858  -5.885  25.189  0.00  0.00    -0.387 OA
ATOM      6  H   UNL     1      10.135  -6.530  24.494  0.00  0.00    +0.210 HD
ENDBRANCH   4   5
BRANCH   4   7
ATOM      7  C   UNL     1       9.424  -3.538  24.839  0.00  0.00    +0.206 C 
BRANCH   7   8
ATOM      8  O   UNL     1      10.055  -2.967  23.707  0.00  0.00    -0.284 OA
BRANCH   8   9
ATOM      9  P   UNL     1       9.272  -1.842  22.876  0.00  0.00    +0.472 P 
ATOM     10  O   UNL     1       8.980  -0.588  23.629  0.00  0.00    -0.228 OA
BRANCH   9  11
ATOM     11  O   UNL     1       8.004  -2.606  22.292  0.00  0.00    -0.303 OA
ATOM     12  H   UNL     1       7.492  -2.045  21.682  0.00  0.00    +0.222 HD
ENDBRANCH   9  11
BRANCH   9  13
ATOM     13  O   UNL     1      10.188  -1.599  21.593  0.00  0.00    -0.303 OA
ATOM     14  H   UNL     1      10.311  -2.432  21.096  0.00  0.00    +0.222 HD
ENDBRANCH   9  13
ENDBRANCH   8   9
ENDBRANCH   7   8
ENDBRANCH   4   7
ENDBRANCH   1   4
BRANCH   1  15
ATOM     15  C   UNL     1       7.203  -5.161  26.634  0.00  0.00    +0.185 C 
BRANCH  15  16
ATOM     16  O   UNL     1       8.223  -5.827  27.421  0.00  0.00    -0.386 OA
ATOM     17  H   UNL     1       7.831  -5.963  28.307  0.00  0.00    +0.210 HD
ENDBRANCH  15  16
BRANCH  15  18
ATOM     18  C   UNL     1       5.873  -5.712  27.154  0.00  0.00    +0.254 C 
BRANCH  18  19
ATOM     19  C   UNL     1       5.904  -6.266  28.572  0.00  0.00    +0.336 C 
ATOM     20  O   UNL     1       6.083  -5.635  29.598  0.00  0.00    -0.248 OA
BRANCH  19  21
ATOM     21  O   UNL     1       5.650  -7.602  28.584  0.00  0.00    -0.479 OA
ATOM     22  H   UNL     1       6.342  -8.085  28.082  0.00  0.00    +0.295 HD
ENDBRANCH  19  21
ENDBRANCH  18  19
BRANCH  18  23
ATOM     23  O   UNL     1       5.361  -6.710  26.250  0.00  0.00    -0.378 OA
ATOM     24  H   UNL     1       5.595  -6.388  25.354  0.00  0.00    +0.211 HD
ENDBRANCH  18  23
ENDBRANCH  15  18
ENDBRANCH   1  15
TORSDOF 14
ENDMDL
MODEL 2
REMARK VINA RESULT:      -5.2      5.036      7.608
REMARK  Name = 
REMARK  14 active torsions:
REMARK  status: ('A' for Active; 'I' for Inactive)
REMARK    1  A    between atoms: O_1  and  C_2
REMARK    2  A    between atoms: C_2  and  C_4
REMARK    3  A    between atoms: C_2  and  C_10
REMARK    4  A    between atoms: C_4  and  O_5
REMARK    5  A    between atoms: O_5  and  P_6
REMARK    6  A    between atoms: P_6  and  O_7
REMARK    7  A    between atoms: P_6  and  O_8
REMARK    8  A    between atoms: C_10  and  O_12
REMARK    9  A    between atoms: C_10  and  C_13
REMARK   10  A    between atoms: C_13  and  O_15
REMARK   11  A    between atoms: C_13  and  C_16
REMARK   12  A    between atoms: C_16  and  O_18
REMARK   13  A    between atoms: C_16  and  C_19
REMARK   14  A    between atoms: C_19  and  O_20
REMARK                            x       y       z     vdW  Elec       q    Type
REMARK                         _______ _______ _______ _____ _____    ______ ____
ROOT
ATOM      1  C   UNL     1      10.150   0.990  22.817  0.00  0.00    +0.177 C 
ENDROOT
BRANCH   1   2
ATOM      2  O   UNL     1       9.955   1.584  21.505  0.00  0.00    -0.386 OA
ATOM      3  H   UNL     1       9.882   0.852  20.865  0.00  0.00    +0.210 HD
ENDBRANCH   1   2
BRANCH   1   4
ATOM      4  C   UNL     1      10.324   2.175  23.796  0.00  0.00    +0.172 C 
BRANCH   4   5
ATOM      5  O   UNL     1       9.042   2.433  24.428  0.00  0.00    -0.387 OA
ATOM      6  H   UNL     1       9.116   2.204  25.386  0.00  0.00    +0.210 HD
ENDBRANCH   4   5
BRANCH   4   7
ATOM      7  C   UNL     1      10.847   3.502  23.237  0.00  0.00    +0.206 C 
BRANCH   7   8
ATOM      8  O   UNL     1      12.184   3.785  23.606  0.00  0.00    -0.284 OA
BRANCH   8   9
ATOM      9  P   UNL     1      12.795   5.222  23.242  0.00  0.00    +0.472 P 
ATOM     10  O   UNL     1      12.367   6.336  24.136  0.00  0.00    -0.228 OA
BRANCH   9  11
ATOM     11  O   UNL     1      12.452   5.407  21.699  0.00  0.00    -0.303 OA
ATOM     12  H   UNL     1      12.981   6.116  21.292  0.00  0.00    +0.222 HD
ENDBRANCH   9  11
BRANCH   9  13
ATOM     13  O   UNL     1      14.373   4.987  23.250  0.00  0.00    -0.303 OA
ATOM     14  H   UNL     1      14.644   4.515  24.062  0.00  0.00    +0.222 HD
ENDBRANCH   9  13
ENDBRANCH   8   9
ENDBRANCH   7   8
ENDBRANCH   4   7
ENDBRANCH   1   4
BRANCH   1  15
ATOM     15  C   UNL     1       8.979   0.006  23.045  0.00  0.00    +0.185 C 
BRANCH  15  16
ATOM     16  O   UNL     1       8.862  -0.328  24.452  0.00  0.00    -0.386 OA
ATOM     17  H   UNL     1       9.761  -0.237  24.824  0.00  0.00    +0.210 HD
ENDBRANCH  15  16
BRANCH  15  18
ATOM     18  C   UNL     1       9.041  -1.340  22.318  0.00  0.00    +0.254 C 
BRANCH  18  19
ATOM     19  C   UNL     1       9.052  -2.569  23.218  0.00  0.00    +0.336 C 
ATOM     20  O   UNL     1       8.098  -3.269  23.508  0.00  0.00    -0.248 OA
BRANCH  19  21
ATOM     21  O   UNL     1      10.310  -2.852  23.650  0.00  0.00    -0.479 OA
ATOM     22  H   UNL     1      10.831  -3.270  22.930  0.00  0.00    +0.295 HD
ENDBRANCH  19  21
ENDBRANCH  18  19
BRANCH  18  23
ATOM     23  O   UNL     1      10.175  -1.374  21.431  0.00  0.00    -0.378 OA
ATOM     24  H   UNL     1      10.843  -1.925  21.890  0.00  0.00    +0.211 HD
ENDBRANCH  18  23
ENDBRANCH  15  18
ENDBRANCH   1  15
TORSDOF 14
ENDMDL
MODEL 3
REMARK VINA RESULT:      -5.2      1.928      3.794
REMARK  Name = 
REMARK  14 active torsions:
REMARK  status: ('A' for Active; 'I' for Inactive)
REMARK    1  A    between atoms: O_1  and  C_2
REMARK    2  A    between atoms: C_2  and  C_4
REMARK    3  A    between atoms: C_2  and  C_10
REMARK    4  A    between atoms: C_4  and  O_5
REMARK    5  A    between atoms: O_5  and  P_6
REMARK    6  A    between atoms: P_6  and  O_7
REMARK    7  A    between atoms: P_6  and  O_8
REMARK    8  A    between atoms: C_10  and  O_12
REMARK    9  A    between atoms: C_10  and  C_13
REMARK   10  A    between atoms: C_13  and  O_15
REMARK   11  A    between atoms: C_13  and  C_16
REMARK   12  A    between atoms: C_16  and  O_18
REMARK   13  A    between atoms: C_16  and  C_19
REMARK   14  A    between atoms: C_19  and  O_20
REMARK                            x       y       z     vdW  Elec       q    Type
REMARK                         _______ _______ _______ _____ _____    ______ ____
ROOT
ATOM      1  C   UNL     1       8.571  -2.800  24.305  0.00  0.00    +0.177 C 
ENDROOT
BRANCH   1   2
ATOM      2  O   UNL     1       9.845  -2.410  23.724  0.00  0.00    -0.386 OA
ATOM      3  H   UNL     1      10.546  -2.797  24.279  0.00  0.00    +0.210 HD
ENDBRANCH   1   2
BRANCH   1   4
ATOM      4  C   UNL     1       7.547  -1.744  23.826  0.00  0.00    +0.172 C 
BRANCH   4   5
ATOM      5  O   UNL     1       7.273  -1.984  22.419  0.00  0.00    -0.387 OA
ATOM      6  H   UNL     1       6.420  -2.478  22.349  0.00  0.00    +0.210 HD
ENDBRANCH   4   5
BRANCH   4   7
ATOM      7  C   UNL     1       7.907  -0.264  23.987  0.00  0.00    +0.206 C 
BRANCH   7   8
ATOM      8  O   UNL     1       8.139   0.400  22.758  0.00  0.00    -0.284 OA
BRANCH   8   9
ATOM      9  P   UNL     1       9.649   0.548  22.238  0.00  0.00    +0.472 P 
ATOM     10  O   UNL     1      10.690   0.521  23.305  0.00  0.00    -0.228 OA
BRANCH   9  11
ATOM     11  O   UNL     1       9.620   1.859  21.336  0.00  0.00    -0.303 OA
ATOM     12  H   UNL     1       9.981   2.631  21.807  0.00  0.00    +0.222 HD
ENDBRANCH   9  11
BRANCH   9  13
ATOM     13  O   UNL     1       9.812  -0.634  21.179  0.00  0.00    -0.303 OA
ATOM     14  H   UNL     1       9.030  -1.220  21.196  0.00  0.00    +0.222 HD
ENDBRANCH   9  13
ENDBRANCH   8   9
ENDBRANCH   7   8
ENDBRANCH   4   7
ENDBRANCH   1   4
BRANCH   1  15
ATOM     15  C   UNL     1       8.339  -4.282  23.930  0.00  0.00    +0.185 C 
BRANCH  15  16
ATOM     16  O   UNL     1       6.920  -4.577  23.879  0.00  0.00    -0.386 OA
ATOM     17  H   UNL     1       6.468  -3.779  24.217  0.00  0.00    +0.210 HD
ENDBRANCH  15  16
BRANCH  15  18
ATOM     18  C   UNL     1       8.935  -5.343  24.859  0.00  0.00    +0.254 C 
BRANCH  18  19
ATOM     19  C   UNL     1       8.355  -5.380  26.267  0.00  0.00    +0.336 C 
ATOM     20  O   UNL     1       7.284  -5.852  26.603  0.00  0.00    -0.248 OA
BRANCH  19  21
ATOM     21  O   UNL     1       9.222  -4.848  27.170  0.00  0.00    -0.479 OA
ATOM     22  H   UNL     1       9.261  -5.408  27.976  0.00  0.00    +0.295 HD
ENDBRANCH  19  21
ENDBRANCH  18  19
BRANCH  18  23
ATOM     23  O   UNL     1      10.367  -5.201  24.923  0.00  0.00    -0.378 OA
ATOM     24  H   UNL     1      10.522  -4.444  25.526  0.00  0.00    +0.211 HD
ENDBRANCH  18  23
ENDBRANCH  15  18
ENDBRANCH   1  15
TORSDOF 14
ENDMDL
MODEL 4
REMARK VINA RESULT:      -5.2      2.715      4.351
REMARK  Name = 
REMARK  14 active torsions:
REMARK  status: ('A' for Active; 'I' for Inactive)
REMARK    1  A    between atoms: O_1  and  C_2
REMARK    2  A    between atoms: C_2  and  C_4
REMARK    3  A    between atoms: C_2  and  C_10
REMARK    4  A    between atoms: C_4  and  O_5
REMARK    5  A    between atoms: O_5  and  P_6
REMARK    6  A    between atoms: P_6  and  O_7
REMARK    7  A    between atoms: P_6  and  O_8
REMARK    8  A    between atoms: C_10  and  O_12
REMARK    9  A    between atoms: C_10  and  C_13
REMARK   10  A    between atoms: C_13  and  O_15
REMARK   11  A    between atoms: C_13  and  C_16
REMARK   12  A    between atoms: C_16  and  O_18
REMARK   13  A    between atoms: C_16  and  C_19
REMARK   14  A    between atoms: C_19  and  O_20
REMARK                            x       y       z     vdW  Elec       q    Type
REMARK                         _______ _______ _______ _____ _____    ______ ____
ROOT
ATOM      1  C   UNL     1       8.354  -2.826  22.477  0.00  0.00    +0.177 C 
ENDROOT
BRANCH   1   2
ATOM      2  O   UNL     1       6.901  -2.881  22.483  0.00  0.00    -0.386 OA
ATOM      3  H   UNL     1       6.578  -2.013  22.178  0.00  0.00    +0.210 HD
ENDBRANCH   1   2
BRANCH   1   4
ATOM      4  C   UNL     1       8.724  -1.470  21.832  0.00  0.00    +0.172 C 
BRANCH   4   5
ATOM      5  O   UNL     1      10.145  -1.486  21.529  0.00  0.00    -0.387 OA
ATOM      6  H   UNL     1      10.303  -0.896  20.752  0.00  0.00    +0.210 HD
ENDBRANCH   4   5
BRANCH   4   7
ATOM      7  C   UNL     1       8.427  -0.191  22.620  0.00  0.00    +0.206 C 
BRANCH   7   8
ATOM      8  O   UNL     1       9.584   0.436  23.142  0.00  0.00    -0.284 OA
BRANCH   8   9
ATOM      9  P   UNL     1       9.731   2.025  22.994  0.00  0.00    +0.472 P 
ATOM     10  O   UNL     1       8.526   2.811  23.390  0.00  0.00    -0.228 OA
BRANCH   9  11
ATOM     11  O   UNL     1      10.225   2.230  21.495  0.00  0.00    -0.303 OA
ATOM     12  H   UNL     1      10.341   1.381  21.033  0.00  0.00    +0.222 HD
ENDBRANCH   9  11
BRANCH   9  13
ATOM     13  O   UNL     1      11.019   2.379  23.866  0.00  0.00    -0.303 OA
ATOM     14  H   UNL     1      11.779   2.585  23.287  0.00  0.00    +0.222 HD
ENDBRANCH   9  13
ENDBRANCH   8   9
ENDBRANCH   7   8
ENDBRANCH   4   7
ENDBRANCH   1   4
BRANCH   1  15
ATOM     15  C   UNL     1       8.820  -3.112  23.924  0.00  0.00    +0.185 C 
BRANCH  15  16
ATOM     16  O   UNL     1      10.269  -3.124  23.998  0.00  0.00    -0.386 OA
ATOM     17  H   UNL     1      10.578  -3.497  23.148  0.00  0.00    +0.210 HD
ENDBRANCH  15  16
BRANCH  15  18
ATOM     18  C   UNL     1       8.377  -4.432  24.559  0.00  0.00    +0.254 C 
BRANCH  18  19
ATOM     19  C   UNL     1       9.204  -4.896  25.751  0.00  0.00    +0.336 C 
ATOM     20  O   UNL     1       8.984  -4.663  26.926  0.00  0.00    -0.248 OA
BRANCH  19  21
ATOM     21  O   UNL     1      10.243  -5.679  25.354  0.00  0.00    -0.479 OA
ATOM     22  H   UNL     1       9.915  -6.433  24.818  0.00  0.00    +0.295 HD
ENDBRANCH  19  21
ENDBRANCH  18  19
BRANCH  18  23
ATOM     23  O   UNL     1       8.330  -5.471  23.562  0.00  0.00    -0.378 OA
ATOM     24  H   UNL     1       7.377  -5.660  23.433  0.00  0.00    +0.211 HD
ENDBRANCH  18  23
ENDBRANCH  15  18
ENDBRANCH   1  15
TORSDOF 14
ENDMDL
MODEL 5
REMARK VINA RESULT:      -5.1      2.683      6.750
REMARK  Name = 
REMARK  14 active torsions:
REMARK  status: ('A' for Active; 'I' for Inactive)
REMARK    1  A    between atoms: O_1  and  C_2
REMARK    2  A    between atoms: C_2  and  C_4
REMARK    3  A    between atoms: C_2  and  C_10
REMARK    4  A    between atoms: C_4  and  O_5
REMARK    5  A    between atoms: O_5  and  P_6
REMARK    6  A    between atoms: P_6  and  O_7
REMARK    7  A    between atoms: P_6  and  O_8
REMARK    8  A    between atoms: C_10  and  O_12
REMARK    9  A    between atoms: C_10  and  C_13
REMARK   10  A    between atoms: C_13  and  O_15
REMARK   11  A    between atoms: C_13  and  C_16
REMARK   12  A    between atoms: C_16  and  O_18
REMARK   13  A    between atoms: C_16  and  C_19
REMARK   14  A    between atoms: C_19  and  O_20
REMARK                            x       y       z     vdW  Elec       q    Type
REMARK                         _______ _______ _______ _____ _____    ______ ____
ROOT
ATOM      1  C   UNL     1       8.997  -2.503  23.135  0.00  0.00    +0.177 C 
ENDROOT
BRANCH   1   2
ATOM      2  O   UNL     1       9.218  -1.716  24.337  0.00  0.00    -0.386 OA
ATOM      3  H   UNL     1      10.116  -1.343  24.277  0.00  0.00    +0.210 HD
ENDBRANCH   1   2
BRANCH   1   4
ATOM      4  C   UNL     1       7.671  -3.267  23.367  0.00  0.00    +0.172 C 
BRANCH   4   5
ATOM      5  O   UNL     1       6.934  -2.585  24.417  0.00  0.00    -0.387 OA
ATOM      6  H   UNL     1       6.794  -1.647  24.139  0.00  0.00    +0.210 HD
ENDBRANCH   4   5
BRANCH   4   7
ATOM      7  C   UNL     1       7.749  -4.751  23.738  0.00  0.00    +0.206 C 
BRANCH   7   8
ATOM      8  O   UNL     1       7.389  -5.020  25.081  0.00  0.00    -0.284 OA
BRANCH   8   9
ATOM      9  P   UNL     1       8.527  -4.958  26.208  0.00  0.00    +0.472 P 
ATOM     10  O   UNL     1       8.914  -3.584  26.640  0.00  0.00    -0.228 OA
BRANCH   9  11
ATOM     11  O   UNL     1       9.704  -5.851  25.618  0.00  0.00    -0.303 OA
ATOM     12  H   UNL     1       9.614  -5.981  24.658  0.00  0.00    +0.222 HD
ENDBRANCH   9  11
BRANCH   9  13
ATOM     13  O   UNL     1       7.943  -5.844  27.399  0.00  0.00    -0.303 OA
ATOM     14  H   UNL     1       7.943  -6.790  27.154  0.00  0.00    +0.222 HD
ENDBRANCH   9  13
ENDBRANCH   8   9
ENDBRANCH   7   8
ENDBRANCH   4   7
ENDBRANCH   1   4
BRANCH   1  15
ATOM     15  C   UNL     1       9.093  -1.532  21.936  0.00  0.00    +0.185 C 
BRANCH  15  16
ATOM     16  O   UNL     1      10.466  -1.422  21.480  0.00  0.00    -0.386 OA
ATOM     17  H   UNL     1      11.003  -1.270  22.282  0.00  0.00    +0.210 HD
ENDBRANCH  15  16
BRANCH  15  18
ATOM     18  C   UNL     1       8.630  -0.090  22.160  0.00  0.00    +0.254 C 
BRANCH  18  19
ATOM     19  C   UNL     1       9.732   0.907  22.495  0.00  0.00    +0.336 C 
ATOM     20  O   UNL     1      10.439   0.906  23.487  0.00  0.00    -0.248 OA
BRANCH  19  21
ATOM     21  O   UNL     1       9.890   1.819  21.500  0.00  0.00    -0.479 OA
ATOM     22  H   UNL     1      10.662   1.583  20.941  0.00  0.00    +0.295 HD
ENDBRANCH  19  21
ENDBRANCH  18  19
BRANCH  18  23
ATOM     23  O   UNL     1       7.608  -0.049  23.174  0.00  0.00    -0.378 OA
ATOM     24  H   UNL     1       7.002  -0.788  22.958  0.00  0.00    +0.211 HD
ENDBRANCH  18  23
ENDBRANCH  15  18
ENDBRANCH   1  15
TORSDOF 14
ENDMDL
MODEL 6
REMARK VINA RESULT:      -5.1      2.900      6.839
REMARK  Name = 
REMARK  14 active torsions:
REMARK  status: ('A' for Active; 'I' for Inactive)
REMARK    1  A    between atoms: O_1  and  C_2
REMARK    2  A    between atoms: C_2  and  C_4
REMARK    3  A    between atoms: C_2  and  C_10
REMARK    4  A    between atoms: C_4  and  O_5
REMARK    5  A    between atoms: O_5  and  P_6
REMARK    6  A    between atoms: P_6  and  O_7
REMARK    7  A    between atoms: P_6  and  O_8
REMARK    8  A    between atoms: C_10  and  O_12
REMARK    9  A    between atoms: C_10  and  C_13
REMARK   10  A    between atoms: C_13  and  O_15
REMARK   11  A    between atoms: C_13  and  C_16
REMARK   12  A    between atoms: C_16  and  O_18
REMARK   13  A    between atoms: C_16  and  C_19
REMARK   14  A    between atoms: C_19  and  O_20
REMARK                            x       y       z     vdW  Elec       q    Type
REMARK                         _______ _______ _______ _____ _____    ______ ____
ROOT
ATOM      1  C   UNL     1       8.306  -1.774  23.111  0.00  0.00    +0.177 C 
ENDROOT
BRANCH   1   2
ATOM      2  O   UNL     1       8.087  -3.084  22.518  0.00  0.00    -0.386 OA
ATOM      3  H   UNL     1       8.664  -3.713  22.988  0.00  0.00    +0.210 HD
ENDBRANCH   1   2
BRANCH   1   4
ATOM      4  C   UNL     1       9.330  -1.990  24.250  0.00  0.00    +0.172 C 
BRANCH   4   5
ATOM      5  O   UNL     1      10.329  -2.938  23.787  0.00  0.00    -0.387 OA
ATOM      6  H   UNL     1      10.555  -2.719  22.851  0.00  0.00    +0.210 HD
ENDBRANCH   4   5
BRANCH   4   7
ATOM      7  C   UNL     1       8.810  -2.481  25.605  0.00  0.00    +0.206 C 
BRANCH   7   8
ATOM      8  O   UNL     1       7.822  -3.490  25.501  0.00  0.00    -0.284 OA
BRANCH   8   9
ATOM      9  P   UNL     1       8.257  -5.017  25.722  0.00  0.00    +0.472 P 
ATOM     10  O   UNL     1       7.178  -5.915  26.226  0.00  0.00    -0.228 OA
BRANCH   9  11
ATOM     11  O   UNL     1       9.556  -4.920  26.638  0.00  0.00    -0.303 OA
ATOM     12  H   UNL     1       9.403  -4.368  27.425  0.00  0.00    +0.222 HD
ENDBRANCH   9  11
BRANCH   9  13
ATOM     13  O   UNL     1       8.831  -5.467  24.303  0.00  0.00    -0.303 OA
ATOM     14  H   UNL     1       8.142  -5.389  23.615  0.00  0.00    +0.222 HD
ENDBRANCH   9  13
ENDBRANCH   8   9
ENDBRANCH   7   8
ENDBRANCH   4   7
ENDBRANCH   1   4
BRANCH   1  15
ATOM     15  C   UNL     1       8.672  -0.813  21.956  0.00  0.00    +0.185 C 
BRANCH  15  16
ATOM     16  O   UNL     1      10.049  -1.014  21.545  0.00  0.00    -0.386 OA
ATOM     17  H   UNL     1      10.106  -1.942  21.245  0.00  0.00    +0.210 HD
ENDBRANCH  15  16
BRANCH  15  18
ATOM     18  C   UNL     1       8.550   0.689  22.226  0.00  0.00    +0.254 C 
BRANCH  18  19
ATOM     19  C   UNL     1       9.857   1.406  22.537  0.00  0.00    +0.336 C 
ATOM     20  O   UNL     1      10.534   1.286  23.543  0.00  0.00    -0.248 OA
BRANCH  19  21
ATOM     21  O   UNL     1      10.241   2.201  21.502  0.00  0.00    -0.479 OA
ATOM     22  H   UNL     1       9.564   2.184  20.791  0.00  0.00    +0.295 HD
ENDBRANCH  19  21
ENDBRANCH  18  19
BRANCH  18  23
ATOM     23  O   UNL     1       7.598   0.928  23.280  0.00  0.00    -0.378 OA
ATOM     24  H   UNL     1       8.126   0.931  24.106  0.00  0.00    +0.211 HD
ENDBRANCH  18  23
ENDBRANCH  15  18
ENDBRANCH   1  15
TORSDOF 14
ENDMDL
MODEL 7
REMARK VINA RESULT:      -5.1      3.724      7.123
REMARK  Name = 
REMARK  14 active torsions:
REMARK  status: ('A' for Active; 'I' for Inactive)
REMARK    1  A    between atoms: O_1  and  C_2
REMARK    2  A    between atoms: C_2  and  C_4
REMARK    3  A    between atoms: C_2  and  C_10
REMARK    4  A    between atoms: C_4  and  O_5
REMARK    5  A    between atoms: O_5  and  P_6
REMARK    6  A    between atoms: P_6  and  O_7
REMARK    7  A    between atoms: P_6  and  O_8
REMARK    8  A    between atoms: C_10  and  O_12
REMARK    9  A    between atoms: C_10  and  C_13
REMARK   10  A    between atoms: C_13  and  O_15
REMARK   11  A    between atoms: C_13  and  C_16
REMARK   12  A    between atoms: C_16  and  O_18
REMARK   13  A    between atoms: C_16  and  C_19
REMARK   14  A    between atoms: C_19  and  O_20
REMARK                            x       y       z     vdW  Elec       q    Type
REMARK                         _______ _______ _______ _____ _____    ______ ____
ROOT
ATOM      1  C   UNL     1       9.017  -1.029  21.831  0.00  0.00    +0.177 C 
ENDROOT
BRANCH   1   2
ATOM      2  O   UNL     1      10.402  -1.287  21.472  0.00  0.00    -0.386 OA
ATOM      3  H   UNL     1      10.940  -0.580  21.872  0.00  0.00    +0.210 HD
ENDBRANCH   1   2
BRANCH   1   4
ATOM      4  C   UNL     1       8.707  -1.966  23.022  0.00  0.00    +0.172 C 
BRANCH   4   5
ATOM      5  O   UNL     1       7.567  -1.424  23.740  0.00  0.00    -0.387 OA
ATOM      6  H   UNL     1       7.278  -2.089  24.411  0.00  0.00    +0.210 HD
ENDBRANCH   4   5
BRANCH   4   7
ATOM      7  C   UNL     1       9.821  -2.229  24.041  0.00  0.00    +0.206 C 
BRANCH   7   8
ATOM      8  O   UNL     1      10.159  -3.598  24.170  0.00  0.00    -0.284 OA
BRANCH   8   9
ATOM      9  P   UNL     1       9.180  -4.557  25.002  0.00  0.00    +0.472 P 
ATOM     10  O   UNL     1       8.171  -3.852  25.844  0.00  0.00    -0.228 OA
BRANCH   9  11
ATOM     11  O   UNL     1      10.166  -5.533  25.781  0.00  0.00    -0.303 OA
ATOM     12  H   UNL     1      10.051  -6.460  25.505  0.00  0.00    +0.222 HD
ENDBRANCH   9  11
BRANCH   9  13
ATOM     13  O   UNL     1       8.521  -5.495  23.893  0.00  0.00    -0.303 OA
ATOM     14  H   UNL     1       7.795  -5.027  23.435  0.00  0.00    +0.222 HD
ENDBRANCH   9  13
ENDBRANCH   8   9
ENDBRANCH   7   8
ENDBRANCH   4   7
ENDBRANCH   1   4
BRANCH   1  15
ATOM     15  C   UNL     1       8.881   0.498  22.032  0.00  0.00    +0.185 C 
BRANCH  15  16
ATOM     16  O   UNL     1       8.624   1.157  20.765  0.00  0.00    -0.386 OA
ATOM     17  H   UNL     1       9.290   0.805  20.141  0.00  0.00    +0.210 HD
ENDBRANCH  15  16
BRANCH  15  18
ATOM     18  C   UNL     1      10.079   1.238  22.632  0.00  0.00    +0.254 C 
BRANCH  18  19
ATOM     19  C   UNL     1       9.901   1.716  24.067  0.00  0.00    +0.336 C 
ATOM     20  O   UNL     1       9.190   2.629  24.449  0.00  0.00    -0.248 OA
BRANCH  19  21
ATOM     21  O   UNL     1      10.615   0.950  24.934  0.00  0.00    -0.479 OA
ATOM     22  H   UNL     1      11.560   1.217  24.925  0.00  0.00    +0.295 HD
ENDBRANCH  19  21
ENDBRANCH  18  19
BRANCH  18  23
ATOM     23  O   UNL     1      10.450   2.346  21.790  0.00  0.00    -0.378 OA
ATOM     24  H   UNL     1      11.388   2.185  21.553  0.00  0.00    +0.211 HD
ENDBRANCH  18  23
ENDBRANCH  15  18
ENDBRANCH   1  15
TORSDOF 14
ENDMDL
MODEL 8
REMARK VINA RESULT:      -5.0      2.959      6.968
REMARK  Name = 
REMARK  14 active torsions:
REMARK  status: ('A' for Active; 'I' for Inactive)
REMARK    1  A    between atoms: O_1  and  C_2
REMARK    2  A    between atoms: C_2  and  C_4
REMARK    3  A    between atoms: C_2  and  C_10
REMARK    4  A    between atoms: C_4  and  O_5
REMARK    5  A    between atoms: O_5  and  P_6
REMARK    6  A    between atoms: P_6  and  O_7
REMARK    7  A    between atoms: P_6  and  O_8
REMARK    8  A    between atoms: C_10  and  O_12
REMARK    9  A    between atoms: C_10  and  C_13
REMARK   10  A    between atoms: C_13  and  O_15
REMARK   11  A    between atoms: C_13  and  C_16
REMARK   12  A    between atoms: C_16  and  O_18
REMARK   13  A    between atoms: C_16  and  C_19
REMARK   14  A    between atoms: C_19  and  O_20
REMARK                            x       y       z     vdW  Elec       q    Type
REMARK                         _______ _______ _______ _____ _____    ______ ____
ROOT
ATOM      1  C   UNL     1       8.527  -0.627  24.228  0.00  0.00    +0.177 C 
ENDROOT
BRANCH   1   2
ATOM      2  O   UNL     1       8.068  -1.763  23.445  0.00  0.00    -0.386 OA
ATOM      3  H   UNL     1       8.602  -2.533  23.714  0.00  0.00    +0.210 HD
ENDBRANCH   1   2
BRANCH   1   4
ATOM      4  C   UNL     1       8.269  -1.000  25.707  0.00  0.00    +0.172 C 
BRANCH   4   5
ATOM      5  O   UNL     1       9.348  -0.448  26.508  0.00  0.00    -0.387 OA
ATOM      6  H   UNL     1       8.993  -0.241  27.406  0.00  0.00    +0.210 HD
ENDBRANCH   4   5
BRANCH   4   7
ATOM      7  C   UNL     1       8.130  -2.483  26.064  0.00  0.00    +0.206 C 
BRANCH   7   8
ATOM      8  O   UNL     1       9.203  -3.281  25.596  0.00  0.00    -0.284 OA
BRANCH   8   9
ATOM      9  P   UNL     1       8.943  -4.841  25.335  0.00  0.00    +0.472 P 
ATOM     10  O   UNL     1       7.936  -5.474  26.235  0.00  0.00    -0.228 OA
BRANCH   9  11
ATOM     11  O   UNL     1      10.397  -5.486  25.368  0.00  0.00    -0.303 OA
ATOM     12  H   UNL     1      10.397  -6.358  25.801  0.00  0.00    +0.222 HD
ENDBRANCH   9  11
BRANCH   9  13
ATOM     13  O   UNL     1       8.534  -4.914  23.795  0.00  0.00    -0.303 OA
ATOM     14  H   UNL     1       9.325  -5.044  23.236  0.00  0.00    +0.222 HD
ENDBRANCH   9  13
ENDBRANCH   8   9
ENDBRANCH   7   8
ENDBRANCH   4   7
ENDBRANCH   1   4
BRANCH   1  15
ATOM     15  C   UNL     1       9.976  -0.328  23.780  0.00  0.00    +0.185 C 
BRANCH  15  16
ATOM     16  O   UNL     1      10.481   0.857  24.449  0.00  0.00    -0.386 OA
ATOM     17  H   UNL     1      11.448   0.735  24.516  0.00  0.00    +0.210 HD
ENDBRANCH  15  16
BRANCH  15  18
ATOM     18  C   UNL     1      10.215  -0.078  22.289  0.00  0.00    +0.254 C 
BRANCH  18  19
ATOM     19  C   UNL     1       9.488   1.126  21.704  0.00  0.00    +0.336 C 
ATOM     20  O   UNL     1       8.340   1.159  21.299  0.00  0.00    -0.248 OA
BRANCH  19  21
ATOM     21  O   UNL     1      10.276   2.234  21.723  0.00  0.00    -0.479 OA
ATOM     22  H   UNL     1      10.975   2.167  21.036  0.00  0.00    +0.295 HD
ENDBRANCH  19  21
ENDBRANCH  18  19
BRANCH  18  23
ATOM     23  O   UNL     1       9.894  -1.259  21.530  0.00  0.00    -0.378 OA
ATOM     24  H   UNL     1       9.415  -0.933  20.739  0.00  0.00    +0.211 HD
ENDBRANCH  18  23
ENDBRANCH  15  18
ENDBRANCH   1  15
TORSDOF 14
ENDMDL
MODEL 9
REMARK VINA RESULT:      -5.0      2.581      5.450
REMARK  Name = 
REMARK  14 active torsions:
REMARK  status: ('A' for Active; 'I' for Inactive)
REMARK    1  A    between atoms: O_1  and  C_2
REMARK    2  A    between atoms: C_2  and  C_4
REMARK    3  A    between atoms: C_2  and  C_10
REMARK    4  A    between atoms: C_4  and  O_5
REMARK    5  A    between atoms: O_5  and  P_6
REMARK    6  A    between atoms: P_6  and  O_7
REMARK    7  A    between atoms: P_6  and  O_8
REMARK    8  A    between atoms: C_10  and  O_12
REMARK    9  A    between atoms: C_10  and  C_13
REMARK   10  A    between atoms: C_13  and  O_15
REMARK   11  A    between atoms: C_13  and  C_16
REMARK   12  A    between atoms: C_16  and  O_18
REMARK   13  A    between atoms: C_16  and  C_19
REMARK   14  A    between atoms: C_19  and  O_20
REMARK                            x       y       z     vdW  Elec       q    Type
REMARK                         _______ _______ _______ _____ _____    ______ ____
ROOT
ATOM      1  C   UNL     1       8.475  -4.884  24.460  0.00  0.00    +0.177 C 
ENDROOT
BRANCH   1   2
ATOM      2  O   UNL     1       9.741  -5.474  24.861  0.00  0.00    -0.386 OA
ATOM      3  H   UNL     1      10.403  -4.759  24.868  0.00  0.00    +0.210 HD
ENDBRANCH   1   2
BRANCH   1   4
ATOM      4  C   UNL     1       7.515  -5.086  25.656  0.00  0.00    +0.172 C 
BRANCH   4   5
ATOM      5  O   UNL     1       8.172  -5.949  26.623  0.00  0.00    -0.387 OA
ATOM      6  H   UNL     1       8.468  -5.393  27.384  0.00  0.00    +0.210 HD
ENDBRANCH   4   5
BRANCH   4   7
ATOM      7  C   UNL     1       6.126  -5.669  25.376  0.00  0.00    +0.206 C 
BRANCH   7   8
ATOM      8  O   UNL     1       5.468  -5.065  24.278  0.00  0.00    -0.284 OA
BRANCH   8   9
ATOM      9  P   UNL     1       4.603  -5.991  23.296  0.00  0.00    +0.472 P 
ATOM     10  O   UNL     1       3.314  -5.395  22.840  0.00  0.00    -0.228 OA
BRANCH   9  11
ATOM     11  O   UNL     1       4.486  -7.374  24.073  0.00  0.00    -0.303 OA
ATOM     12  H   UNL     1       5.312  -7.601  24.535  0.00  0.00    +0.222 HD
ENDBRANCH   9  11
BRANCH   9  13
ATOM     13  O   UNL     1       5.598  -6.318  22.093  0.00  0.00    -0.303 OA
ATOM     14  H   UNL     1       5.611  -7.278  21.911  0.00  0.00    +0.222 HD
ENDBRANCH   9  13
ENDBRANCH   8   9
ENDBRANCH   7   8
ENDBRANCH   4   7
ENDBRANCH   1   4
BRANCH   1  15
ATOM     15  C   UNL     1       8.779  -3.442  23.989  0.00  0.00    +0.185 C 
BRANCH  15  16
ATOM     16  O   UNL     1       8.498  -2.492  25.048  0.00  0.00    -0.386 OA
ATOM     17  H   UNL     1       8.740  -2.941  25.882  0.00  0.00    +0.210 HD
ENDBRANCH  15  16
BRANCH  15  18
ATOM     18  C   UNL     1       8.010  -2.923  22.772  0.00  0.00    +0.254 C 
BRANCH  18  19
ATOM     19  C   UNL     1       6.998  -1.821  23.058  0.00  0.00    +0.336 C 
ATOM     20  O   UNL     1       7.145  -0.627  22.862  0.00  0.00    -0.248 OA
BRANCH  19  21
ATOM     21  O   UNL     1       5.833  -2.334  23.534  0.00  0.00    -0.479 OA
ATOM     22  H   UNL     1       5.573  -1.876  24.364  0.00  0.00    +0.295 HD
ENDBRANCH  19  21
ENDBRANCH  18  19
BRANCH  18  23
ATOM     23  O   UNL     1       7.363  -4.015  22.090  0.00  0.00    -0.378 OA
ATOM     24  H   UNL     1       6.890  -3.603  21.337  0.00  0.00    +0.211 HD
ENDBRANCH  18  23
ENDBRANCH  15  18
ENDBRANCH   1  15
TORSDOF 14
ENDMDL
