MODEL 1
REMARK VINA RESULT:      -5.8      0.000      0.000
REMARK  Name = 
REMARK  32 active torsions:
REMARK  status: ('A' for Active; 'I' for Inactive)
REMARK    1  A    between atoms: C_1  and  C_2
REMARK    2  A    between atoms: C_2  and  O_4
REMARK    3  A    between atoms: C_2  and  C_5
REMARK    4  A    between atoms: C_5  and  C_6
REMARK    5  A    between atoms: C_6  and  S_8
REMARK    6  A    between atoms: S_8  and  C_9
REMARK    7  A    between atoms: C_9  and  C_10
REMARK    8  A    between atoms: C_10  and  N_11
REMARK    9  A    between atoms: C_12  and  C_14
REMARK   10  A    between atoms: C_14  and  C_15
REMARK   11  A    between atoms: C_15  and  N_16
REMARK   12  A    between atoms: C_17  and  C_19
REMARK   13  A    between atoms: C_19  and  O_21
REMARK   14  A    between atoms: C_19  and  C_22
REMARK   15  A    between atoms: C_22  and  C_23
REMARK   16  A    between atoms: C_22  and  C_24
REMARK   17  A    between atoms: C_22  and  C_25
REMARK   18  A    between atoms: C_25  and  O_26
REMARK   19  A    between atoms: O_26  and  P_27
REMARK   20  A    between atoms: P_27  and  O_28
REMARK   21  A    between atoms: P_27  and  O_30
REMARK   22  A    between atoms: O_30  and  P_31
REMARK   23  A    between atoms: P_31  and  O_32
REMARK   24  A    between atoms: P_31  and  O_34
REMARK   25  A    between atoms: O_34  and  C_35
REMARK   26  A    between atoms: C_35  and  C_36
REMARK   27  A    between atoms: C_39  and  N_51
REMARK   28  A    between atoms: C_41  and  O_43
REMARK   29  A    between atoms: C_44  and  O_46
REMARK   30  A    between atoms: O_46  and  P_47
REMARK   31  A    between atoms: P_47  and  O_48
REMARK   32  A    between atoms: P_47  and  O_49
REMARK                            x       y       z     vdW  Elec       q    Type
REMARK                         _______ _______ _______ _____ _____    ______ ____
ROOT
ATOM      1  O   UNL     1       6.861  -5.770  24.523  0.00  0.00    -0.186 OA
ENDROOT
BRANCH   1   2
ATOM      2  P   UNL     1       6.469  -5.161  23.102  0.00  0.00    +0.483 P 
ATOM      3  O   UNL     1       6.395  -6.092  21.952  0.00  0.00    -0.227 OA
BRANCH   2   4
ATOM      4  O   UNL     1       7.625  -4.086  22.809  0.00  0.00    -0.302 OA
ATOM      5  H   UNL     1       7.866  -4.170  21.857  0.00  0.00    +0.222 HD
ENDBRANCH   2   4
BRANCH   2   6
ATOM      6  O   UNL     1       5.142  -4.252  23.223  0.00  0.00    -0.284 OA
BRANCH   6   7
ATOM      7  C   UNL     1       3.898  -4.929  23.027  0.00  0.00    +0.206 C 
BRANCH   7   8
ATOM      8  C   UNL     1       3.006  -4.915  24.278  0.00  0.00    +0.179 C 
ATOM      9  C   UNL     1       3.133  -6.215  25.079  0.00  0.00    +0.194 C 
ATOM     10  C   UNL     1       3.824  -5.801  26.376  0.00  0.00    +0.196 C 
ATOM     11  C   UNL     1       4.176  -4.320  26.174  0.00  0.00    +0.253 C 
ATOM     12  O   UNL     1       3.319  -3.815  25.146  0.00  0.00    -0.346 OA
BRANCH  11  13
ATOM     13  N   UNL     1       4.000  -3.552  27.393  0.00  0.00    -0.286 N 
ATOM     14  C   UNL     1       3.950  -2.179  27.437  0.00  0.00    +0.167 A 
ATOM     15  N   UNL     1       3.973  -1.338  26.394  0.00  0.00    -0.216 NA
ATOM     16  C   UNL     1       3.884  -0.062  26.819  0.00  0.00    +0.225 A 
ATOM     17  N   UNL     1       3.829   0.405  28.085  0.00  0.00    -0.219 NA
ATOM     18  C   UNL     1       3.819  -0.492  29.098  0.00  0.00    +0.147 A 
ATOM     19  N   UNL     1       3.792   0.001  30.400  0.00  0.00    -0.341 N 
ATOM     20  H   UNL     1       4.151  -0.656  31.083  0.00  0.00    +0.144 HD
ATOM     21  H   UNL     1       4.131   0.953  30.447  0.00  0.00    +0.144 HD
ATOM     22  C   UNL     1       3.879  -1.865  28.781  0.00  0.00    +0.147 A 
ATOM     23  N   UNL     1       3.912  -3.008  29.556  0.00  0.00    -0.231 NA
ATOM     24  C   UNL     1       3.973  -4.002  28.684  0.00  0.00    +0.203 A 
ENDBRANCH  11  13
BRANCH  10  25
ATOM     25  O   UNL     1       4.998  -6.596  26.578  0.00  0.00    -0.385 OA
ATOM     26  H   UNL     1       4.922  -7.054  27.439  0.00  0.00    +0.210 HD
ENDBRANCH  10  25
BRANCH   9  27
ATOM     27  O   UNL     1       1.823  -6.769  25.321  0.00  0.00    -0.278 OA
BRANCH  27  28
ATOM     28  P   UNL     1       1.869  -8.490  25.156  0.00  0.00    +0.473 P 
ATOM     29  O   UNL     1       1.911 -10.032  25.009  0.00  0.00    -0.228 OA
BRANCH  28  30
ATOM     30  O   UNL     1       0.629  -8.283  24.117  0.00  0.00    -0.303 OA
ATOM     31  H   UNL     1      -0.080  -7.830  24.611  0.00  0.00    +0.222 HD
ENDBRANCH  28  30
BRANCH  28  32
ATOM     32  O   UNL     1       3.028  -8.242  24.030  0.00  0.00    -0.303 OA
ATOM     33  H   UNL     1       2.915  -8.876  23.297  0.00  0.00    +0.222 HD
ENDBRANCH  28  32
ENDBRANCH  27  28
ENDBRANCH   9  27
ENDBRANCH   7   8
ENDBRANCH   6   7
ENDBRANCH   2   6
ENDBRANCH   1   2
BRANCH   1  34
ATOM     34  P   UNL     1       8.091  -5.155  25.338  0.00  0.00    +0.483 P 
ATOM     35  O   UNL     1       9.413  -5.423  24.688  0.00  0.00    -0.227 OA
BRANCH  34  36
ATOM     36  O   UNL     1       7.984  -5.959  26.720  0.00  0.00    -0.302 OA
ATOM     37  H   UNL     1       7.268  -5.610  27.280  0.00  0.00    +0.222 HD
ENDBRANCH  34  36
BRANCH  34  38
ATOM     38  O   UNL     1       7.742  -3.670  25.831  0.00  0.00    -0.286 OA
BRANCH  38  39
ATOM     39  C   UNL     1       8.683  -2.616  26.095  0.00  0.00    +0.181 C 
BRANCH  39  40
ATOM     40  C   UNL     1       8.219  -1.137  25.956  0.00  0.00    +0.024 C 
ATOM     41  C   UNL     1       7.345  -0.778  27.175  0.00  0.00    +0.016 C 
ATOM     42  C   UNL     1       9.415  -0.178  25.930  0.00  0.00    +0.016 C 
BRANCH  40  43
ATOM     43  C   UNL     1       7.401  -0.876  24.638  0.00  0.00    +0.208 C 
BRANCH  43  46
ATOM     44  N   UNL     1       8.212   0.480  22.739  0.00  0.00    -0.313 N 
ATOM     45  H   UNL     1       7.863   1.240  23.317  0.00  0.00    +0.149 HD
ATOM     46  C   UNL     1       8.248  -0.765  23.340  0.00  0.00    +0.242 C 
ATOM     47  O   UNL     1       8.908  -1.700  22.900  0.00  0.00    -0.273 OA
BRANCH  44  48
ATOM     48  C   UNL     1       8.986   0.811  21.545  0.00  0.00    +0.113 C 
BRANCH  48  49
ATOM     49  C   UNL     1      10.133   1.797  21.763  0.00  0.00    +0.114 C 
BRANCH  49  52
ATOM     50  N   UNL     1       9.441   3.840  22.957  0.00  0.00    -0.314 N 
ATOM     51  H   UNL     1       9.020   4.082  22.068  0.00  0.00    +0.149 HD
ATOM     52  C   UNL     1      10.086   2.627  23.029  0.00  0.00    +0.215 C 
ATOM     53  O   UNL     1      10.638   2.217  24.054  0.00  0.00    -0.276 OA
BRANCH  50  54
ATOM     54  C   UNL     1       9.286   4.815  24.026  0.00  0.00    +0.115 C 
BRANCH  54  55
ATOM     55  C   UNL     1       8.050   5.716  24.003  0.00  0.00    +0.096 C 
BRANCH  55  56
ATOM     56  S   UNL     1       7.246   5.691  22.380  0.00  0.00    -0.087 S 
BRANCH  56  57
ATOM     57  C   UNL     1       5.827   4.754  22.814  0.00  0.00    +0.192 C 
ATOM     58  O   UNL     1       4.823   5.339  23.217  0.00  0.00    -0.285 OA
BRANCH  57  59
ATOM     59  C   UNL     1       5.875   3.266  22.545  0.00  0.00    +0.117 C 
BRANCH  59  61
ATOM     60  C   UNL     1       6.169   2.562  25.019  0.00  0.00    +0.038 C 
ATOM     61  C   UNL     1       5.524   2.284  23.668  0.00  0.00    +0.119 C 
BRANCH  61  62
ATOM     62  O   UNL     1       4.104   2.391  23.869  0.00  0.00    -0.392 OA
ATOM     63  H   UNL     1       3.731   1.499  23.770  0.00  0.00    +0.210 HD
ENDBRANCH  61  62
ENDBRANCH  59  61
ENDBRANCH  57  59
ENDBRANCH  56  57
ENDBRANCH  55  56
ENDBRANCH  54  55
ENDBRANCH  50  54
ENDBRANCH  49  52
ENDBRANCH  48  49
ENDBRANCH  44  48
ENDBRANCH  43  46
BRANCH  43  64
ATOM     64  O   UNL     1       6.338  -1.819  24.462  0.00  0.00    -0.382 OA
ATOM     65  H   UNL     1       6.764  -2.686  24.343  0.00  0.00    +0.210 HD
ENDBRANCH  43  64
ENDBRANCH  40  43
ENDBRANCH  39  40
ENDBRANCH  38  39
ENDBRANCH  34  38
ENDBRANCH   1  34
TORSDOF 29
ENDMDL
MODEL 2
REMARK VINA RESULT:      -5.8      2.304      4.222
REMARK  Name = 
REMARK  32 active torsions:
REMARK  status: ('A' for Active; 'I' for Inactive)
REMARK    1  A    between atoms: C_1  and  C_2
REMARK    2  A    between atoms: C_2  and  O_4
REMARK    3  A    between atoms: C_2  and  C_5
REMARK    4  A    between atoms: C_5  and  C_6
REMARK    5  A    between atoms: C_6  and  S_8
REMARK    6  A    between atoms: S_8  and  C_9
REMARK    7  A    between atoms: C_9  and  C_10
REMARK    8  A    between atoms: C_10  and  N_11
REMARK    9  A    between atoms: C_12  and  C_14
REMARK   10  A    between atoms: C_14  and  C_15
REMARK   11  A    between atoms: C_15  and  N_16
REMARK   12  A    between atoms: C_17  and  C_19
REMARK   13  A    between atoms: C_19  and  O_21
REMARK   14  A    between atoms: C_19  and  C_22
REMARK   15  A    between atoms: C_22  and  C_23
REMARK   16  A    between atoms: C_22  and  C_24
REMARK   17  A    between atoms: C_22  and  C_25
REMARK   18  A    between atoms: C_25  and  O_26
REMARK   19  A    between atoms: O_26  and  P_27
REMARK   20  A    between atoms: P_27  and  O_28
REMARK   21  A    between atoms: P_27  and  O_30
REMARK   22  A    between atoms: O_30  and  P_31
REMARK   23  A    between atoms: P_31  and  O_32
REMARK   24  A    between atoms: P_31  and  O_34
REMARK   25  A    between atoms: O_34  and  C_35
REMARK   26  A    between atoms: C_35  and  C_36
REMARK   27  A    between atoms: C_39  and  N_51
REMARK   28  A    between atoms: C_41  and  O_43
REMARK   29  A    between atoms: C_44  and  O_46
REMARK   30  A    between atoms: O_46  and  P_47
REMARK   31  A    between atoms: P_47  and  O_48
REMARK   32  A    between atoms: P_47  and  O_49
REMARK                            x       y       z     vdW  Elec       q    Type
REMARK                         _______ _______ _______ _____ _____    ______ ____
ROOT
ATOM      1  O   UNL     1       7.899  -3.600  22.571  0.00  0.00    -0.186 OA
ENDROOT
BRANCH   1   2
ATOM      2  P   UNL     1       7.324  -5.082  22.712  0.00  0.00    +0.483 P 
ATOM      3  O   UNL     1       8.295  -6.176  22.951  0.00  0.00    -0.227 OA
BRANCH   2   4
ATOM      4  O   UNL     1       6.597  -5.351  21.306  0.00  0.00    -0.302 OA
ATOM      5  H   UNL     1       7.299  -5.571  20.652  0.00  0.00    +0.222 HD
ENDBRANCH   2   4
BRANCH   2   6
ATOM      6  O   UNL     1       6.109  -5.119  23.770  0.00  0.00    -0.284 OA
BRANCH   6   7
ATOM      7  C   UNL     1       5.041  -4.199  23.532  0.00  0.00    +0.206 C 
BRANCH   7   8
ATOM      8  C   UNL     1       4.214  -3.902  24.794  0.00  0.00    +0.179 C 
ATOM      9  C   UNL     1       4.913  -4.408  26.060  0.00  0.00    +0.194 C 
ATOM     10  C   UNL     1       5.301  -3.141  26.817  0.00  0.00    +0.196 C 
ATOM     11  C   UNL     1       4.928  -1.992  25.871  0.00  0.00    +0.253 C 
ATOM     12  O   UNL     1       3.960  -2.498  24.947  0.00  0.00    -0.346 OA
BRANCH  11  13
ATOM     13  N   UNL     1       4.386  -0.854  26.590  0.00  0.00    -0.286 N 
ATOM     14  C   UNL     1       5.093   0.296  26.855  0.00  0.00    +0.167 A 
ATOM     15  N   UNL     1       6.333   0.593  26.444  0.00  0.00    -0.216 NA
ATOM     16  C   UNL     1       6.690   1.818  26.877  0.00  0.00    +0.225 A 
ATOM     17  N   UNL     1       5.996   2.674  27.657  0.00  0.00    -0.219 NA
ATOM     18  C   UNL     1       4.751   2.315  28.050  0.00  0.00    +0.147 A 
ATOM     19  N   UNL     1       4.055   3.191  28.878  0.00  0.00    -0.341 N 
ATOM     20  H   UNL     1       3.330   2.737  29.422  0.00  0.00    +0.144 HD
ATOM     21  H   UNL     1       4.679   3.820  29.367  0.00  0.00    +0.144 HD
ATOM     22  C   UNL     1       4.249   1.064  27.635  0.00  0.00    +0.147 A 
ATOM     23  N   UNL     1       3.062   0.402  27.875  0.00  0.00    -0.231 NA
ATOM     24  C   UNL     1       3.177  -0.742  27.220  0.00  0.00    +0.203 A 
ENDBRANCH  11  13
BRANCH  10  25
ATOM     25  O   UNL     1       6.705  -3.153  27.101  0.00  0.00    -0.385 OA
ATOM     26  H   UNL     1       6.832  -3.388  28.042  0.00  0.00    +0.210 HD
ENDBRANCH  10  25
BRANCH   9  27
ATOM     27  O   UNL     1       4.006  -5.233  26.821  0.00  0.00    -0.278 OA
BRANCH  27  28
ATOM     28  P   UNL     1       4.893  -6.412  27.723  0.00  0.00    +0.473 P 
ATOM     29  O   UNL     1       5.689  -7.468  28.531  0.00  0.00    -0.228 OA
BRANCH  28  30
ATOM     30  O   UNL     1       3.992  -7.505  26.914  0.00  0.00    -0.303 OA
ATOM     31  H   UNL     1       4.111  -8.360  27.368  0.00  0.00    +0.222 HD
ENDBRANCH  28  30
BRANCH  28  32
ATOM     32  O   UNL     1       6.031  -6.290  26.555  0.00  0.00    -0.303 OA
ATOM     33  H   UNL     1       6.116  -7.142  26.088  0.00  0.00    +0.222 HD
ENDBRANCH  28  32
ENDBRANCH  27  28
ENDBRANCH   9  27
ENDBRANCH   7   8
ENDBRANCH   6   7
ENDBRANCH   2   6
ENDBRANCH   1   2
BRANCH   1  34
ATOM     34  P   UNL     1       8.711  -2.946  23.782  0.00  0.00    +0.483 P 
ATOM     35  O   UNL     1      10.195  -3.032  23.602  0.00  0.00    -0.227 OA
BRANCH  34  36
ATOM     36  O   UNL     1       8.249  -3.873  25.005  0.00  0.00    -0.302 OA
ATOM     37  H   UNL     1       8.967  -3.992  25.652  0.00  0.00    +0.222 HD
ENDBRANCH  34  36
BRANCH  34  38
ATOM     38  O   UNL     1       8.048  -1.548  24.204  0.00  0.00    -0.286 OA
BRANCH  38  39
ATOM     39  C   UNL     1       7.608  -0.511  23.311  0.00  0.00    +0.181 C 
BRANCH  39  40
ATOM     40  C   UNL     1       8.671   0.412  22.646  0.00  0.00    +0.024 C 
ATOM     41  C   UNL     1       9.743   0.766  23.696  0.00  0.00    +0.016 C 
ATOM     42  C   UNL     1       9.368  -0.296  21.477  0.00  0.00    +0.016 C 
BRANCH  40  43
ATOM     43  C   UNL     1       8.052   1.737  22.069  0.00  0.00    +0.208 C 
BRANCH  43  46
ATOM     44  N   UNL     1       5.769   2.365  22.772  0.00  0.00    -0.313 N 
ATOM     45  H   UNL     1       5.522   1.592  22.159  0.00  0.00    +0.149 HD
ATOM     46  C   UNL     1       7.118   2.512  23.038  0.00  0.00    +0.242 C 
ATOM     47  O   UNL     1       7.544   3.183  23.972  0.00  0.00    -0.273 OA
BRANCH  44  48
ATOM     48  C   UNL     1       4.723   2.960  23.599  0.00  0.00    +0.113 C 
BRANCH  48  49
ATOM     49  C   UNL     1       4.236   4.336  23.148  0.00  0.00    +0.114 C 
BRANCH  49  52
ATOM     50  N   UNL     1       5.729   5.287  24.864  0.00  0.00    -0.314 N 
ATOM     51  H   UNL     1       5.884   4.315  25.106  0.00  0.00    +0.149 HD
ATOM     52  C   UNL     1       4.881   5.536  23.810  0.00  0.00    +0.215 C 
ATOM     53  O   UNL     1       4.611   6.675  23.418  0.00  0.00    -0.276 OA
BRANCH  50  54
ATOM     54  C   UNL     1       6.443   6.269  25.666  0.00  0.00    +0.115 C 
BRANCH  54  55
ATOM     55  C   UNL     1       7.724   6.873  25.090  0.00  0.00    +0.096 C 
BRANCH  55  56
ATOM     56  S   UNL     1       9.176   5.885  25.533  0.00  0.00    -0.087 S 
BRANCH  56  57
ATOM     57  C   UNL     1       9.887   5.748  23.934  0.00  0.00    +0.192 C 
ATOM     58  O   UNL     1       9.520   6.517  23.047  0.00  0.00    -0.285 OA
BRANCH  57  59
ATOM     59  C   UNL     1      11.021   4.761  23.767  0.00  0.00    +0.117 C 
BRANCH  59  61
ATOM     60  C   UNL     1      12.961   5.533  22.235  0.00  0.00    +0.038 C 
ATOM     61  C   UNL     1      12.460   5.276  23.650  0.00  0.00    +0.119 C 
BRANCH  61  62
ATOM     62  O   UNL     1      12.490   6.545  24.326  0.00  0.00    -0.392 OA
ATOM     63  H   UNL     1      12.247   7.225  23.673  0.00  0.00    +0.210 HD
ENDBRANCH  61  62
ENDBRANCH  59  61
ENDBRANCH  57  59
ENDBRANCH  56  57
ENDBRANCH  55  56
ENDBRANCH  54  55
ENDBRANCH  50  54
ENDBRANCH  49  52
ENDBRANCH  48  49
ENDBRANCH  44  48
ENDBRANCH  43  46
BRANCH  43  64
ATOM     64  O   UNL     1       9.049   2.612  21.529  0.00  0.00    -0.382 OA
ATOM     65  H   UNL     1       8.638   3.049  20.763  0.00  0.00    +0.210 HD
ENDBRANCH  43  64
ENDBRANCH  40  43
ENDBRANCH  39  40
ENDBRANCH  38  39
ENDBRANCH  34  38
ENDBRANCH   1  34
TORSDOF 29
ENDMDL
MODEL 3
REMARK VINA RESULT:      -5.6      3.280      6.557
REMARK  Name = 
REMARK  32 active torsions:
REMARK  status: ('A' for Active; 'I' for Inactive)
REMARK    1  A    between atoms: C_1  and  C_2
REMARK    2  A    between atoms: C_2  and  O_4
REMARK    3  A    between atoms: C_2  and  C_5
REMARK    4  A    between atoms: C_5  and  C_6
REMARK    5  A    between atoms: C_6  and  S_8
REMARK    6  A    between atoms: S_8  and  C_9
REMARK    7  A    between atoms: C_9  and  C_10
REMARK    8  A    between atoms: C_10  and  N_11
REMARK    9  A    between atoms: C_12  and  C_14
REMARK   10  A    between atoms: C_14  and  C_15
REMARK   11  A    between atoms: C_15  and  N_16
REMARK   12  A    between atoms: C_17  and  C_19
REMARK   13  A    between atoms: C_19  and  O_21
REMARK   14  A    between atoms: C_19  and  C_22
REMARK   15  A    between atoms: C_22  and  C_23
REMARK   16  A    between atoms: C_22  and  C_24
REMARK   17  A    between atoms: C_22  and  C_25
REMARK   18  A    between atoms: C_25  and  O_26
REMARK   19  A    between atoms: O_26  and  P_27
REMARK   20  A    between atoms: P_27  and  O_28
REMARK   21  A    between atoms: P_27  and  O_30
REMARK   22  A    between atoms: O_30  and  P_31
REMARK   23  A    between atoms: P_31  and  O_32
REMARK   24  A    between atoms: P_31  and  O_34
REMARK   25  A    between atoms: O_34  and  C_35
REMARK   26  A    between atoms: C_35  and  C_36
REMARK   27  A    between atoms: C_39  and  N_51
REMARK   28  A    between atoms: C_41  and  O_43
REMARK   29  A    between atoms: C_44  and  O_46
REMARK   30  A    between atoms: O_46  and  P_47
REMARK   31  A    between atoms: P_47  and  O_48
REMARK   32  A    between atoms: P_47  and  O_49
REMARK                            x       y       z     vdW  Elec       q    Type
REMARK                         _______ _______ _______ _____ _____    ______ ____
ROOT
ATOM      1  O   UNL     1       4.834   0.614  25.266  0.00  0.00    -0.186 OA
ENDROOT
BRANCH   1   2
ATOM      2  P   UNL     1       4.435  -0.173  26.596  0.00  0.00    +0.483 P 
ATOM      3  O   UNL     1       2.992  -0.328  26.896  0.00  0.00    -0.227 OA
BRANCH   2   4
ATOM      4  O   UNL     1       5.106   0.690  27.772  0.00  0.00    -0.302 OA
ATOM      5  H   UNL     1       4.381   0.967  28.379  0.00  0.00    +0.222 HD
ENDBRANCH   2   4
BRANCH   2   6
ATOM      6  O   UNL     1       5.217  -1.580  26.677  0.00  0.00    -0.284 OA
BRANCH   6   7
ATOM      7  C   UNL     1       4.934  -2.390  27.821  0.00  0.00    +0.206 C 
BRANCH   7   8
ATOM      8  C   UNL     1       4.553  -3.833  27.453  0.00  0.00    +0.179 C 
ATOM      9  C   UNL     1       3.608  -4.450  28.489  0.00  0.00    +0.194 C 
ATOM     10  C   UNL     1       2.282  -4.613  27.751  0.00  0.00    +0.196 C 
ATOM     11  C   UNL     1       2.513  -3.948  26.386  0.00  0.00    +0.253 C 
ATOM     12  O   UNL     1       3.925  -3.908  26.165  0.00  0.00    -0.346 OA
BRANCH  11  13
ATOM     13  N   UNL     1       1.859  -4.676  25.314  0.00  0.00    -0.286 N 
ATOM     14  C   UNL     1       2.101  -5.997  25.020  0.00  0.00    +0.167 A 
ATOM     15  N   UNL     1       2.895  -6.840  25.695  0.00  0.00    -0.216 NA
ATOM     16  C   UNL     1       2.870  -8.062  25.128  0.00  0.00    +0.225 A 
ATOM     17  N   UNL     1       2.219  -8.465  24.016  0.00  0.00    -0.219 NA
ATOM     18  C   UNL     1       1.439  -7.566  23.370  0.00  0.00    +0.147 A 
ATOM     19  N   UNL     1       0.795  -7.982  22.209  0.00  0.00    -0.341 N 
ATOM     20  H   UNL     1       0.548  -7.217  21.592  0.00  0.00    +0.144 HD
ATOM     21  H   UNL     1       1.251  -8.785  21.796  0.00  0.00    +0.144 HD
ATOM     22  C   UNL     1       1.358  -6.254  23.884  0.00  0.00    +0.147 A 
ATOM     23  N   UNL     1       0.692  -5.120  23.464  0.00  0.00    -0.231 NA
ATOM     24  C   UNL     1       1.009  -4.196  24.356  0.00  0.00    +0.203 A 
ENDBRANCH  11  13
BRANCH  10  25
ATOM     25  O   UNL     1       1.235  -3.963  28.481  0.00  0.00    -0.385 OA
ATOM     26  H   UNL     1       0.814  -4.618  29.074  0.00  0.00    +0.210 HD
ENDBRANCH  10  25
BRANCH   9  27
ATOM     27  O   UNL     1       4.134  -5.718  28.935  0.00  0.00    -0.278 OA
BRANCH  27  28
ATOM     28  P   UNL     1       5.784  -5.881  28.439  0.00  0.00    +0.473 P 
ATOM     29  O   UNL     1       7.260  -6.028  27.995  0.00  0.00    -0.228 OA
BRANCH  28  30
ATOM     30  O   UNL     1       6.121  -5.827  30.034  0.00  0.00    -0.303 OA
ATOM     31  H   UNL     1       5.349  -5.424  30.472  0.00  0.00    +0.222 HD
ENDBRANCH  28  30
BRANCH  28  32
ATOM     32  O   UNL     1       5.504  -7.492  28.418  0.00  0.00    -0.303 OA
ATOM     33  H   UNL     1       6.299  -7.968  28.722  0.00  0.00    +0.222 HD
ENDBRANCH  28  32
ENDBRANCH  27  28
ENDBRANCH   9  27
ENDBRANCH   7   8
ENDBRANCH   6   7
ENDBRANCH   2   6
ENDBRANCH   1   2
BRANCH   1  34
ATOM     34  P   UNL     1       6.275   0.387  24.613  0.00  0.00    +0.483 P 
ATOM     35  O   UNL     1       6.359  -0.875  23.812  0.00  0.00    -0.227 OA
BRANCH  34  36
ATOM     36  O   UNL     1       7.195   0.274  25.919  0.00  0.00    -0.302 OA
ATOM     37  H   UNL     1       7.998  -0.247  25.744  0.00  0.00    +0.222 HD
ENDBRANCH  34  36
BRANCH  34  38
ATOM     38  O   UNL     1       6.820   1.757  23.984  0.00  0.00    -0.286 OA
BRANCH  38  39
ATOM     39  C   UNL     1       6.062   2.961  23.778  0.00  0.00    +0.181 C 
BRANCH  39  40
ATOM     40  C   UNL     1       6.703   4.329  24.153  0.00  0.00    +0.024 C 
ATOM     41  C   UNL     1       5.591   5.398  24.200  0.00  0.00    +0.016 C 
ATOM     42  C   UNL     1       7.365   4.273  25.535  0.00  0.00    +0.016 C 
BRANCH  40  43
ATOM     43  C   UNL     1       7.814   4.781  23.137  0.00  0.00    +0.208 C 
BRANCH  43  46
ATOM     44  N   UNL     1       9.035   2.842  22.213  0.00  0.00    -0.313 N 
ATOM     45  H   UNL     1       8.305   2.900  21.507  0.00  0.00    +0.149 HD
ATOM     46  C   UNL     1       9.090   3.895  23.109  0.00  0.00    +0.242 C 
ATOM     47  O   UNL     1      10.070   4.124  23.808  0.00  0.00    -0.273 OA
BRANCH  44  48
ATOM     48  C   UNL     1      10.151   1.927  21.988  0.00  0.00    +0.113 C 
BRANCH  48  49
ATOM     49  C   UNL     1       9.827   0.445  22.164  0.00  0.00    +0.114 C 
BRANCH  49  52
ATOM     50  N   UNL     1       9.580  -1.432  23.743  0.00  0.00    -0.314 N 
ATOM     51  H   UNL     1       9.449  -1.978  22.900  0.00  0.00    +0.149 HD
ATOM     52  C   UNL     1       9.822  -0.087  23.582  0.00  0.00    +0.215 C 
ATOM     53  O   UNL     1       9.999   0.684  24.529  0.00  0.00    -0.276 OA
BRANCH  50  54
ATOM     54  C   UNL     1       9.504  -2.164  24.999  0.00  0.00    +0.115 C 
BRANCH  54  55
ATOM     55  C   UNL     1       9.303  -3.679  24.936  0.00  0.00    +0.096 C 
BRANCH  55  56
ATOM     56  S   UNL     1       7.554  -4.103  24.726  0.00  0.00    -0.087 S 
BRANCH  56  57
ATOM     57  C   UNL     1       7.545  -4.284  22.980  0.00  0.00    +0.192 C 
ATOM     58  O   UNL     1       7.784  -3.304  22.275  0.00  0.00    -0.285 OA
BRANCH  57  59
ATOM     59  C   UNL     1       7.365  -5.682  22.432  0.00  0.00    +0.117 C 
BRANCH  59  61
ATOM     60  C   UNL     1       4.781  -5.793  22.537  0.00  0.00    +0.038 C 
ATOM     61  C   UNL     1       6.051  -6.059  21.740  0.00  0.00    +0.119 C 
BRANCH  61  62
ATOM     62  O   UNL     1       5.966  -5.241  20.561  0.00  0.00    -0.392 OA
ATOM     63  H   UNL     1       5.588  -5.792  19.855  0.00  0.00    +0.210 HD
ENDBRANCH  61  62
ENDBRANCH  59  61
ENDBRANCH  57  59
ENDBRANCH  56  57
ENDBRANCH  55  56
ENDBRANCH  54  55
ENDBRANCH  50  54
ENDBRANCH  49  52
ENDBRANCH  48  49
ENDBRANCH  44  48
ENDBRANCH  43  46
BRANCH  43  64
ATOM     64  O   UNL     1       7.300   4.960  21.813  0.00  0.00    -0.382 OA
ATOM     65  H   UNL     1       8.059   5.221  21.262  0.00  0.00    +0.210 HD
ENDBRANCH  43  64
ENDBRANCH  40  43
ENDBRANCH  39  40
ENDBRANCH  38  39
ENDBRANCH  34  38
ENDBRANCH   1  34
TORSDOF 29
ENDMDL
MODEL 4
REMARK VINA RESULT:      -5.6      1.853      2.872
REMARK  Name = 
REMARK  32 active torsions:
REMARK  status: ('A' for Active; 'I' for Inactive)
REMARK    1  A    between atoms: C_1  and  C_2
REMARK    2  A    between atoms: C_2  and  O_4
REMARK    3  A    between atoms: C_2  and  C_5
REMARK    4  A    between atoms: C_5  and  C_6
REMARK    5  A    between atoms: C_6  and  S_8
REMARK    6  A    between atoms: S_8  and  C_9
REMARK    7  A    between atoms: C_9  and  C_10
REMARK    8  A    between atoms: C_10  and  N_11
REMARK    9  A    between atoms: C_12  and  C_14
REMARK   10  A    between atoms: C_14  and  C_15
REMARK   11  A    between atoms: C_15  and  N_16
REMARK   12  A    between atoms: C_17  and  C_19
REMARK   13  A    between atoms: C_19  and  O_21
REMARK   14  A    between atoms: C_19  and  C_22
REMARK   15  A    between atoms: C_22  and  C_23
REMARK   16  A    between atoms: C_22  and  C_24
REMARK   17  A    between atoms: C_22  and  C_25
REMARK   18  A    between atoms: C_25  and  O_26
REMARK   19  A    between atoms: O_26  and  P_27
REMARK   20  A    between atoms: P_27  and  O_28
REMARK   21  A    between atoms: P_27  and  O_30
REMARK   22  A    between atoms: O_30  and  P_31
REMARK   23  A    between atoms: P_31  and  O_32
REMARK   24  A    between atoms: P_31  and  O_34
REMARK   25  A    between atoms: O_34  and  C_35
REMARK   26  A    between atoms: C_35  and  C_36
REMARK   27  A    between atoms: C_39  and  N_51
REMARK   28  A    between atoms: C_41  and  O_43
REMARK   29  A    between atoms: C_44  and  O_46
REMARK   30  A    between atoms: O_46  and  P_47
REMARK   31  A    between atoms: P_47  and  O_48
REMARK   32  A    between atoms: P_47  and  O_49
REMARK                            x       y       z     vdW  Elec       q    Type
REMARK                         _______ _______ _______ _____ _____    ______ ____
ROOT
ATOM      1  O   UNL     1       7.887  -3.457  22.224  0.00  0.00    -0.186 OA
ENDROOT
BRANCH   1   2
ATOM      2  P   UNL     1       6.310  -3.692  22.171  0.00  0.00    +0.483 P 
ATOM      3  O   UNL     1       5.698  -3.948  20.846  0.00  0.00    -0.227 OA
BRANCH   2   4
ATOM      4  O   UNL     1       5.695  -2.330  22.757  0.00  0.00    -0.302 OA
ATOM      5  H   UNL     1       5.976  -2.266  23.699  0.00  0.00    +0.222 HD
ENDBRANCH   2   4
BRANCH   2   6
ATOM      6  O   UNL     1       5.866  -4.796  23.258  0.00  0.00    -0.284 OA
BRANCH   6   7
ATOM      7  C   UNL     1       4.721  -5.584  22.921  0.00  0.00    +0.206 C 
BRANCH   7   8
ATOM      8  C   UNL     1       3.468  -5.192  23.720  0.00  0.00    +0.179 C 
ATOM      9  C   UNL     1       3.229  -6.140  24.900  0.00  0.00    +0.194 C 
ATOM     10  C   UNL     1       3.480  -5.283  26.138  0.00  0.00    +0.196 C 
ATOM     11  C   UNL     1       3.983  -3.941  25.587  0.00  0.00    +0.253 C 
ATOM     12  O   UNL     1       3.555  -3.852  24.225  0.00  0.00    -0.346 OA
BRANCH  11  13
ATOM     13  N   UNL     1       3.470  -2.817  26.348  0.00  0.00    -0.286 N 
ATOM     14  C   UNL     1       4.022  -1.557  26.328  0.00  0.00    +0.167 A 
ATOM     15  N   UNL     1       5.045  -1.138  25.572  0.00  0.00    -0.216 NA
ATOM     16  C   UNL     1       5.296   0.166  25.805  0.00  0.00    +0.225 A 
ATOM     17  N   UNL     1       4.700   0.997  26.686  0.00  0.00    -0.219 NA
ATOM     18  C   UNL     1       3.679   0.513  27.431  0.00  0.00    +0.147 A 
ATOM     19  N   UNL     1       3.090   1.369  28.357  0.00  0.00    -0.341 N 
ATOM     20  H   UNL     1       2.618   0.881  29.110  0.00  0.00    +0.144 HD
ATOM     21  H   UNL     1       3.708   2.128  28.611  0.00  0.00    +0.144 HD
ATOM     22  C   UNL     1       3.298  -0.834  27.258  0.00  0.00    +0.147 A 
ATOM     23  N   UNL     1       2.341  -1.626  27.860  0.00  0.00    -0.231 NA
ATOM     24  C   UNL     1       2.468  -2.807  27.278  0.00  0.00    +0.203 A 
ENDBRANCH  11  13
BRANCH  10  25
ATOM     25  O   UNL     1       4.461  -5.908  26.974  0.00  0.00    -0.385 OA
ATOM     26  H   UNL     1       4.088  -6.743  27.322  0.00  0.00    +0.210 HD
ENDBRANCH  10  25
BRANCH   9  27
ATOM     27  O   UNL     1       1.877  -6.641  24.858  0.00  0.00    -0.278 OA
BRANCH  27  28
ATOM     28  P   UNL     1       1.886  -8.370  24.882  0.00  0.00    +0.473 P 
ATOM     29  O   UNL     1       1.893  -9.919  24.905  0.00  0.00    -0.228 OA
BRANCH  28  30
ATOM     30  O   UNL     1       2.189  -8.251  23.284  0.00  0.00    -0.303 OA
ATOM     31  H   UNL     1       1.375  -8.526  22.822  0.00  0.00    +0.222 HD
ENDBRANCH  28  30
BRANCH  28  32
ATOM     32  O   UNL     1       3.455  -8.248  25.324  0.00  0.00    -0.303 OA
ATOM     33  H   UNL     1       3.576  -8.622  26.217  0.00  0.00    +0.222 HD
ENDBRANCH  28  32
ENDBRANCH  27  28
ENDBRANCH   9  27
ENDBRANCH   7   8
ENDBRANCH   6   7
ENDBRANCH   2   6
ENDBRANCH   1   2
BRANCH   1  34
ATOM     34  P   UNL     1       8.519  -2.584  23.404  0.00  0.00    +0.483 P 
ATOM     35  O   UNL     1       9.925  -2.982  23.734  0.00  0.00    -0.227 OA
BRANCH  34  36
ATOM     36  O   UNL     1       7.543  -2.950  24.621  0.00  0.00    -0.302 OA
ATOM     37  H   UNL     1       7.504  -2.231  25.275  0.00  0.00    +0.222 HD
ENDBRANCH  34  36
BRANCH  34  38
ATOM     38  O   UNL     1       8.166  -1.034  23.198  0.00  0.00    -0.286 OA
BRANCH  38  39
ATOM     39  C   UNL     1       8.624   0.060  24.010  0.00  0.00    +0.181 C 
BRANCH  39  40
ATOM     40  C   UNL     1       8.270   1.515  23.585  0.00  0.00    +0.024 C 
ATOM     41  C   UNL     1       6.877   1.510  22.923  0.00  0.00    +0.016 C 
ATOM     42  C   UNL     1       8.216   2.451  24.799  0.00  0.00    +0.016 C 
BRANCH  40  43
ATOM     43  C   UNL     1       9.317   2.130  22.586  0.00  0.00    +0.208 C 
BRANCH  43  46
ATOM     44  N   UNL     1      10.991   3.921  22.894  0.00  0.00    -0.313 N 
ATOM     45  H   UNL     1      10.250   4.486  22.488  0.00  0.00    +0.149 HD
ATOM     46  C   UNL     1      10.641   2.625  23.230  0.00  0.00    +0.242 C 
ATOM     47  O   UNL     1      11.308   1.930  23.988  0.00  0.00    -0.273 OA
BRANCH  44  48
ATOM     48  C   UNL     1      12.164   4.597  23.440  0.00  0.00    +0.113 C 
BRANCH  48  49
ATOM     49  C   UNL     1      11.905   5.981  24.033  0.00  0.00    +0.114 C 
BRANCH  49  52
ATOM     50  N   UNL     1      10.075   6.683  25.528  0.00  0.00    -0.314 N 
ATOM     51  H   UNL     1      10.797   6.657  26.239  0.00  0.00    +0.149 HD
ATOM     52  C   UNL     1      10.456   6.370  24.244  0.00  0.00    +0.215 C 
ATOM     53  O   UNL     1       9.673   6.366  23.291  0.00  0.00    -0.276 OA
BRANCH  50  54
ATOM     54  C   UNL     1       8.745   7.062  25.980  0.00  0.00    +0.115 C 
BRANCH  54  55
ATOM     55  C   UNL     1       7.652   5.992  25.973  0.00  0.00    +0.096 C 
BRANCH  55  56
ATOM     56  S   UNL     1       6.167   6.572  25.112  0.00  0.00    -0.087 S 
BRANCH  56  57
ATOM     57  C   UNL     1       5.920   5.184  24.067  0.00  0.00    +0.192 C 
ATOM     58  O   UNL     1       6.613   5.064  23.057  0.00  0.00    -0.285 OA
BRANCH  57  59
ATOM     59  C   UNL     1       4.943   4.131  24.540  0.00  0.00    +0.117 C 
BRANCH  59  61
ATOM     60  C   UNL     1       3.396   4.834  22.586  0.00  0.00    +0.038 C 
ATOM     61  C   UNL     1       3.587   3.991  23.840  0.00  0.00    +0.119 C 
BRANCH  61  62
ATOM     62  O   UNL     1       3.487   2.619  23.422  0.00  0.00    -0.392 OA
ATOM     63  H   UNL     1       4.356   2.362  23.069  0.00  0.00    +0.210 HD
ENDBRANCH  61  62
ENDBRANCH  59  61
ENDBRANCH  57  59
ENDBRANCH  56  57
ENDBRANCH  55  56
ENDBRANCH  54  55
ENDBRANCH  50  54
ENDBRANCH  49  52
ENDBRANCH  48  49
ENDBRANCH  44  48
ENDBRANCH  43  46
BRANCH  43  64
ATOM     64  O   UNL     1       9.593   1.259  21.484  0.00  0.00    -0.382 OA
ATOM     65  H   UNL     1       9.639   1.828  20.696  0.00  0.00    +0.210 HD
ENDBRANCH  43  64
ENDBRANCH  40  43
ENDBRANCH  39  40
ENDBRANCH  38  39
ENDBRANCH  34  38
ENDBRANCH   1  34
TORSDOF 29
ENDMDL
MODEL 5
REMARK VINA RESULT:      -5.6      2.810      5.456
REMARK  Name = 
REMARK  32 active torsions:
REMARK  status: ('A' for Active; 'I' for Inactive)
REMARK    1  A    between atoms: C_1  and  C_2
REMARK    2  A    between atoms: C_2  and  O_4
REMARK    3  A    between atoms: C_2  and  C_5
REMARK    4  A    between atoms: C_5  and  C_6
REMARK    5  A    between atoms: C_6  and  S_8
REMARK    6  A    between atoms: S_8  and  C_9
REMARK    7  A    between atoms: C_9  and  C_10
REMARK    8  A    between atoms: C_10  and  N_11
REMARK    9  A    between atoms: C_12  and  C_14
REMARK   10  A    between atoms: C_14  and  C_15
REMARK   11  A    between atoms: C_15  and  N_16
REMARK   12  A    between atoms: C_17  and  C_19
REMARK   13  A    between atoms: C_19  and  O_21
REMARK   14  A    between atoms: C_19  and  C_22
REMARK   15  A    between atoms: C_22  and  C_23
REMARK   16  A    between atoms: C_22  and  C_24
REMARK   17  A    between atoms: C_22  and  C_25
REMARK   18  A    between atoms: C_25  and  O_26
REMARK   19  A    between atoms: O_26  and  P_27
REMARK   20  A    between atoms: P_27  and  O_28
REMARK   21  A    between atoms: P_27  and  O_30
REMARK   22  A    between atoms: O_30  and  P_31
REMARK   23  A    between atoms: P_31  and  O_32
REMARK   24  A    between atoms: P_31  and  O_34
REMARK   25  A    between atoms: O_34  and  C_35
REMARK   26  A    between atoms: C_35  and  C_36
REMARK   27  A    between atoms: C_39  and  N_51
REMARK   28  A    between atoms: C_41  and  O_43
REMARK   29  A    between atoms: C_44  and  O_46
REMARK   30  A    between atoms: O_46  and  P_47
REMARK   31  A    between atoms: P_47  and  O_48
REMARK   32  A    between atoms: P_47  and  O_49
REMARK                            x       y       z     vdW  Elec       q    Type
REMARK                         _______ _______ _______ _____ _____    ______ ____
ROOT
ATOM      1  O   UNL     1       3.474  -3.744  24.587  0.00  0.00    -0.186 OA
ENDROOT
BRANCH   1   2
ATOM      2  P   UNL     1       3.149  -5.292  24.377  0.00  0.00    +0.483 P 
ATOM      3  O   UNL     1       3.016  -5.783  22.985  0.00  0.00    -0.227 OA
BRANCH   2   4
ATOM      4  O   UNL     1       1.742  -5.498  25.122  0.00  0.00    -0.302 OA
ATOM      5  H   UNL     1       1.086  -4.920  24.670  0.00  0.00    +0.222 HD
ENDBRANCH   2   4
BRANCH   2   6
ATOM      6  O   UNL     1       4.161  -6.204  25.238  0.00  0.00    -0.284 OA
BRANCH   6   7
ATOM      7  C   UNL     1       5.555  -5.964  25.030  0.00  0.00    +0.206 C 
BRANCH   7   8
ATOM      8  C   UNL     1       6.160  -5.012  26.074  0.00  0.00    +0.179 C 
ATOM      9  C   UNL     1       7.400  -5.617  26.741  0.00  0.00    +0.194 C 
ATOM     10  C   UNL     1       8.560  -4.756  26.249  0.00  0.00    +0.196 C 
ATOM     11  C   UNL     1       7.930  -3.803  25.223  0.00  0.00    +0.253 C 
ATOM     12  O   UNL     1       6.527  -3.750  25.496  0.00  0.00    -0.346 OA
BRANCH  11  13
ATOM     13  N   UNL     1       8.505  -2.472  25.297  0.00  0.00    -0.286 N 
ATOM     14  C   UNL     1       9.134  -1.846  24.246  0.00  0.00    +0.167 A 
ATOM     15  N   UNL     1       9.254  -2.302  22.992  0.00  0.00    -0.216 NA
ATOM     16  C   UNL     1       9.913  -1.407  22.230  0.00  0.00    +0.225 A 
ATOM     17  N   UNL     1      10.457  -0.226  22.593  0.00  0.00    -0.219 NA
ATOM     18  C   UNL     1      10.313   0.177  23.877  0.00  0.00    +0.147 A 
ATOM     19  N   UNL     1      10.902   1.382  24.248  0.00  0.00    -0.341 N 
ATOM     20  H   UNL     1      11.083   1.449  25.243  0.00  0.00    +0.144 HD
ATOM     21  H   UNL     1      11.653   1.641  23.620  0.00  0.00    +0.144 HD
ATOM     22  C   UNL     1       9.613  -0.661  24.771  0.00  0.00    +0.147 A 
ATOM     23  N   UNL     1       9.318  -0.561  26.115  0.00  0.00    -0.231 NA
ATOM     24  C   UNL     1       8.640  -1.664  26.392  0.00  0.00    +0.203 A 
ENDBRANCH  11  13
BRANCH  10  25
ATOM     25  O   UNL     1       9.563  -5.584  25.650  0.00  0.00    -0.385 OA
ATOM     26  H   UNL     1      10.376  -5.053  25.529  0.00  0.00    +0.210 HD
ENDBRANCH  10  25
BRANCH   9  27
ATOM     27  O   UNL     1       7.258  -5.561  28.176  0.00  0.00    -0.278 OA
BRANCH  27  28
ATOM     28  P   UNL     1       5.825  -6.399  28.662  0.00  0.00    +0.473 P 
ATOM     29  O   UNL     1       4.541  -7.148  29.097  0.00  0.00    -0.228 OA
BRANCH  28  30
ATOM     30  O   UNL     1       6.851  -7.490  29.308  0.00  0.00    -0.303 OA
ATOM     31  H   UNL     1       7.284  -7.945  28.562  0.00  0.00    +0.222 HD
ENDBRANCH  28  30
BRANCH  28  32
ATOM     32  O   UNL     1       5.829  -5.421  29.972  0.00  0.00    -0.303 OA
ATOM     33  H   UNL     1       5.292  -4.627  29.792  0.00  0.00    +0.222 HD
ENDBRANCH  28  32
ENDBRANCH  27  28
ENDBRANCH   9  27
ENDBRANCH   7   8
ENDBRANCH   6   7
ENDBRANCH   2   6
ENDBRANCH   1   2
BRANCH   1  34
ATOM     34  P   UNL     1       2.984  -3.005  25.917  0.00  0.00    +0.483 P 
ATOM     35  O   UNL     1       2.988  -3.901  27.116  0.00  0.00    -0.227 OA
BRANCH  34  36
ATOM     36  O   UNL     1       1.479  -2.618  25.523  0.00  0.00    -0.302 OA
ATOM     37  H   UNL     1       1.445  -2.142  24.675  0.00  0.00    +0.222 HD
ENDBRANCH  34  36
BRANCH  34  38
ATOM     38  O   UNL     1       3.647  -1.548  26.018  0.00  0.00    -0.286 OA
BRANCH  38  39
ATOM     39  C   UNL     1       4.378  -1.021  27.138  0.00  0.00    +0.181 C 
BRANCH  39  40
ATOM     40  C   UNL     1       4.595   0.516  27.240  0.00  0.00    +0.024 C 
ATOM     41  C   UNL     1       3.845   1.038  28.483  0.00  0.00    +0.016 C 
ATOM     42  C   UNL     1       6.080   0.859  27.404  0.00  0.00    +0.016 C 
BRANCH  40  43
ATOM     43  C   UNL     1       4.090   1.290  25.968  0.00  0.00    +0.208 C 
BRANCH  43  46
ATOM     44  N   UNL     1       4.974   3.545  25.486  0.00  0.00    -0.313 N 
ATOM     45  H   UNL     1       5.508   3.031  24.789  0.00  0.00    +0.149 HD
ATOM     46  C   UNL     1       3.978   2.831  26.126  0.00  0.00    +0.242 C 
ATOM     47  O   UNL     1       3.070   3.367  26.751  0.00  0.00    -0.273 OA
BRANCH  44  48
ATOM     48  C   UNL     1       5.018   5.005  25.460  0.00  0.00    +0.113 C 
BRANCH  48  49
ATOM     49  C   UNL     1       5.792   5.656  26.605  0.00  0.00    +0.114 C 
BRANCH  49  52
ATOM     50  N   UNL     1       8.067   6.547  26.274  0.00  0.00    -0.314 N 
ATOM     51  H   UNL     1       7.578   7.411  26.073  0.00  0.00    +0.149 HD
ATOM     52  C   UNL     1       7.294   5.459  26.609  0.00  0.00    +0.215 C 
ATOM     53  O   UNL     1       7.769   4.352  26.876  0.00  0.00    -0.276 OA
BRANCH  50  54
ATOM     54  C   UNL     1       9.519   6.597  26.187  0.00  0.00    +0.115 C 
BRANCH  54  55
ATOM     55  C   UNL     1      10.166   6.365  24.821  0.00  0.00    +0.096 C 
BRANCH  55  56
ATOM     56  S   UNL     1       8.936   6.415  23.492  0.00  0.00    -0.087 S 
BRANCH  56  57
ATOM     57  C   UNL     1       8.626   4.693  23.367  0.00  0.00    +0.192 C 
ATOM     58  O   UNL     1       9.378   3.906  23.941  0.00  0.00    -0.285 OA
BRANCH  57  59
ATOM     59  C   UNL     1       7.361   4.270  22.655  0.00  0.00    +0.117 C 
BRANCH  59  61
ATOM     60  C   UNL     1       7.856   1.962  21.589  0.00  0.00    +0.038 C 
ATOM     61  C   UNL     1       7.011   2.781  22.557  0.00  0.00    +0.119 C 
BRANCH  61  62
ATOM     62  O   UNL     1       7.241   2.225  23.863  0.00  0.00    -0.392 OA
ATOM     63  H   UNL     1       6.493   2.489  24.425  0.00  0.00    +0.210 HD
ENDBRANCH  61  62
ENDBRANCH  59  61
ENDBRANCH  57  59
ENDBRANCH  56  57
ENDBRANCH  55  56
ENDBRANCH  54  55
ENDBRANCH  50  54
ENDBRANCH  49  52
ENDBRANCH  48  49
ENDBRANCH  44  48
ENDBRANCH  43  46
BRANCH  43  64
ATOM     64  O   UNL     1       4.846   0.961  24.797  0.00  0.00    -0.382 OA
ATOM     65  H   UNL     1       4.724   0.006  24.658  0.00  0.00    +0.210 HD
ENDBRANCH  43  64
ENDBRANCH  40  43
ENDBRANCH  39  40
ENDBRANCH  38  39
ENDBRANCH  34  38
ENDBRANCH   1  34
TORSDOF 29
ENDMDL
MODEL 6
REMARK VINA RESULT:      -5.6      3.210      5.215
REMARK  Name = 
REMARK  32 active torsions:
REMARK  status: ('A' for Active; 'I' for Inactive)
REMARK    1  A    between atoms: C_1  and  C_2
REMARK    2  A    between atoms: C_2  and  O_4
REMARK    3  A    between atoms: C_2  and  C_5
REMARK    4  A    between atoms: C_5  and  C_6
REMARK    5  A    between atoms: C_6  and  S_8
REMARK    6  A    between atoms: S_8  and  C_9
REMARK    7  A    between atoms: C_9  and  C_10
REMARK    8  A    between atoms: C_10  and  N_11
REMARK    9  A    between atoms: C_12  and  C_14
REMARK   10  A    between atoms: C_14  and  C_15
REMARK   11  A    between atoms: C_15  and  N_16
REMARK   12  A    between atoms: C_17  and  C_19
REMARK   13  A    between atoms: C_19  and  O_21
REMARK   14  A    between atoms: C_19  and  C_22
REMARK   15  A    between atoms: C_22  and  C_23
REMARK   16  A    between atoms: C_22  and  C_24
REMARK   17  A    between atoms: C_22  and  C_25
REMARK   18  A    between atoms: C_25  and  O_26
REMARK   19  A    between atoms: O_26  and  P_27
REMARK   20  A    between atoms: P_27  and  O_28
REMARK   21  A    between atoms: P_27  and  O_30
REMARK   22  A    between atoms: O_30  and  P_31
REMARK   23  A    between atoms: P_31  and  O_32
REMARK   24  A    between atoms: P_31  and  O_34
REMARK   25  A    between atoms: O_34  and  C_35
REMARK   26  A    between atoms: C_35  and  C_36
REMARK   27  A    between atoms: C_39  and  N_51
REMARK   28  A    between atoms: C_41  and  O_43
REMARK   29  A    between atoms: C_44  and  O_46
REMARK   30  A    between atoms: O_46  and  P_47
REMARK   31  A    between atoms: P_47  and  O_48
REMARK   32  A    between atoms: P_47  and  O_49
REMARK                            x       y       z     vdW  Elec       q    Type
REMARK                         _______ _______ _______ _____ _____    ______ ____
ROOT
ATOM      1  O   UNL     1       7.412  -1.471  24.371  0.00  0.00    -0.186 OA
ENDROOT
BRANCH   1   2
ATOM      2  P   UNL     1       8.778  -1.637  25.179  0.00  0.00    +0.483 P 
ATOM      3  O   UNL     1       9.403  -0.411  25.731  0.00  0.00    -0.227 OA
BRANCH   2   4
ATOM      4  O   UNL     1       9.787  -2.280  24.109  0.00  0.00    -0.302 OA
ATOM      5  H   UNL     1       9.706  -1.754  23.280  0.00  0.00    +0.222 HD
ENDBRANCH   2   4
BRANCH   2   6
ATOM      6  O   UNL     1       8.639  -2.791  26.296  0.00  0.00    -0.284 OA
BRANCH   6   7
ATOM      7  C   UNL     1       9.105  -4.089  25.918  0.00  0.00    +0.206 C 
BRANCH   7   8
ATOM      8  C   UNL     1       8.028  -5.176  26.058  0.00  0.00    +0.179 C 
ATOM      9  C   UNL     1       7.152  -4.949  27.295  0.00  0.00    +0.194 C 
ATOM     10  C   UNL     1       5.779  -4.590  26.733  0.00  0.00    +0.196 C 
ATOM     11  C   UNL     1       5.992  -4.495  25.216  0.00  0.00    +0.253 C 
ATOM     12  O   UNL     1       7.176  -5.235  24.905  0.00  0.00    -0.346 OA
BRANCH  11  13
ATOM     13  N   UNL     1       4.861  -5.026  24.477  0.00  0.00    -0.286 N 
ATOM     14  C   UNL     1       3.568  -4.580  24.624  0.00  0.00    +0.167 A 
ATOM     15  N   UNL     1       3.149  -3.562  25.387  0.00  0.00    -0.216 NA
ATOM     16  C   UNL     1       1.816  -3.401  25.263  0.00  0.00    +0.225 A 
ATOM     17  N   UNL     1       0.940  -4.136  24.546  0.00  0.00    -0.219 NA
ATOM     18  C   UNL     1       1.421  -5.159  23.802  0.00  0.00    +0.147 A 
ATOM     19  N   UNL     1       0.506  -5.929  23.090  0.00  0.00    -0.341 N 
ATOM     20  H   UNL     1       0.850  -6.857  22.870  0.00  0.00    +0.144 HD
ATOM     21  H   UNL     1      -0.425  -5.858  23.478  0.00  0.00    +0.144 HD
ATOM     22  C   UNL     1       2.809  -5.412  23.824  0.00  0.00    +0.147 A 
ATOM     23  N   UNL     1       3.599  -6.367  23.217  0.00  0.00    -0.231 NA
ATOM     24  C   UNL     1       4.828  -6.095  23.625  0.00  0.00    +0.203 A 
ENDBRANCH  11  13
BRANCH  10  25
ATOM     25  O   UNL     1       5.340  -3.342  27.281  0.00  0.00    -0.385 OA
ATOM     26  H   UNL     1       4.397  -3.424  27.531  0.00  0.00    +0.210 HD
ENDBRANCH  10  25
BRANCH   9  27
ATOM     27  O   UNL     1       7.110  -6.153  28.090  0.00  0.00    -0.278 OA
BRANCH  27  28
ATOM     28  P   UNL     1       5.586  -6.275  28.899  0.00  0.00    +0.473 P 
ATOM     29  O   UNL     1       4.221  -6.383  29.624  0.00  0.00    -0.228 OA
BRANCH  28  30
ATOM     30  O   UNL     1       5.700  -7.869  28.575  0.00  0.00    -0.303 OA
ATOM     31  H   UNL     1       6.582  -8.155  28.877  0.00  0.00    +0.222 HD
ENDBRANCH  28  30
BRANCH  28  32
ATOM     32  O   UNL     1       6.451  -6.359  30.284  0.00  0.00    -0.303 OA
ATOM     33  H   UNL     1       6.787  -5.473  30.516  0.00  0.00    +0.222 HD
ENDBRANCH  28  32
ENDBRANCH  27  28
ENDBRANCH   9  27
ENDBRANCH   7   8
ENDBRANCH   6   7
ENDBRANCH   2   6
ENDBRANCH   1   2
BRANCH   1  34
ATOM     34  P   UNL     1       6.219  -0.613  24.998  0.00  0.00    +0.483 P 
ATOM     35  O   UNL     1       6.218  -0.624  26.495  0.00  0.00    -0.227 OA
BRANCH  34  36
ATOM     36  O   UNL     1       4.940  -1.401  24.440  0.00  0.00    -0.302 OA
ATOM     37  H   UNL     1       5.152  -2.333  24.252  0.00  0.00    +0.222 HD
ENDBRANCH  34  36
BRANCH  34  38
ATOM     38  O   UNL     1       6.070   0.781  24.220  0.00  0.00    -0.286 OA
BRANCH  38  39
ATOM     39  C   UNL     1       6.786   1.177  23.038  0.00  0.00    +0.181 C 
BRANCH  39  40
ATOM     40  C   UNL     1       7.898   2.260  23.158  0.00  0.00    +0.024 C 
ATOM     41  C   UNL     1       7.453   3.512  22.375  0.00  0.00    +0.016 C 
ATOM     42  C   UNL     1       8.121   2.669  24.619  0.00  0.00    +0.016 C 
BRANCH  40  43
ATOM     43  C   UNL     1       9.288   1.771  22.608  0.00  0.00    +0.208 C 
BRANCH  43  46
ATOM     44  N   UNL     1      10.792   3.715  22.852  0.00  0.00    -0.313 N 
ATOM     45  H   UNL     1      10.029   4.185  22.370  0.00  0.00    +0.149 HD
ATOM     46  C   UNL     1      10.532   2.423  23.270  0.00  0.00    +0.242 C 
ATOM     47  O   UNL     1      11.214   1.844  24.108  0.00  0.00    -0.273 OA
BRANCH  44  48
ATOM     48  C   UNL     1      11.878   4.527  23.396  0.00  0.00    +0.113 C 
BRANCH  48  49
ATOM     49  C   UNL     1      11.440   5.738  24.218  0.00  0.00    +0.114 C 
BRANCH  49  52
ATOM     50  N   UNL     1       9.265   6.136  25.308  0.00  0.00    -0.314 N 
ATOM     51  H   UNL     1       9.774   5.909  26.154  0.00  0.00    +0.149 HD
ATOM     52  C   UNL     1       9.978   6.126  24.132  0.00  0.00    +0.215 C 
ATOM     53  O   UNL     1       9.474   6.386  23.036  0.00  0.00    -0.276 OA
BRANCH  50  54
ATOM     54  C   UNL     1       7.854   6.452  25.475  0.00  0.00    +0.115 C 
BRANCH  54  55
ATOM     55  C   UNL     1       6.999   5.499  26.312  0.00  0.00    +0.096 C 
BRANCH  55  56
ATOM     56  S   UNL     1       7.167   5.846  28.082  0.00  0.00    -0.087 S 
BRANCH  56  57
ATOM     57  C   UNL     1       6.356   4.417  28.699  0.00  0.00    +0.192 C 
ATOM     58  O   UNL     1       5.463   4.549  29.535  0.00  0.00    -0.285 OA
BRANCH  57  59
ATOM     59  C   UNL     1       6.717   3.092  28.065  0.00  0.00    +0.117 C 
BRANCH  59  61
ATOM     60  C   UNL     1       5.966   1.131  29.580  0.00  0.00    +0.038 C 
ATOM     61  C   UNL     1       7.116   1.912  28.957  0.00  0.00    +0.119 C 
BRANCH  61  62
ATOM     62  O   UNL     1       7.821   0.987  28.112  0.00  0.00    -0.392 OA
ATOM     63  H   UNL     1       8.765   1.053  28.336  0.00  0.00    +0.210 HD
ENDBRANCH  61  62
ENDBRANCH  59  61
ENDBRANCH  57  59
ENDBRANCH  56  57
ENDBRANCH  55  56
ENDBRANCH  54  55
ENDBRANCH  50  54
ENDBRANCH  49  52
ENDBRANCH  48  49
ENDBRANCH  44  48
ENDBRANCH  43  46
BRANCH  43  64
ATOM     64  O   UNL     1       9.405   0.344  22.619  0.00  0.00    -0.382 OA
ATOM     65  H   UNL     1       9.246   0.054  21.704  0.00  0.00    +0.210 HD
ENDBRANCH  43  64
ENDBRANCH  40  43
ENDBRANCH  39  40
ENDBRANCH  38  39
ENDBRANCH  34  38
ENDBRANCH   1  34
TORSDOF 29
ENDMDL
MODEL 7
REMARK VINA RESULT:      -5.6      2.332      3.398
REMARK  Name = 
REMARK  32 active torsions:
REMARK  status: ('A' for Active; 'I' for Inactive)
REMARK    1  A    between atoms: C_1  and  C_2
REMARK    2  A    between atoms: C_2  and  O_4
REMARK    3  A    between atoms: C_2  and  C_5
REMARK    4  A    between atoms: C_5  and  C_6
REMARK    5  A    between atoms: C_6  and  S_8
REMARK    6  A    between atoms: S_8  and  C_9
REMARK    7  A    between atoms: C_9  and  C_10
REMARK    8  A    between atoms: C_10  and  N_11
REMARK    9  A    between atoms: C_12  and  C_14
REMARK   10  A    between atoms: C_14  and  C_15
REMARK   11  A    between atoms: C_15  and  N_16
REMARK   12  A    between atoms: C_17  and  C_19
REMARK   13  A    between atoms: C_19  and  O_21
REMARK   14  A    between atoms: C_19  and  C_22
REMARK   15  A    between atoms: C_22  and  C_23
REMARK   16  A    between atoms: C_22  and  C_24
REMARK   17  A    between atoms: C_22  and  C_25
REMARK   18  A    between atoms: C_25  and  O_26
REMARK   19  A    between atoms: O_26  and  P_27
REMARK   20  A    between atoms: P_27  and  O_28
REMARK   21  A    between atoms: P_27  and  O_30
REMARK   22  A    between atoms: O_30  and  P_31
REMARK   23  A    between atoms: P_31  and  O_32
REMARK   24  A    between atoms: P_31  and  O_34
REMARK   25  A    between atoms: O_34  and  C_35
REMARK   26  A    between atoms: C_35  and  C_36
REMARK   27  A    between atoms: C_39  and  N_51
REMARK   28  A    between atoms: C_41  and  O_43
REMARK   29  A    between atoms: C_44  and  O_46
REMARK   30  A    between atoms: O_46  and  P_47
REMARK   31  A    between atoms: P_47  and  O_48
REMARK   32  A    between atoms: P_47  and  O_49
REMARK                            x       y       z     vdW  Elec       q    Type
REMARK                         _______ _______ _______ _____ _____    ______ ____
ROOT
ATOM      1  O   UNL     1       7.935  -3.475  22.233  0.00  0.00    -0.186 OA
ENDROOT
BRANCH   1   2
ATOM      2  P   UNL     1       6.360  -3.721  22.162  0.00  0.00    +0.483 P 
ATOM      3  O   UNL     1       5.758  -3.943  20.826  0.00  0.00    -0.227 OA
BRANCH   2   4
ATOM      4  O   UNL     1       5.730  -2.381  22.784  0.00  0.00    -0.302 OA
ATOM      5  H   UNL     1       5.095  -2.024  22.121  0.00  0.00    +0.222 HD
ENDBRANCH   2   4
BRANCH   2   6
ATOM      6  O   UNL     1       5.918  -4.859  23.214  0.00  0.00    -0.284 OA
BRANCH   6   7
ATOM      7  C   UNL     1       4.745  -5.604  22.877  0.00  0.00    +0.206 C 
BRANCH   7   8
ATOM      8  C   UNL     1       3.510  -5.175  23.684  0.00  0.00    +0.179 C 
ATOM      9  C   UNL     1       3.284  -6.082  24.898  0.00  0.00    +0.194 C 
ATOM     10  C   UNL     1       3.564  -5.188  26.103  0.00  0.00    +0.196 C 
ATOM     11  C   UNL     1       4.070  -3.870  25.501  0.00  0.00    +0.253 C 
ATOM     12  O   UNL     1       3.618  -3.820  24.145  0.00  0.00    -0.346 OA
BRANCH  11  13
ATOM     13  N   UNL     1       3.580  -2.718  26.235  0.00  0.00    -0.286 N 
ATOM     14  C   UNL     1       4.285  -1.546  26.388  0.00  0.00    +0.167 A 
ATOM     15  N   UNL     1       5.469  -1.241  25.841  0.00  0.00    -0.216 NA
ATOM     16  C   UNL     1       5.842   0.005  26.195  0.00  0.00    +0.225 A 
ATOM     17  N   UNL     1       5.213   0.874  27.014  0.00  0.00    -0.219 NA
ATOM     18  C   UNL     1       4.023   0.506  27.546  0.00  0.00    +0.147 A 
ATOM     19  N   UNL     1       3.397   1.397  28.412  0.00  0.00    -0.341 N 
ATOM     20  H   UNL     1       2.743   0.949  29.043  0.00  0.00    +0.144 HD
ATOM     21  H   UNL     1       4.055   2.054  28.813  0.00  0.00    +0.144 HD
ATOM     22  C   UNL     1       3.509  -0.768  27.226  0.00  0.00    +0.147 A 
ATOM     23  N   UNL     1       2.368  -1.444  27.609  0.00  0.00    -0.231 NA
ATOM     24  C   UNL     1       2.441  -2.607  26.983  0.00  0.00    +0.203 A 
ENDBRANCH  11  13
BRANCH  10  25
ATOM     25  O   UNL     1       4.554  -5.796  26.942  0.00  0.00    -0.385 OA
ATOM     26  H   UNL     1       5.435  -5.466  26.676  0.00  0.00    +0.210 HD
ENDBRANCH  10  25
BRANCH   9  27
ATOM     27  O   UNL     1       1.926  -6.571  24.896  0.00  0.00    -0.278 OA
BRANCH  27  28
ATOM     28  P   UNL     1       1.920  -8.300  24.936  0.00  0.00    +0.473 P 
ATOM     29  O   UNL     1       1.915  -9.849  24.973  0.00  0.00    -0.228 OA
BRANCH  28  30
ATOM     30  O   UNL     1       2.163  -8.199  23.326  0.00  0.00    -0.303 OA
ATOM     31  H   UNL     1       1.769  -8.998  22.931  0.00  0.00    +0.222 HD
ENDBRANCH  28  30
BRANCH  28  32
ATOM     32  O   UNL     1       3.507  -8.189  25.316  0.00  0.00    -0.303 OA
ATOM     33  H   UNL     1       3.853  -9.071  25.545  0.00  0.00    +0.222 HD
ENDBRANCH  28  32
ENDBRANCH  27  28
ENDBRANCH   9  27
ENDBRANCH   7   8
ENDBRANCH   6   7
ENDBRANCH   2   6
ENDBRANCH   1   2
BRANCH   1  34
ATOM     34  P   UNL     1       8.547  -2.590  23.415  0.00  0.00    +0.483 P 
ATOM     35  O   UNL     1       9.971  -2.936  23.723  0.00  0.00    -0.227 OA
BRANCH  34  36
ATOM     36  O   UNL     1       7.601  -3.008  24.639  0.00  0.00    -0.302 OA
ATOM     37  H   UNL     1       7.969  -2.711  25.490  0.00  0.00    +0.222 HD
ENDBRANCH  34  36
BRANCH  34  38
ATOM     38  O   UNL     1       8.132  -1.053  23.230  0.00  0.00    -0.286 OA
BRANCH  38  39
ATOM     39  C   UNL     1       8.628   0.061  23.990  0.00  0.00    +0.181 C 
BRANCH  39  40
ATOM     40  C   UNL     1       8.265   1.505  23.537  0.00  0.00    +0.024 C 
ATOM     41  C   UNL     1       6.877   1.476  22.864  0.00  0.00    +0.016 C 
ATOM     42  C   UNL     1       8.192   2.462  24.733  0.00  0.00    +0.016 C 
BRANCH  40  43
ATOM     43  C   UNL     1       9.314   2.112  22.535  0.00  0.00    +0.208 C 
BRANCH  43  46
ATOM     44  N   UNL     1      10.932   3.950  22.860  0.00  0.00    -0.313 N 
ATOM     45  H   UNL     1      10.174   4.497  22.462  0.00  0.00    +0.149 HD
ATOM     46  C   UNL     1      10.624   2.640  23.182  0.00  0.00    +0.242 C 
ATOM     47  O   UNL     1      11.313   1.958  23.931  0.00  0.00    -0.273 OA
BRANCH  44  48
ATOM     48  C   UNL     1      12.086   4.656  23.411  0.00  0.00    +0.113 C 
BRANCH  48  49
ATOM     49  C   UNL     1      11.768   5.963  24.135  0.00  0.00    +0.114 C 
BRANCH  49  52
ATOM     50  N   UNL     1       9.839   6.472  25.583  0.00  0.00    -0.314 N 
ATOM     51  H   UNL     1      10.516   6.371  26.330  0.00  0.00    +0.149 HD
ATOM     52  C   UNL     1      10.303   6.312  24.298  0.00  0.00    +0.215 C 
ATOM     53  O   UNL     1       9.580   6.410  23.303  0.00  0.00    -0.276 OA
BRANCH  50  54
ATOM     54  C   UNL     1       8.477   6.784  25.990  0.00  0.00    +0.115 C 
BRANCH  54  55
ATOM     55  C   UNL     1       7.582   5.631  26.448  0.00  0.00    +0.096 C 
BRANCH  55  56
ATOM     56  S   UNL     1       6.485   6.143  27.795  0.00  0.00    -0.087 S 
BRANCH  56  57
ATOM     57  C   UNL     1       5.707   4.598  28.090  0.00  0.00    +0.192 C 
ATOM     58  O   UNL     1       5.079   4.060  27.179  0.00  0.00    -0.285 OA
BRANCH  57  59
ATOM     59  C   UNL     1       5.960   3.943  29.430  0.00  0.00    +0.117 C 
BRANCH  59  61
ATOM     60  C   UNL     1       6.668   1.587  30.234  0.00  0.00    +0.038 C 
ATOM     61  C   UNL     1       7.068   2.892  29.559  0.00  0.00    +0.119 C 
BRANCH  61  62
ATOM     62  O   UNL     1       7.458   2.550  28.218  0.00  0.00    -0.392 OA
ATOM     63  H   UNL     1       7.763   3.367  27.789  0.00  0.00    +0.210 HD
ENDBRANCH  61  62
ENDBRANCH  59  61
ENDBRANCH  57  59
ENDBRANCH  56  57
ENDBRANCH  55  56
ENDBRANCH  54  55
ENDBRANCH  50  54
ENDBRANCH  49  52
ENDBRANCH  48  49
ENDBRANCH  44  48
ENDBRANCH  43  46
BRANCH  43  64
ATOM     64  O   UNL     1       9.614   1.220  21.456  0.00  0.00    -0.382 OA
ATOM     65  H   UNL     1       8.899   0.560  21.446  0.00  0.00    +0.210 HD
ENDBRANCH  43  64
ENDBRANCH  40  43
ENDBRANCH  39  40
ENDBRANCH  38  39
ENDBRANCH  34  38
ENDBRANCH   1  34
TORSDOF 29
ENDMDL
MODEL 8
REMARK VINA RESULT:      -5.5      2.304      3.646
REMARK  Name = 
REMARK  32 active torsions:
REMARK  status: ('A' for Active; 'I' for Inactive)
REMARK    1  A    between atoms: C_1  and  C_2
REMARK    2  A    between atoms: C_2  and  O_4
REMARK    3  A    between atoms: C_2  and  C_5
REMARK    4  A    between atoms: C_5  and  C_6
REMARK    5  A    between atoms: C_6  and  S_8
REMARK    6  A    between atoms: S_8  and  C_9
REMARK    7  A    between atoms: C_9  and  C_10
REMARK    8  A    between atoms: C_10  and  N_11
REMARK    9  A    between atoms: C_12  and  C_14
REMARK   10  A    between atoms: C_14  and  C_15
REMARK   11  A    between atoms: C_15  and  N_16
REMARK   12  A    between atoms: C_17  and  C_19
REMARK   13  A    between atoms: C_19  and  O_21
REMARK   14  A    between atoms: C_19  and  C_22
REMARK   15  A    between atoms: C_22  and  C_23
REMARK   16  A    between atoms: C_22  and  C_24
REMARK   17  A    between atoms: C_22  and  C_25
REMARK   18  A    between atoms: C_25  and  O_26
REMARK   19  A    between atoms: O_26  and  P_27
REMARK   20  A    between atoms: P_27  and  O_28
REMARK   21  A    between atoms: P_27  and  O_30
REMARK   22  A    between atoms: O_30  and  P_31
REMARK   23  A    between atoms: P_31  and  O_32
REMARK   24  A    between atoms: P_31  and  O_34
REMARK   25  A    between atoms: O_34  and  C_35
REMARK   26  A    between atoms: C_35  and  C_36
REMARK   27  A    between atoms: C_39  and  N_51
REMARK   28  A    between atoms: C_41  and  O_43
REMARK   29  A    between atoms: C_44  and  O_46
REMARK   30  A    between atoms: O_46  and  P_47
REMARK   31  A    between atoms: P_47  and  O_48
REMARK   32  A    between atoms: P_47  and  O_49
REMARK                            x       y       z     vdW  Elec       q    Type
REMARK                         _______ _______ _______ _____ _____    ______ ____
ROOT
ATOM      1  O   UNL     1       7.709  -2.970  23.780  0.00  0.00    -0.186 OA
ENDROOT
BRANCH   1   2
ATOM      2  P   UNL     1       7.585  -4.505  23.363  0.00  0.00    +0.483 P 
ATOM      3  O   UNL     1       8.667  -5.423  23.791  0.00  0.00    -0.227 OA
BRANCH   2   4
ATOM      4  O   UNL     1       7.559  -4.469  21.758  0.00  0.00    -0.302 OA
ATOM      5  H   UNL     1       8.069  -5.250  21.441  0.00  0.00    +0.222 HD
ENDBRANCH   2   4
BRANCH   2   6
ATOM      6  O   UNL     1       6.128  -5.080  23.743  0.00  0.00    -0.284 OA
BRANCH   6   7
ATOM      7  C   UNL     1       5.016  -4.250  23.399  0.00  0.00    +0.206 C 
BRANCH   7   8
ATOM      8  C   UNL     1       4.120  -3.919  24.603  0.00  0.00    +0.179 C 
ATOM      9  C   UNL     1       4.509  -4.737  25.839  0.00  0.00    +0.194 C 
ATOM     10  C   UNL     1       5.073  -3.710  26.817  0.00  0.00    +0.196 C 
ATOM     11  C   UNL     1       5.103  -2.395  26.026  0.00  0.00    +0.253 C 
ATOM     12  O   UNL     1       4.176  -2.527  24.945  0.00  0.00    -0.346 OA
BRANCH  11  13
ATOM     13  N   UNL     1       4.747  -1.258  26.855  0.00  0.00    -0.286 N 
ATOM     14  C   UNL     1       5.663  -0.442  27.476  0.00  0.00    +0.167 A 
ATOM     15  N   UNL     1       6.997  -0.499  27.368  0.00  0.00    -0.216 NA
ATOM     16  C   UNL     1       7.569   0.475  28.103  0.00  0.00    +0.225 A 
ATOM     17  N   UNL     1       6.978   1.387  28.904  0.00  0.00    -0.219 NA
ATOM     18  C   UNL     1       5.626   1.390  28.981  0.00  0.00    +0.147 A 
ATOM     19  N   UNL     1       5.028   2.314  29.832  0.00  0.00    -0.341 N 
ATOM     20  H   UNL     1       4.098   2.041  30.129  0.00  0.00    +0.144 HD
ATOM     21  H   UNL     1       5.668   2.636  30.546  0.00  0.00    +0.144 HD
ATOM     22  C   UNL     1       4.908   0.434  28.232  0.00  0.00    +0.147 A 
ATOM     23  N   UNL     1       3.561   0.156  28.110  0.00  0.00    -0.231 NA
ATOM     24  C   UNL     1       3.504  -0.860  27.264  0.00  0.00    +0.203 A 
ENDBRANCH  11  13
BRANCH  10  25
ATOM     25  O   UNL     1       6.386  -4.103  27.232  0.00  0.00    -0.385 OA
ATOM     26  H   UNL     1       7.043  -3.640  26.674  0.00  0.00    +0.210 HD
ENDBRANCH  10  25
BRANCH   9  27
ATOM     27  O   UNL     1       3.343  -5.402  26.370  0.00  0.00    -0.278 OA
BRANCH  27  28
ATOM     28  P   UNL     1       3.119  -6.924  25.579  0.00  0.00    +0.473 P 
ATOM     29  O   UNL     1       2.917  -8.287  24.872  0.00  0.00    -0.228 OA
BRANCH  28  30
ATOM     30  O   UNL     1       4.733  -7.090  25.745  0.00  0.00    -0.303 OA
ATOM     31  H   UNL     1       5.128  -6.874  24.880  0.00  0.00    +0.222 HD
ENDBRANCH  28  30
BRANCH  28  32
ATOM     32  O   UNL     1       2.772  -7.520  27.062  0.00  0.00    -0.303 OA
ATOM     33  H   UNL     1       3.054  -8.452  27.117  0.00  0.00    +0.222 HD
ENDBRANCH  28  32
ENDBRANCH  27  28
ENDBRANCH   9  27
ENDBRANCH   7   8
ENDBRANCH   6   7
ENDBRANCH   2   6
ENDBRANCH   1   2
BRANCH   1  34
ATOM     34  P   UNL     1       9.024  -2.147  23.396  0.00  0.00    +0.483 P 
ATOM     35  O   UNL     1       9.226  -2.030  21.917  0.00  0.00    -0.227 OA
BRANCH  34  36
ATOM     36  O   UNL     1      10.167  -3.069  24.037  0.00  0.00    -0.302 OA
ATOM     37  H   UNL     1       9.794  -3.878  24.428  0.00  0.00    +0.222 HD
ENDBRANCH  34  36
BRANCH  34  38
ATOM     38  O   UNL     1       9.147  -0.839  24.315  0.00  0.00    -0.286 OA
BRANCH  38  39
ATOM     39  C   UNL     1      10.126   0.205  24.183  0.00  0.00    +0.181 C 
BRANCH  39  40
ATOM     40  C   UNL     1       9.650   1.643  23.824  0.00  0.00    +0.024 C 
ATOM     41  C   UNL     1       8.693   2.136  24.928  0.00  0.00    +0.016 C 
ATOM     42  C   UNL     1      10.832   2.618  23.751  0.00  0.00    +0.016 C 
BRANCH  40  43
ATOM     43  C   UNL     1       8.919   1.714  22.434  0.00  0.00    +0.208 C 
BRANCH  43  46
ATOM     44  N   UNL     1       7.967   3.990  22.308  0.00  0.00    -0.313 N 
ATOM     45  H   UNL     1       8.921   4.220  22.042  0.00  0.00    +0.149 HD
ATOM     46  C   UNL     1       7.673   2.641  22.384  0.00  0.00    +0.242 C 
ATOM     47  O   UNL     1       6.526   2.208  22.391  0.00  0.00    -0.273 OA
BRANCH  44  48
ATOM     48  C   UNL     1       6.942   5.024  22.191  0.00  0.00    +0.113 C 
BRANCH  48  49
ATOM     49  C   UNL     1       6.747   5.895  23.431  0.00  0.00    +0.114 C 
BRANCH  49  52
ATOM     50  N   UNL     1       5.536   4.188  24.735  0.00  0.00    -0.314 N 
ATOM     51  H   UNL     1       5.079   3.999  23.850  0.00  0.00    +0.149 HD
ATOM     52  C   UNL     1       6.499   5.171  24.739  0.00  0.00    +0.215 C 
ATOM     53  O   UNL     1       7.127   5.495  25.750  0.00  0.00    -0.276 OA
BRANCH  50  54
ATOM     54  C   UNL     1       5.108   3.376  25.864  0.00  0.00    +0.115 C 
BRANCH  54  55
ATOM     55  C   UNL     1       3.999   3.923  26.763  0.00  0.00    +0.096 C 
BRANCH  55  56
ATOM     56  S   UNL     1       2.694   4.718  25.790  0.00  0.00    -0.087 S 
BRANCH  56  57
ATOM     57  C   UNL     1       2.076   3.290  24.978  0.00  0.00    +0.192 C 
ATOM     58  O   UNL     1       1.990   2.235  25.605  0.00  0.00    -0.285 OA
BRANCH  57  59
ATOM     59  C   UNL     1       1.557   3.469  23.569  0.00  0.00    +0.117 C 
BRANCH  59  61
ATOM     60  C   UNL     1       3.084   4.680  21.864  0.00  0.00    +0.038 C 
ATOM     61  C   UNL     1       2.528   3.362  22.387  0.00  0.00    +0.119 C 
BRANCH  61  62
ATOM     62  O   UNL     1       3.657   2.607  22.859  0.00  0.00    -0.392 OA
ATOM     63  H   UNL     1       4.400   2.796  22.261  0.00  0.00    +0.210 HD
ENDBRANCH  61  62
ENDBRANCH  59  61
ENDBRANCH  57  59
ENDBRANCH  56  57
ENDBRANCH  55  56
ENDBRANCH  54  55
ENDBRANCH  50  54
ENDBRANCH  49  52
ENDBRANCH  48  49
ENDBRANCH  44  48
ENDBRANCH  43  46
BRANCH  43  64
ATOM     64  O   UNL     1       9.817   2.026  21.363  0.00  0.00    -0.382 OA
ATOM     65  H   UNL     1      10.623   1.507  21.528  0.00  0.00    +0.210 HD
ENDBRANCH  43  64
ENDBRANCH  40  43
ENDBRANCH  39  40
ENDBRANCH  38  39
ENDBRANCH  34  38
ENDBRANCH   1  34
TORSDOF 29
ENDMDL
MODEL 9
REMARK VINA RESULT:      -5.5      2.294      5.661
REMARK  Name = 
REMARK  32 active torsions:
REMARK  status: ('A' for Active; 'I' for Inactive)
REMARK    1  A    between atoms: C_1  and  C_2
REMARK    2  A    between atoms: C_2  and  O_4
REMARK    3  A    between atoms: C_2  and  C_5
REMARK    4  A    between atoms: C_5  and  C_6
REMARK    5  A    between atoms: C_6  and  S_8
REMARK    6  A    between atoms: S_8  and  C_9
REMARK    7  A    between atoms: C_9  and  C_10
REMARK    8  A    between atoms: C_10  and  N_11
REMARK    9  A    between atoms: C_12  and  C_14
REMARK   10  A    between atoms: C_14  and  C_15
REMARK   11  A    between atoms: C_15  and  N_16
REMARK   12  A    between atoms: C_17  and  C_19
REMARK   13  A    between atoms: C_19  and  O_21
REMARK   14  A    between atoms: C_19  and  C_22
REMARK   15  A    between atoms: C_22  and  C_23
REMARK   16  A    between atoms: C_22  and  C_24
REMARK   17  A    between atoms: C_22  and  C_25
REMARK   18  A    between atoms: C_25  and  O_26
REMARK   19  A    between atoms: O_26  and  P_27
REMARK   20  A    between atoms: P_27  and  O_28
REMARK   21  A    between atoms: P_27  and  O_30
REMARK   22  A    between atoms: O_30  and  P_31
REMARK   23  A    between atoms: P_31  and  O_32
REMARK   24  A    between atoms: P_31  and  O_34
REMARK   25  A    between atoms: O_34  and  C_35
REMARK   26  A    between atoms: C_35  and  C_36
REMARK   27  A    between atoms: C_39  and  N_51
REMARK   28  A    between atoms: C_41  and  O_43
REMARK   29  A    between atoms: C_44  and  O_46
REMARK   30  A    between atoms: O_46  and  P_47
REMARK   31  A    between atoms: P_47  and  O_48
REMARK   32  A    between atoms: P_47  and  O_49
REMARK                            x       y       z     vdW  Elec       q    Type
REMARK                         _______ _______ _______ _____ _____    ______ ____
ROOT
ATOM      1  O   UNL     1       3.370  -5.456  25.302  0.00  0.00    -0.186 OA
ENDROOT
BRANCH   1   2
ATOM      2  P   UNL     1       3.502  -6.364  23.997  0.00  0.00    +0.483 P 
ATOM      3  O   UNL     1       2.468  -6.210  22.946  0.00  0.00    -0.227 OA
BRANCH   2   4
ATOM      4  O   UNL     1       3.431  -7.866  24.559  0.00  0.00    -0.302 OA
ATOM      5  H   UNL     1       4.091  -7.936  25.286  0.00  0.00    +0.222 HD
ENDBRANCH   2   4
BRANCH   2   6
ATOM      6  O   UNL     1       4.991  -6.267  23.388  0.00  0.00    -0.284 OA
BRANCH   6   7
ATOM      7  C   UNL     1       5.301  -5.069  22.673  0.00  0.00    +0.206 C 
BRANCH   7   8
ATOM      8  C   UNL     1       5.837  -3.951  23.582  0.00  0.00    +0.179 C 
ATOM      9  C   UNL     1       6.762  -4.502  24.672  0.00  0.00    +0.194 C 
ATOM     10  C   UNL     1       8.144  -3.967  24.310  0.00  0.00    +0.196 C 
ATOM     11  C   UNL     1       7.948  -3.262  22.960  0.00  0.00    +0.253 C 
ATOM     12  O   UNL     1       6.556  -2.956  22.838  0.00  0.00    -0.346 OA
BRANCH  11  13
ATOM     13  N   UNL     1       8.738  -2.048  22.864  0.00  0.00    -0.286 N 
ATOM     14  C   UNL     1       8.750  -1.060  23.821  0.00  0.00    +0.167 A 
ATOM     15  N   UNL     1       8.121  -1.076  25.004  0.00  0.00    -0.216 NA
ATOM     16  C   UNL     1       8.381   0.056  25.688  0.00  0.00    +0.225 A 
ATOM     17  N   UNL     1       9.107   1.127  25.304  0.00  0.00    -0.219 NA
ATOM     18  C   UNL     1       9.711   1.090  24.093  0.00  0.00    +0.147 A 
ATOM     19  N   UNL     1      10.434   2.211  23.694  0.00  0.00    -0.341 N 
ATOM     20  H   UNL     1      10.540   2.282  22.689  0.00  0.00    +0.144 HD
ATOM     21  H   UNL     1      10.141   3.041  24.192  0.00  0.00    +0.144 HD
ATOM     22  C   UNL     1       9.540  -0.058  23.291  0.00  0.00    +0.147 A 
ATOM     23  N   UNL     1       9.986  -0.397  22.029  0.00  0.00    -0.231 NA
ATOM     24  C   UNL     1       9.492  -1.606  21.813  0.00  0.00    +0.203 A 
ENDBRANCH  11  13
BRANCH  10  25
ATOM     25  O   UNL     1       9.075  -5.050  24.206  0.00  0.00    -0.385 OA
ATOM     26  H   UNL     1       9.829  -4.763  23.652  0.00  0.00    +0.210 HD
ENDBRANCH  10  25
BRANCH   9  27
ATOM     27  O   UNL     1       6.325  -4.034  25.965  0.00  0.00    -0.278 OA
BRANCH  27  28
ATOM     28  P   UNL     1       6.793  -5.161  27.192  0.00  0.00    +0.473 P 
ATOM     29  O   UNL     1       7.213  -6.170  28.289  0.00  0.00    -0.228 OA
BRANCH  28  30
ATOM     30  O   UNL     1       5.390  -4.744  27.912  0.00  0.00    -0.303 OA
ATOM     31  H   UNL     1       5.377  -3.770  27.960  0.00  0.00    +0.222 HD
ENDBRANCH  28  30
BRANCH  28  32
ATOM     32  O   UNL     1       6.118  -6.308  26.242  0.00  0.00    -0.303 OA
ATOM     33  H   UNL     1       5.659  -6.966  26.797  0.00  0.00    +0.222 HD
ENDBRANCH  28  32
ENDBRANCH  27  28
ENDBRANCH   9  27
ENDBRANCH   7   8
ENDBRANCH   6   7
ENDBRANCH   2   6
ENDBRANCH   1   2
BRANCH   1  34
ATOM     34  P   UNL     1       2.474  -5.955  26.528  0.00  0.00    +0.483 P 
ATOM     35  O   UNL     1       3.164  -6.978  27.376  0.00  0.00    -0.227 OA
BRANCH  34  36
ATOM     36  O   UNL     1       1.236  -6.622  25.758  0.00  0.00    -0.302 OA
ATOM     37  H   UNL     1       0.845  -6.007  25.114  0.00  0.00    +0.222 HD
ENDBRANCH  34  36
BRANCH  34  38
ATOM     38  O   UNL     1       1.749  -4.709  27.229  0.00  0.00    -0.286 OA
BRANCH  38  39
ATOM     39  C   UNL     1       2.166  -4.050  28.436  0.00  0.00    +0.181 C 
BRANCH  39  40
ATOM     40  C   UNL     1       2.277  -2.497  28.448  0.00  0.00    +0.024 C 
ATOM     41  C   UNL     1       0.885  -1.906  28.747  0.00  0.00    +0.016 C 
ATOM     42  C   UNL     1       3.241  -2.017  29.540  0.00  0.00    +0.016 C 
BRANCH  40  43
ATOM     43  C   UNL     1       2.807  -1.913  27.088  0.00  0.00    +0.208 C 
BRANCH  43  46
ATOM     44  N   UNL     1       4.534  -0.154  26.926  0.00  0.00    -0.313 N 
ATOM     45  H   UNL     1       5.079  -0.924  26.546  0.00  0.00    +0.149 HD
ATOM     46  C   UNL     1       3.187  -0.407  27.114  0.00  0.00    +0.242 C 
ATOM     47  O   UNL     1       2.358   0.482  27.269  0.00  0.00    -0.273 OA
BRANCH  44  48
ATOM     48  C   UNL     1       5.090   1.195  26.854  0.00  0.00    +0.113 C 
BRANCH  48  49
ATOM     49  C   UNL     1       5.919   1.625  28.063  0.00  0.00    +0.114 C 
BRANCH  49  52
ATOM     50  N   UNL     1       7.094   3.217  26.593  0.00  0.00    -0.314 N 
ATOM     51  H   UNL     1       6.675   2.667  25.851  0.00  0.00    +0.149 HD
ATOM     52  C   UNL     1       6.802   2.843  27.884  0.00  0.00    +0.215 C 
ATOM     53  O   UNL     1       7.248   3.430  28.873  0.00  0.00    -0.276 OA
BRANCH  50  54
ATOM     54  C   UNL     1       7.932   4.330  26.171  0.00  0.00    +0.115 C 
BRANCH  54  55
ATOM     55  C   UNL     1       7.312   5.393  25.263  0.00  0.00    +0.096 C 
BRANCH  55  56
ATOM     56  S   UNL     1       8.336   5.689  23.799  0.00  0.00    -0.087 S 
BRANCH  56  57
ATOM     57  C   UNL     1       7.093   5.494  22.576  0.00  0.00    +0.192 C 
ATOM     58  O   UNL     1       7.194   6.112  21.516  0.00  0.00    -0.285 OA
BRANCH  57  59
ATOM     59  C   UNL     1       6.017   4.466  22.844  0.00  0.00    +0.117 C 
BRANCH  59  61
ATOM     60  C   UNL     1       7.514   2.721  21.654  0.00  0.00    +0.038 C 
ATOM     61  C   UNL     1       6.271   2.997  22.489  0.00  0.00    +0.119 C 
BRANCH  61  62
ATOM     62  O   UNL     1       6.462   2.307  23.736  0.00  0.00    -0.392 OA
ATOM     63  H   UNL     1       7.149   2.789  24.229  0.00  0.00    +0.210 HD
ENDBRANCH  61  62
ENDBRANCH  59  61
ENDBRANCH  57  59
ENDBRANCH  56  57
ENDBRANCH  55  56
ENDBRANCH  54  55
ENDBRANCH  50  54
ENDBRANCH  49  52
ENDBRANCH  48  49
ENDBRANCH  44  48
ENDBRANCH  43  46
BRANCH  43  64
ATOM     64  O   UNL     1       3.880  -2.690  26.544  0.00  0.00    -0.382 OA
ATOM     65  H   UNL     1       4.420  -2.971  27.303  0.00  0.00    +0.210 HD
ENDBRANCH  43  64
ENDBRANCH  40  43
ENDBRANCH  39  40
ENDBRANCH  38  39
ENDBRANCH  34  38
ENDBRANCH   1  34
TORSDOF 29
ENDMDL
