MODEL 1
REMARK VINA RESULT:      -6.1      0.000      0.000
REMARK  Name = 
REMARK  18 active torsions:
REMARK  status: ('A' for Active; 'I' for Inactive)
REMARK    1  A    between atoms: C_2  and  O_3
REMARK    2  A    between atoms: C_5  and  O_7
REMARK    3  A    between atoms: O_7  and  C_8
REMARK    4  A    between atoms: C_11  and  C_13
REMARK    5  A    between atoms: C_14  and  O_16
REMARK    6  A    between atoms: C_17  and  O_19
REMARK    7  A    between atoms: C_20  and  O_22
REMARK    8  A    between atoms: C_23  and  O_25
REMARK    9  A    between atoms: O_25  and  C_26
REMARK   10  A    between atoms: C_26  and  C_27
REMARK   11  A    between atoms: C_27  and  C_28
REMARK   12  A    between atoms: C_28  and  C_29
REMARK   13  A    between atoms: C_29  and  C_30
REMARK   14  A    between atoms: C_30  and  C_31
REMARK   15  A    between atoms: C_31  and  C_32
REMARK   16  A    between atoms: C_32  and  C_33
REMARK   17  A    between atoms: C_35  and  C_37
REMARK   18  A    between atoms: C_37  and  O_38
REMARK                            x       y       z     vdW  Elec       q    Type
REMARK                         _______ _______ _______ _____ _____    ______ ____
ROOT
ATOM      1  C   UNL     1       7.179  -3.357  26.747  0.00  0.00    +0.148 C 
ATOM      2  C   UNL     1       8.584  -3.863  26.365  0.00  0.00    +0.175 C 
ATOM      3  O   UNL     1       9.131  -3.246  25.184  0.00  0.00    -0.341 OA
ATOM      4  C   UNL     1       8.241  -3.098  24.064  0.00  0.00    +0.279 C 
ATOM      5  C   UNL     1       6.913  -2.391  24.458  0.00  0.00    +0.180 C 
ATOM      6  C   UNL     1       6.240  -3.201  25.560  0.00  0.00    +0.070 C 
ENDROOT
BRANCH   1   7
ATOM      7  O   UNL     1       6.574  -4.199  27.725  0.00  0.00    -0.389 OA
ATOM      8  H   UNL     1       5.627  -4.257  27.506  0.00  0.00    +0.210 HD
ENDBRANCH   1   7
BRANCH   5   9
ATOM      9  O   UNL     1       7.230  -1.050  24.842  0.00  0.00    -0.340 OA
BRANCH   9  10
ATOM     10  C   UNL     1       8.114  -0.258  24.042  0.00  0.00    +0.282 C 
ATOM     11  C   UNL     1       7.626   0.050  22.598  0.00  0.00    +0.201 C 
ATOM     12  C   UNL     1       8.755   0.733  21.812  0.00  0.00    +0.179 C 
ATOM     13  C   UNL     1       9.255   1.962  22.589  0.00  0.00    +0.174 C 
ATOM     14  C   UNL     1       9.639   1.602  24.042  0.00  0.00    +0.149 C 
ATOM     15  C   UNL     1      10.976   0.867  24.204  0.00  0.00    +0.041 C 
ATOM     16  O   UNL     1       8.569   0.912  24.726  0.00  0.00    -0.343 OA
BRANCH  13  17
ATOM     17  O   UNL     1      10.342   2.577  21.889  0.00  0.00    -0.387 OA
ATOM     18  H   UNL     1      10.084   2.603  20.947  0.00  0.00    +0.210 HD
ENDBRANCH  13  17
BRANCH  12  19
ATOM     19  O   UNL     1       9.867  -0.148  21.566  0.00  0.00    -0.386 OA
ATOM     20  H   UNL     1      10.589   0.090  22.172  0.00  0.00    +0.210 HD
ENDBRANCH  12  19
BRANCH  11  21
ATOM     21  O   UNL     1       6.495   0.935  22.588  0.00  0.00    -0.384 OA
ATOM     22  H   UNL     1       6.072   0.877  21.714  0.00  0.00    +0.210 HD
ENDBRANCH  11  21
ENDBRANCH   9  10
ENDBRANCH   5   9
BRANCH   4  23
ATOM     23  O   UNL     1       8.034  -4.355  23.408  0.00  0.00    -0.349 OA
BRANCH  23  24
ATOM     24  C   UNL     1       7.296  -4.224  22.191  0.00  0.00    +0.163 C 
BRANCH  24  25
ATOM     25  C   UNL     1       6.823  -5.581  21.691  0.00  0.00    +0.028 C 
BRANCH  25  26
ATOM     26  C   UNL     1       5.814  -6.241  22.632  0.00  0.00    +0.002 C 
BRANCH  26  27
ATOM     27  C   UNL     1       4.636  -5.304  22.900  0.00  0.00    +0.000 C 
BRANCH  27  28
ATOM     28  C   UNL     1       3.740  -5.831  24.020  0.00  0.00    -0.000 C 
BRANCH  28  29
ATOM     29  C   UNL     1       4.412  -7.001  24.738  0.00  0.00    -0.000 C 
BRANCH  29  30
ATOM     30  C   UNL     1       4.446  -6.792  26.249  0.00  0.00    -0.003 C 
ATOM     31  C   UNL     1       3.543  -5.639  26.659  0.00  0.00    +0.004 C 
ENDBRANCH  29  30
ENDBRANCH  28  29
ENDBRANCH  27  28
ENDBRANCH  26  27
ENDBRANCH  25  26
ENDBRANCH  24  25
ENDBRANCH  23  24
ENDBRANCH   4  23
BRANCH   2  32
ATOM     32  C   UNL     1       8.766  -5.388  26.311  0.00  0.00    +0.190 C 
BRANCH  32  33
ATOM     33  O   UNL     1       9.955  -5.699  25.565  0.00  0.00    -0.392 OA
ATOM     34  H   UNL     1       9.925  -6.663  25.415  0.00  0.00    +0.210 HD
ENDBRANCH  32  33
ENDBRANCH   2  32
TORSDOF 16
ENDMDL
MODEL 2
REMARK VINA RESULT:      -6.0      0.969      1.320
REMARK  Name = 
REMARK  18 active torsions:
REMARK  status: ('A' for Active; 'I' for Inactive)
REMARK    1  A    between atoms: C_2  and  O_3
REMARK    2  A    between atoms: C_5  and  O_7
REMARK    3  A    between atoms: O_7  and  C_8
REMARK    4  A    between atoms: C_11  and  C_13
REMARK    5  A    between atoms: C_14  and  O_16
REMARK    6  A    between atoms: C_17  and  O_19
REMARK    7  A    between atoms: C_20  and  O_22
REMARK    8  A    between atoms: C_23  and  O_25
REMARK    9  A    between atoms: O_25  and  C_26
REMARK   10  A    between atoms: C_26  and  C_27
REMARK   11  A    between atoms: C_27  and  C_28
REMARK   12  A    between atoms: C_28  and  C_29
REMARK   13  A    between atoms: C_29  and  C_30
REMARK   14  A    between atoms: C_30  and  C_31
REMARK   15  A    between atoms: C_31  and  C_32
REMARK   16  A    between atoms: C_32  and  C_33
REMARK   17  A    between atoms: C_35  and  C_37
REMARK   18  A    between atoms: C_37  and  O_38
REMARK                            x       y       z     vdW  Elec       q    Type
REMARK                         _______ _______ _______ _____ _____    ______ ____
ROOT
ATOM      1  C   UNL     1       6.442  -3.301  26.659  0.00  0.00    +0.148 C 
ATOM      2  C   UNL     1       7.808  -4.014  26.626  0.00  0.00    +0.175 C 
ATOM      3  O   UNL     1       8.696  -3.539  25.597  0.00  0.00    -0.341 OA
ATOM      4  C   UNL     1       8.118  -3.327  24.297  0.00  0.00    +0.279 C 
ATOM      5  C   UNL     1       6.853  -2.425  24.356  0.00  0.00    +0.180 C 
ATOM      6  C   UNL     1       5.834  -3.078  25.282  0.00  0.00    +0.070 C 
ENDROOT
BRANCH   1   7
ATOM      7  O   UNL     1       5.512  -4.002  27.481  0.00  0.00    -0.389 OA
ATOM      8  H   UNL     1       6.024  -4.620  28.031  0.00  0.00    +0.210 HD
ENDBRANCH   1   7
BRANCH   5   9
ATOM      9  O   UNL     1       7.265  -1.123  24.780  0.00  0.00    -0.340 OA
BRANCH   9  10
ATOM     10  C   UNL     1       8.154  -0.345  23.972  0.00  0.00    +0.282 C 
ATOM     11  C   UNL     1       7.677  -0.066  22.518  0.00  0.00    +0.201 C 
ATOM     12  C   UNL     1       8.810   0.603  21.728  0.00  0.00    +0.179 C 
ATOM     13  C   UNL     1       9.303   1.848  22.485  0.00  0.00    +0.174 C 
ATOM     14  C   UNL     1       9.676   1.516  23.947  0.00  0.00    +0.149 C 
ATOM     15  C   UNL     1      11.013   0.787  24.134  0.00  0.00    +0.041 C 
ATOM     16  O   UNL     1       8.602   0.839  24.636  0.00  0.00    -0.343 OA
BRANCH  13  17
ATOM     17  O   UNL     1      10.394   2.450  21.781  0.00  0.00    -0.387 OA
ATOM     18  H   UNL     1      11.069   1.753  21.669  0.00  0.00    +0.210 HD
ENDBRANCH  13  17
BRANCH  12  19
ATOM     19  O   UNL     1       9.925  -0.281  21.507  0.00  0.00    -0.386 OA
ATOM     20  H   UNL     1       9.978  -0.903  22.252  0.00  0.00    +0.210 HD
ENDBRANCH  12  19
BRANCH  11  21
ATOM     21  O   UNL     1       6.544   0.817  22.483  0.00  0.00    -0.384 OA
ATOM     22  H   UNL     1       6.823   1.682  22.833  0.00  0.00    +0.210 HD
ENDBRANCH  11  21
ENDBRANCH   9  10
ENDBRANCH   5   9
BRANCH   4  23
ATOM     23  O   UNL     1       7.887  -4.575  23.632  0.00  0.00    -0.349 OA
BRANCH  23  24
ATOM     24  C   UNL     1       7.389  -4.405  22.304  0.00  0.00    +0.163 C 
BRANCH  24  25
ATOM     25  C   UNL     1       6.489  -5.566  21.906  0.00  0.00    +0.028 C 
BRANCH  25  26
ATOM     26  C   UNL     1       5.086  -5.462  22.507  0.00  0.00    +0.002 C 
BRANCH  26  27
ATOM     27  C   UNL     1       4.947  -6.393  23.711  0.00  0.00    +0.000 C 
BRANCH  27  28
ATOM     28  C   UNL     1       3.491  -6.531  24.152  0.00  0.00    -0.000 C 
BRANCH  28  29
ATOM     29  C   UNL     1       2.622  -5.477  23.467  0.00  0.00    -0.000 C 
BRANCH  29  30
ATOM     30  C   UNL     1       1.587  -4.889  24.423  0.00  0.00    -0.003 C 
ATOM     31  C   UNL     1       2.166  -3.711  25.190  0.00  0.00    +0.004 C 
ENDBRANCH  29  30
ENDBRANCH  28  29
ENDBRANCH  27  28
ENDBRANCH  26  27
ENDBRANCH  25  26
ENDBRANCH  24  25
ENDBRANCH  23  24
ENDBRANCH   4  23
BRANCH   2  32
ATOM     32  C   UNL     1       7.773  -5.551  26.643  0.00  0.00    +0.190 C 
BRANCH  32  33
ATOM     33  O   UNL     1       7.522  -6.006  27.983  0.00  0.00    -0.392 OA
ATOM     34  H   UNL     1       6.606  -5.735  28.184  0.00  0.00    +0.210 HD
ENDBRANCH  32  33
ENDBRANCH   2  32
TORSDOF 16
ENDMDL
MODEL 3
REMARK VINA RESULT:      -5.9      2.608      8.334
REMARK  Name = 
REMARK  18 active torsions:
REMARK  status: ('A' for Active; 'I' for Inactive)
REMARK    1  A    between atoms: C_2  and  O_3
REMARK    2  A    between atoms: C_5  and  O_7
REMARK    3  A    between atoms: O_7  and  C_8
REMARK    4  A    between atoms: C_11  and  C_13
REMARK    5  A    between atoms: C_14  and  O_16
REMARK    6  A    between atoms: C_17  and  O_19
REMARK    7  A    between atoms: C_20  and  O_22
REMARK    8  A    between atoms: C_23  and  O_25
REMARK    9  A    between atoms: O_25  and  C_26
REMARK   10  A    between atoms: C_26  and  C_27
REMARK   11  A    between atoms: C_27  and  C_28
REMARK   12  A    between atoms: C_28  and  C_29
REMARK   13  A    between atoms: C_29  and  C_30
REMARK   14  A    between atoms: C_30  and  C_31
REMARK   15  A    between atoms: C_31  and  C_32
REMARK   16  A    between atoms: C_32  and  C_33
REMARK   17  A    between atoms: C_35  and  C_37
REMARK   18  A    between atoms: C_37  and  O_38
REMARK                            x       y       z     vdW  Elec       q    Type
REMARK                         _______ _______ _______ _____ _____    ______ ____
ROOT
ATOM      1  C   UNL     1       9.718  -1.596  22.719  0.00  0.00    +0.148 C 
ATOM      2  C   UNL     1       9.712  -0.288  23.534  0.00  0.00    +0.175 C 
ATOM      3  O   UNL     1       8.487  -0.047  24.252  0.00  0.00    -0.341 OA
ATOM      4  C   UNL     1       7.264  -0.293  23.536  0.00  0.00    +0.279 C 
ATOM      5  C   UNL     1       7.229  -1.712  22.902  0.00  0.00    +0.180 C 
ATOM      6  C   UNL     1       8.422  -1.854  21.964  0.00  0.00    +0.070 C 
ENDROOT
BRANCH   1   7
ATOM      7  O   UNL     1      10.814  -1.633  21.809  0.00  0.00    -0.389 OA
ATOM      8  H   UNL     1      11.537  -1.117  22.208  0.00  0.00    +0.210 HD
ENDBRANCH   1   7
BRANCH   5   9
ATOM      9  O   UNL     1       7.218  -2.666  23.968  0.00  0.00    -0.340 OA
BRANCH   9  10
ATOM     10  C   UNL     1       6.313  -3.774  23.939  0.00  0.00    +0.282 C 
ATOM     11  C   UNL     1       6.124  -4.457  22.554  0.00  0.00    +0.201 C 
ATOM     12  C   UNL     1       4.991  -5.489  22.643  0.00  0.00    +0.179 C 
ATOM     13  C   UNL     1       5.270  -6.464  23.799  0.00  0.00    +0.174 C 
ATOM     14  C   UNL     1       5.536  -5.716  25.126  0.00  0.00    +0.149 C 
ATOM     15  C   UNL     1       4.291  -5.142  25.816  0.00  0.00    +0.041 C 
ATOM     16  O   UNL     1       6.570  -4.717  24.982  0.00  0.00    -0.343 OA
BRANCH  13  17
ATOM     17  O   UNL     1       4.194  -7.400  23.923  0.00  0.00    -0.387 OA
ATOM     18  H   UNL     1       3.518  -7.131  23.271  0.00  0.00    +0.210 HD
ENDBRANCH  13  17
BRANCH  12  19
ATOM     19  O   UNL     1       3.703  -4.878  22.848  0.00  0.00    -0.386 OA
ATOM     20  H   UNL     1       3.024  -5.573  22.820  0.00  0.00    +0.210 HD
ENDBRANCH  12  19
BRANCH  11  21
ATOM     21  O   UNL     1       7.309  -5.151  22.129  0.00  0.00    -0.384 OA
ATOM     22  H   UNL     1       7.056  -6.056  21.877  0.00  0.00    +0.210 HD
ENDBRANCH  11  21
ENDBRANCH   9  10
ENDBRANCH   5   9
BRANCH   4  23
ATOM     23  O   UNL     1       7.008   0.751  22.589  0.00  0.00    -0.349 OA
BRANCH  23  24
ATOM     24  C   UNL     1       6.717   2.002  23.216  0.00  0.00    +0.163 C 
BRANCH  24  25
ATOM     25  C   UNL     1       6.566   3.108  22.183  0.00  0.00    +0.028 C 
BRANCH  25  26
ATOM     26  C   UNL     1       7.509   4.286  22.432  0.00  0.00    +0.002 C 
BRANCH  26  27
ATOM     27  C   UNL     1       8.355   4.044  23.681  0.00  0.00    +0.000 C 
BRANCH  27  28
ATOM     28  C   UNL     1       8.681   5.349  24.405  0.00  0.00    -0.000 C 
BRANCH  28  29
ATOM     29  C   UNL     1       9.729   6.145  23.628  0.00  0.00    -0.000 C 
BRANCH  29  30
ATOM     30  C   UNL     1      11.082   5.439  23.618  0.00  0.00    -0.003 C 
ATOM     31  C   UNL     1      12.121   6.246  24.381  0.00  0.00    +0.004 C 
ENDBRANCH  29  30
ENDBRANCH  28  29
ENDBRANCH  27  28
ENDBRANCH  26  27
ENDBRANCH  25  26
ENDBRANCH  24  25
ENDBRANCH  23  24
ENDBRANCH   4  23
BRANCH   2  32
ATOM     32  C   UNL     1      10.160   0.980  22.789  0.00  0.00    +0.190 C 
BRANCH  32  33
ATOM     33  O   UNL     1       9.646   0.949  21.447  0.00  0.00    -0.392 OA
ATOM     34  H   UNL     1       9.648   1.877  21.145  0.00  0.00    +0.210 HD
ENDBRANCH  32  33
ENDBRANCH   2  32
TORSDOF 16
ENDMDL
MODEL 4
REMARK VINA RESULT:      -5.9      2.418      8.396
REMARK  Name = 
REMARK  18 active torsions:
REMARK  status: ('A' for Active; 'I' for Inactive)
REMARK    1  A    between atoms: C_2  and  O_3
REMARK    2  A    between atoms: C_5  and  O_7
REMARK    3  A    between atoms: O_7  and  C_8
REMARK    4  A    between atoms: C_11  and  C_13
REMARK    5  A    between atoms: C_14  and  O_16
REMARK    6  A    between atoms: C_17  and  O_19
REMARK    7  A    between atoms: C_20  and  O_22
REMARK    8  A    between atoms: C_23  and  O_25
REMARK    9  A    between atoms: O_25  and  C_26
REMARK   10  A    between atoms: C_26  and  C_27
REMARK   11  A    between atoms: C_27  and  C_28
REMARK   12  A    between atoms: C_28  and  C_29
REMARK   13  A    between atoms: C_29  and  C_30
REMARK   14  A    between atoms: C_30  and  C_31
REMARK   15  A    between atoms: C_31  and  C_32
REMARK   16  A    between atoms: C_32  and  C_33
REMARK   17  A    between atoms: C_35  and  C_37
REMARK   18  A    between atoms: C_37  and  O_38
REMARK                            x       y       z     vdW  Elec       q    Type
REMARK                         _______ _______ _______ _____ _____    ______ ____
ROOT
ATOM      1  C   UNL     1       9.592  -1.148  22.697  0.00  0.00    +0.148 C 
ATOM      2  C   UNL     1       9.871   0.309  23.117  0.00  0.00    +0.175 C 
ATOM      3  O   UNL     1       9.000   0.799  24.154  0.00  0.00    -0.341 OA
ATOM      4  C   UNL     1       7.602   0.489  24.019  0.00  0.00    +0.279 C 
ATOM      5  C   UNL     1       7.355  -1.031  23.802  0.00  0.00    +0.180 C 
ATOM      6  C   UNL     1       8.112  -1.473  22.556  0.00  0.00    +0.070 C 
ENDROOT
BRANCH   1   7
ATOM      7  O   UNL     1      10.268  -1.475  21.484  0.00  0.00    -0.389 OA
ATOM      8  H   UNL     1      10.651  -0.650  21.139  0.00  0.00    +0.210 HD
ENDBRANCH   1   7
BRANCH   5   9
ATOM      9  O   UNL     1       7.759  -1.713  24.993  0.00  0.00    -0.340 OA
BRANCH   9  10
ATOM     10  C   UNL     1       7.326  -3.054  25.243  0.00  0.00    +0.282 C 
ATOM     11  C   UNL     1       7.218  -3.462  26.740  0.00  0.00    +0.201 C 
ATOM     12  C   UNL     1       6.935  -4.967  26.840  0.00  0.00    +0.179 C 
ATOM     13  C   UNL     1       5.698  -5.317  25.996  0.00  0.00    +0.174 C 
ATOM     14  C   UNL     1       5.834  -4.805  24.544  0.00  0.00    +0.149 C 
ATOM     15  C   UNL     1       6.768  -5.626  23.645  0.00  0.00    +0.041 C 
ATOM     16  O   UNL     1       6.155  -3.397  24.498  0.00  0.00    -0.343 OA
BRANCH  13  17
ATOM     17  O   UNL     1       5.455  -6.727  26.043  0.00  0.00    -0.387 OA
ATOM     18  H   UNL     1       6.267  -7.158  25.711  0.00  0.00    +0.210 HD
ENDBRANCH  13  17
BRANCH  12  19
ATOM     19  O   UNL     1       8.045  -5.769  26.396  0.00  0.00    -0.386 OA
ATOM     20  H   UNL     1       8.341  -5.435  25.532  0.00  0.00    +0.210 HD
ENDBRANCH  12  19
BRANCH  11  21
ATOM     21  O   UNL     1       6.150  -2.774  27.411  0.00  0.00    -0.384 OA
ATOM     22  H   UNL     1       6.530  -2.272  28.153  0.00  0.00    +0.210 HD
ENDBRANCH  11  21
ENDBRANCH   9  10
ENDBRANCH   5   9
BRANCH   4  23
ATOM     23  O   UNL     1       6.993   1.305  23.012  0.00  0.00    -0.349 OA
BRANCH  23  24
ATOM     24  C   UNL     1       6.944   2.686  23.379  0.00  0.00    +0.163 C 
BRANCH  24  25
ATOM     25  C   UNL     1       6.844   3.575  22.149  0.00  0.00    +0.028 C 
BRANCH  25  26
ATOM     26  C   UNL     1       7.394   4.982  22.387  0.00  0.00    +0.002 C 
BRANCH  26  27
ATOM     27  C   UNL     1       8.470   4.962  23.472  0.00  0.00    +0.000 C 
BRANCH  27  28
ATOM     28  C   UNL     1       9.243   6.280  23.525  0.00  0.00    -0.000 C 
BRANCH  28  29
ATOM     29  C   UNL     1      10.649   6.053  24.078  0.00  0.00    -0.000 C 
BRANCH  29  30
ATOM     30  C   UNL     1      11.303   4.815  23.471  0.00  0.00    -0.003 C 
ATOM     31  C   UNL     1      12.774   5.065  23.180  0.00  0.00    +0.004 C 
ENDBRANCH  29  30
ENDBRANCH  28  29
ENDBRANCH  27  28
ENDBRANCH  26  27
ENDBRANCH  25  26
ENDBRANCH  24  25
ENDBRANCH  23  24
ENDBRANCH   4  23
BRANCH   2  32
ATOM     32  C   UNL     1       9.986   1.335  21.979  0.00  0.00    +0.190 C 
BRANCH  32  33
ATOM     33  O   UNL     1       9.017   1.029  20.963  0.00  0.00    -0.392 OA
ATOM     34  H   UNL     1       9.159   0.089  20.740  0.00  0.00    +0.210 HD
ENDBRANCH  32  33
ENDBRANCH   2  32
TORSDOF 16
ENDMDL
MODEL 5
REMARK VINA RESULT:      -5.8      1.295      2.165
REMARK  Name = 
REMARK  18 active torsions:
REMARK  status: ('A' for Active; 'I' for Inactive)
REMARK    1  A    between atoms: C_2  and  O_3
REMARK    2  A    between atoms: C_5  and  O_7
REMARK    3  A    between atoms: O_7  and  C_8
REMARK    4  A    between atoms: C_11  and  C_13
REMARK    5  A    between atoms: C_14  and  O_16
REMARK    6  A    between atoms: C_17  and  O_19
REMARK    7  A    between atoms: C_20  and  O_22
REMARK    8  A    between atoms: C_23  and  O_25
REMARK    9  A    between atoms: O_25  and  C_26
REMARK   10  A    between atoms: C_26  and  C_27
REMARK   11  A    between atoms: C_27  and  C_28
REMARK   12  A    between atoms: C_28  and  C_29
REMARK   13  A    between atoms: C_29  and  C_30
REMARK   14  A    between atoms: C_30  and  C_31
REMARK   15  A    between atoms: C_31  and  C_32
REMARK   16  A    between atoms: C_32  and  C_33
REMARK   17  A    between atoms: C_35  and  C_37
REMARK   18  A    between atoms: C_37  and  O_38
REMARK                            x       y       z     vdW  Elec       q    Type
REMARK                         _______ _______ _______ _____ _____    ______ ____
ROOT
ATOM      1  C   UNL     1       7.406  -2.572  26.221  0.00  0.00    +0.148 C 
ATOM      2  C   UNL     1       8.025  -3.950  26.531  0.00  0.00    +0.175 C 
ATOM      3  O   UNL     1       8.978  -4.402  25.551  0.00  0.00    -0.341 OA
ATOM      4  C   UNL     1       8.614  -4.225  24.171  0.00  0.00    +0.279 C 
ATOM      5  C   UNL     1       8.193  -2.761  23.857  0.00  0.00    +0.180 C 
ATOM      6  C   UNL     1       7.023  -2.388  24.760  0.00  0.00    +0.070 C 
ENDROOT
BRANCH   1   7
ATOM      7  O   UNL     1       6.271  -2.317  27.046  0.00  0.00    -0.389 OA
ATOM      8  H   UNL     1       5.522  -2.805  26.661  0.00  0.00    +0.210 HD
ENDBRANCH   1   7
BRANCH   5   9
ATOM      9  O   UNL     1       9.343  -1.929  24.033  0.00  0.00    -0.340 OA
BRANCH   9  10
ATOM     10  C   UNL     1       9.283  -0.534  23.722  0.00  0.00    +0.282 C 
ATOM     11  C   UNL     1       9.420   0.435  24.931  0.00  0.00    +0.201 C 
ATOM     12  C   UNL     1       9.142   1.872  24.468  0.00  0.00    +0.179 C 
ATOM     13  C   UNL     1      10.049   2.214  23.273  0.00  0.00    +0.174 C 
ATOM     14  C   UNL     1       9.929   1.164  22.146  0.00  0.00    +0.149 C 
ATOM     15  C   UNL     1       8.655   1.256  21.296  0.00  0.00    +0.041 C 
ATOM     16  O   UNL     1      10.143  -0.178  22.637  0.00  0.00    -0.343 OA
BRANCH  13  17
ATOM     17  O   UNL     1       9.762   3.535  22.802  0.00  0.00    -0.387 OA
ATOM     18  H   UNL     1       8.985   3.846  23.306  0.00  0.00    +0.210 HD
ENDBRANCH  13  17
BRANCH  12  19
ATOM     19  O   UNL     1       7.769   2.073  24.084  0.00  0.00    -0.386 OA
ATOM     20  H   UNL     1       7.214   1.452  24.584  0.00  0.00    +0.210 HD
ENDBRANCH  12  19
BRANCH  11  21
ATOM     21  O   UNL     1      10.741   0.410  25.495  0.00  0.00    -0.384 OA
ATOM     22  H   UNL     1      10.938   1.295  25.847  0.00  0.00    +0.210 HD
ENDBRANCH  11  21
ENDBRANCH   9  10
ENDBRANCH   5   9
BRANCH   4  23
ATOM     23  O   UNL     1       7.631  -5.188  23.775  0.00  0.00    -0.349 OA
BRANCH  23  24
ATOM     24  C   UNL     1       7.399  -5.189  22.365  0.00  0.00    +0.163 C 
BRANCH  24  25
ATOM     25  C   UNL     1       5.970  -5.604  22.046  0.00  0.00    +0.028 C 
BRANCH  25  26
ATOM     26  C   UNL     1       4.932  -4.830  22.861  0.00  0.00    +0.002 C 
BRANCH  26  27
ATOM     27  C   UNL     1       3.897  -5.783  23.456  0.00  0.00    +0.000 C 
BRANCH  27  28
ATOM     28  C   UNL     1       4.554  -6.879  24.294  0.00  0.00    -0.000 C 
BRANCH  28  29
ATOM     29  C   UNL     1       3.611  -7.343  25.404  0.00  0.00    -0.000 C 
BRANCH  29  30
ATOM     30  C   UNL     1       3.388  -6.252  26.448  0.00  0.00    -0.003 C 
ATOM     31  C   UNL     1       1.903  -6.008  26.669  0.00  0.00    +0.004 C 
ENDBRANCH  29  30
ENDBRANCH  28  29
ENDBRANCH  27  28
ENDBRANCH  26  27
ENDBRANCH  25  26
ENDBRANCH  24  25
ENDBRANCH  23  24
ENDBRANCH   4  23
BRANCH   2  32
ATOM     32  C   UNL     1       7.038  -5.075  26.884  0.00  0.00    +0.190 C 
BRANCH  32  33
ATOM     33  O   UNL     1       7.702  -6.049  27.706  0.00  0.00    -0.392 OA
ATOM     34  H   UNL     1       7.923  -5.585  28.535  0.00  0.00    +0.210 HD
ENDBRANCH  32  33
ENDBRANCH   2  32
TORSDOF 16
ENDMDL
MODEL 6
REMARK VINA RESULT:      -5.8      2.320      7.687
REMARK  Name = 
REMARK  18 active torsions:
REMARK  status: ('A' for Active; 'I' for Inactive)
REMARK    1  A    between atoms: C_2  and  O_3
REMARK    2  A    between atoms: C_5  and  O_7
REMARK    3  A    between atoms: O_7  and  C_8
REMARK    4  A    between atoms: C_11  and  C_13
REMARK    5  A    between atoms: C_14  and  O_16
REMARK    6  A    between atoms: C_17  and  O_19
REMARK    7  A    between atoms: C_20  and  O_22
REMARK    8  A    between atoms: C_23  and  O_25
REMARK    9  A    between atoms: O_25  and  C_26
REMARK   10  A    between atoms: C_26  and  C_27
REMARK   11  A    between atoms: C_27  and  C_28
REMARK   12  A    between atoms: C_28  and  C_29
REMARK   13  A    between atoms: C_29  and  C_30
REMARK   14  A    between atoms: C_30  and  C_31
REMARK   15  A    between atoms: C_31  and  C_32
REMARK   16  A    between atoms: C_32  and  C_33
REMARK   17  A    between atoms: C_35  and  C_37
REMARK   18  A    between atoms: C_37  and  O_38
REMARK                            x       y       z     vdW  Elec       q    Type
REMARK                         _______ _______ _______ _____ _____    ______ ____
ROOT
ATOM      1  C   UNL     1       8.588  -1.150  26.581  0.00  0.00    +0.148 C 
ATOM      2  C   UNL     1       7.129  -0.672  26.432  0.00  0.00    +0.175 C 
ATOM      3  O   UNL     1       6.460  -1.181  25.263  0.00  0.00    -0.341 OA
ATOM      4  C   UNL     1       7.207  -1.162  24.034  0.00  0.00    +0.279 C 
ATOM      5  C   UNL     1       8.597  -1.844  24.181  0.00  0.00    +0.180 C 
ATOM      6  C   UNL     1       9.375  -1.129  25.278  0.00  0.00    +0.070 C 
ENDROOT
BRANCH   1   7
ATOM      7  O   UNL     1       9.282  -0.391  27.568  0.00  0.00    -0.389 OA
ATOM      8  H   UNL     1       9.784   0.299  27.099  0.00  0.00    +0.210 HD
ENDBRANCH   1   7
BRANCH   5   9
ATOM      9  O   UNL     1       8.375  -3.233  24.443  0.00  0.00    -0.340 OA
BRANCH   9  10
ATOM     10  C   UNL     1       7.241  -3.904  23.885  0.00  0.00    +0.282 C 
ATOM     11  C   UNL     1       7.525  -4.789  22.638  0.00  0.00    +0.201 C 
ATOM     12  C   UNL     1       6.197  -5.279  22.046  0.00  0.00    +0.179 C 
ATOM     13  C   UNL     1       5.367  -5.971  23.141  0.00  0.00    +0.174 C 
ATOM     14  C   UNL     1       5.199  -5.071  24.385  0.00  0.00    +0.149 C 
ATOM     15  C   UNL     1       4.182  -3.931  24.237  0.00  0.00    +0.041 C 
ATOM     16  O   UNL     1       6.469  -4.587  24.876  0.00  0.00    -0.343 OA
BRANCH  13  17
ATOM     17  O   UNL     1       4.104  -6.387  22.611  0.00  0.00    -0.387 OA
ATOM     18  H   UNL     1       3.461  -5.692  22.851  0.00  0.00    +0.210 HD
ENDBRANCH  13  17
BRANCH  12  19
ATOM     19  O   UNL     1       5.418  -4.210  21.477  0.00  0.00    -0.386 OA
ATOM     20  H   UNL     1       4.730  -3.955  22.116  0.00  0.00    +0.210 HD
ENDBRANCH  12  19
BRANCH  11  21
ATOM     21  O   UNL     1       8.307  -5.949  22.967  0.00  0.00    -0.384 OA
ATOM     22  H   UNL     1       7.996  -6.291  23.823  0.00  0.00    +0.210 HD
ENDBRANCH  11  21
ENDBRANCH   9  10
ENDBRANCH   5   9
BRANCH   4  23
ATOM     23  O   UNL     1       7.287   0.167  23.507  0.00  0.00    -0.349 OA
BRANCH  23  24
ATOM     24  C   UNL     1       7.925   0.213  22.228  0.00  0.00    +0.163 C 
BRANCH  24  25
ATOM     25  C   UNL     1       8.309   1.639  21.860  0.00  0.00    +0.028 C 
BRANCH  25  26
ATOM     26  C   UNL     1       9.818   1.878  21.908  0.00  0.00    +0.002 C 
BRANCH  26  27
ATOM     27  C   UNL     1      10.304   1.971  23.354  0.00  0.00    +0.000 C 
BRANCH  27  28
ATOM     28  C   UNL     1      11.309   3.106  23.540  0.00  0.00    -0.000 C 
BRANCH  28  29
ATOM     29  C   UNL     1      10.583   4.438  23.728  0.00  0.00    -0.000 C 
BRANCH  29  30
ATOM     30  C   UNL     1      11.555   5.614  23.739  0.00  0.00    -0.003 C 
ATOM     31  C   UNL     1      12.831   5.271  22.985  0.00  0.00    +0.004 C 
ENDBRANCH  29  30
ENDBRANCH  28  29
ENDBRANCH  27  28
ENDBRANCH  26  27
ENDBRANCH  25  26
ENDBRANCH  24  25
ENDBRANCH  23  24
ENDBRANCH   4  23
BRANCH   2  32
ATOM     32  C   UNL     1       6.891   0.840  26.576  0.00  0.00    +0.190 C 
BRANCH  32  33
ATOM     33  O   UNL     1       8.020   1.552  26.043  0.00  0.00    -0.392 OA
ATOM     34  H   UNL     1       7.858   1.619  25.083  0.00  0.00    +0.210 HD
ENDBRANCH  32  33
ENDBRANCH   2  32
TORSDOF 16
ENDMDL
MODEL 7
REMARK VINA RESULT:      -5.7      2.018      4.243
REMARK  Name = 
REMARK  18 active torsions:
REMARK  status: ('A' for Active; 'I' for Inactive)
REMARK    1  A    between atoms: C_2  and  O_3
REMARK    2  A    between atoms: C_5  and  O_7
REMARK    3  A    between atoms: O_7  and  C_8
REMARK    4  A    between atoms: C_11  and  C_13
REMARK    5  A    between atoms: C_14  and  O_16
REMARK    6  A    between atoms: C_17  and  O_19
REMARK    7  A    between atoms: C_20  and  O_22
REMARK    8  A    between atoms: C_23  and  O_25
REMARK    9  A    between atoms: O_25  and  C_26
REMARK   10  A    between atoms: C_26  and  C_27
REMARK   11  A    between atoms: C_27  and  C_28
REMARK   12  A    between atoms: C_28  and  C_29
REMARK   13  A    between atoms: C_29  and  C_30
REMARK   14  A    between atoms: C_30  and  C_31
REMARK   15  A    between atoms: C_31  and  C_32
REMARK   16  A    between atoms: C_32  and  C_33
REMARK   17  A    between atoms: C_35  and  C_37
REMARK   18  A    between atoms: C_37  and  O_38
REMARK                            x       y       z     vdW  Elec       q    Type
REMARK                         _______ _______ _______ _____ _____    ______ ____
ROOT
ATOM      1  C   UNL     1       5.814  -5.369  21.790  0.00  0.00    +0.148 C 
ATOM      2  C   UNL     1       4.831  -4.970  22.909  0.00  0.00    +0.175 C 
ATOM      3  O   UNL     1       5.391  -4.083  23.895  0.00  0.00    -0.341 OA
ATOM      4  C   UNL     1       6.713  -4.398  24.366  0.00  0.00    +0.279 C 
ATOM      5  C   UNL     1       7.723  -4.588  23.199  0.00  0.00    +0.180 C 
ATOM      6  C   UNL     1       7.212  -5.700  22.292  0.00  0.00    +0.070 C 
ENDROOT
BRANCH   1   7
ATOM      7  O   UNL     1       5.312  -6.462  21.025  0.00  0.00    -0.389 OA
ATOM      8  H   UNL     1       4.960  -7.115  21.656  0.00  0.00    +0.210 HD
ENDBRANCH   1   7
BRANCH   5   9
ATOM      9  O   UNL     1       7.869  -3.327  22.539  0.00  0.00    -0.340 OA
BRANCH   9  10
ATOM     10  C   UNL     1       8.222  -2.157  23.283  0.00  0.00    +0.282 C 
ATOM     11  C   UNL     1       9.709  -2.063  23.731  0.00  0.00    +0.201 C 
ATOM     12  C   UNL     1       9.883  -0.864  24.673  0.00  0.00    +0.179 C 
ATOM     13  C   UNL     1       9.342   0.407  23.997  0.00  0.00    +0.174 C 
ATOM     14  C   UNL     1       7.892   0.215  23.497  0.00  0.00    +0.149 C 
ATOM     15  C   UNL     1       6.813   0.250  24.588  0.00  0.00    +0.041 C 
ATOM     16  O   UNL     1       7.762  -0.955  22.660  0.00  0.00    -0.343 OA
BRANCH  13  17
ATOM     17  O   UNL     1       9.455   1.523  24.887  0.00  0.00    -0.387 OA
ATOM     18  H   UNL     1       8.835   2.203  24.557  0.00  0.00    +0.210 HD
ENDBRANCH  13  17
BRANCH  12  19
ATOM     19  O   UNL     1       9.208  -1.047  25.931  0.00  0.00    -0.386 OA
ATOM     20  H   UNL     1       9.874  -1.216  26.618  0.00  0.00    +0.210 HD
ENDBRANCH  12  19
BRANCH  11  21
ATOM     21  O   UNL     1      10.596  -1.872  22.617  0.00  0.00    -0.384 OA
ATOM     22  H   UNL     1      10.617  -2.697  22.101  0.00  0.00    +0.210 HD
ENDBRANCH  11  21
ENDBRANCH   9  10
ENDBRANCH   5   9
BRANCH   4  23
ATOM     23  O   UNL     1       6.682  -5.510  25.268  0.00  0.00    -0.349 OA
BRANCH  23  24
ATOM     24  C   UNL     1       7.243  -5.198  26.545  0.00  0.00    +0.163 C 
BRANCH  24  25
ATOM     25  C   UNL     1       6.279  -5.555  27.667  0.00  0.00    +0.028 C 
BRANCH  25  26
ATOM     26  C   UNL     1       5.144  -6.469  27.205  0.00  0.00    +0.002 C 
BRANCH  26  27
ATOM     27  C   UNL     1       3.804  -5.737  27.270  0.00  0.00    +0.000 C 
BRANCH  27  28
ATOM     28  C   UNL     1       3.978  -4.276  27.680  0.00  0.00    -0.000 C 
BRANCH  28  29
ATOM     29  C   UNL     1       3.211  -3.358  26.730  0.00  0.00    -0.000 C 
BRANCH  29  30
ATOM     30  C   UNL     1       4.032  -2.131  26.342  0.00  0.00    -0.003 C 
ATOM     31  C   UNL     1       5.274  -2.012  27.213  0.00  0.00    +0.004 C 
ENDBRANCH  29  30
ENDBRANCH  28  29
ENDBRANCH  27  28
ENDBRANCH  26  27
ENDBRANCH  25  26
ENDBRANCH  24  25
ENDBRANCH  23  24
ENDBRANCH   4  23
BRANCH   2  32
ATOM     32  C   UNL     1       4.069  -6.120  23.586  0.00  0.00    +0.190 C 
BRANCH  32  33
ATOM     33  O   UNL     1       4.917  -7.279  23.651  0.00  0.00    -0.392 OA
ATOM     34  H   UNL     1       4.751  -7.770  22.824  0.00  0.00    +0.210 HD
ENDBRANCH  32  33
ENDBRANCH   2  32
TORSDOF 16
ENDMDL
MODEL 8
REMARK VINA RESULT:      -5.7      2.577      8.265
REMARK  Name = 
REMARK  18 active torsions:
REMARK  status: ('A' for Active; 'I' for Inactive)
REMARK    1  A    between atoms: C_2  and  O_3
REMARK    2  A    between atoms: C_5  and  O_7
REMARK    3  A    between atoms: O_7  and  C_8
REMARK    4  A    between atoms: C_11  and  C_13
REMARK    5  A    between atoms: C_14  and  O_16
REMARK    6  A    between atoms: C_17  and  O_19
REMARK    7  A    between atoms: C_20  and  O_22
REMARK    8  A    between atoms: C_23  and  O_25
REMARK    9  A    between atoms: O_25  and  C_26
REMARK   10  A    between atoms: C_26  and  C_27
REMARK   11  A    between atoms: C_27  and  C_28
REMARK   12  A    between atoms: C_28  and  C_29
REMARK   13  A    between atoms: C_29  and  C_30
REMARK   14  A    between atoms: C_30  and  C_31
REMARK   15  A    between atoms: C_31  and  C_32
REMARK   16  A    between atoms: C_32  and  C_33
REMARK   17  A    between atoms: C_35  and  C_37
REMARK   18  A    between atoms: C_37  and  O_38
REMARK                            x       y       z     vdW  Elec       q    Type
REMARK                         _______ _______ _______ _____ _____    ______ ____
ROOT
ATOM      1  C   UNL     1       8.693  -2.454  24.109  0.00  0.00    +0.148 C 
ATOM      2  C   UNL     1       8.887  -1.022  24.644  0.00  0.00    +0.175 C 
ATOM      3  O   UNL     1       7.741  -0.168  24.471  0.00  0.00    -0.341 OA
ATOM      4  C   UNL     1       7.082  -0.228  23.194  0.00  0.00    +0.279 C 
ATOM      5  C   UNL     1       6.717  -1.684  22.788  0.00  0.00    +0.180 C 
ATOM      6  C   UNL     1       7.995  -2.514  22.758  0.00  0.00    +0.070 C 
ENDROOT
BRANCH   1   7
ATOM      7  O   UNL     1       9.935  -3.151  24.033  0.00  0.00    -0.389 OA
ATOM      8  H   UNL     1      10.219  -3.131  23.102  0.00  0.00    +0.210 HD
ENDBRANCH   1   7
BRANCH   5   9
ATOM      9  O   UNL     1       5.741  -2.164  23.717  0.00  0.00    -0.340 OA
BRANCH   9  10
ATOM     10  C   UNL     1       5.451  -3.563  23.805  0.00  0.00    +0.282 C 
ATOM     11  C   UNL     1       4.620  -4.004  25.044  0.00  0.00    +0.201 C 
ATOM     12  C   UNL     1       4.559  -5.536  25.098  0.00  0.00    +0.179 C 
ATOM     13  C   UNL     1       4.038  -6.081  23.758  0.00  0.00    +0.174 C 
ATOM     14  C   UNL     1       4.852  -5.533  22.564  0.00  0.00    +0.149 C 
ATOM     15  C   UNL     1       6.234  -6.169  22.366  0.00  0.00    +0.041 C 
ATOM     16  O   UNL     1       4.931  -4.090  22.583  0.00  0.00    -0.343 OA
BRANCH  13  17
ATOM     17  O   UNL     1       4.025  -7.512  23.780  0.00  0.00    -0.387 OA
ATOM     18  H   UNL     1       3.827  -7.801  22.868  0.00  0.00    +0.210 HD
ENDBRANCH  13  17
BRANCH  12  19
ATOM     19  O   UNL     1       5.841  -6.131  25.376  0.00  0.00    -0.386 OA
ATOM     20  H   UNL     1       6.142  -6.601  24.580  0.00  0.00    +0.210 HD
ENDBRANCH  12  19
BRANCH  11  21
ATOM     21  O   UNL     1       3.269  -3.518  24.988  0.00  0.00    -0.384 OA
ATOM     22  H   UNL     1       3.087  -3.231  24.076  0.00  0.00    +0.210 HD
ENDBRANCH  11  21
ENDBRANCH   9  10
ENDBRANCH   5   9
BRANCH   4  23
ATOM     23  O   UNL     1       7.844   0.459  22.194  0.00  0.00    -0.349 OA
BRANCH  23  24
ATOM     24  C   UNL     1       7.414   1.809  22.006  0.00  0.00    +0.163 C 
BRANCH  24  25
ATOM     25  C   UNL     1       8.528   2.788  22.344  0.00  0.00    +0.028 C 
BRANCH  25  26
ATOM     26  C   UNL     1       8.144   3.764  23.457  0.00  0.00    +0.002 C 
BRANCH  26  27
ATOM     27  C   UNL     1       9.342   4.045  24.363  0.00  0.00    +0.000 C 
BRANCH  27  28
ATOM     28  C   UNL     1      10.315   5.033  23.722  0.00  0.00    -0.000 C 
BRANCH  28  29
ATOM     29  C   UNL     1      11.642   4.345  23.400  0.00  0.00    -0.000 C 
BRANCH  29  30
ATOM     30  C   UNL     1      12.807   5.331  23.411  0.00  0.00    -0.003 C 
ATOM     31  C   UNL     1      13.293   5.612  21.997  0.00  0.00    +0.004 C 
ENDBRANCH  29  30
ENDBRANCH  28  29
ENDBRANCH  27  28
ENDBRANCH  26  27
ENDBRANCH  25  26
ENDBRANCH  24  25
ENDBRANCH  23  24
ENDBRANCH   4  23
BRANCH   2  32
ATOM     32  C   UNL     1      10.171  -0.299  24.204  0.00  0.00    +0.190 C 
BRANCH  32  33
ATOM     33  O   UNL     1      10.442   0.782  25.111  0.00  0.00    -0.392 OA
ATOM     34  H   UNL     1      11.414   0.865  25.136  0.00  0.00    +0.210 HD
ENDBRANCH  32  33
ENDBRANCH   2  32
TORSDOF 16
ENDMDL
MODEL 9
REMARK VINA RESULT:      -5.7      2.435      8.300
REMARK  Name = 
REMARK  18 active torsions:
REMARK  status: ('A' for Active; 'I' for Inactive)
REMARK    1  A    between atoms: C_2  and  O_3
REMARK    2  A    between atoms: C_5  and  O_7
REMARK    3  A    between atoms: O_7  and  C_8
REMARK    4  A    between atoms: C_11  and  C_13
REMARK    5  A    between atoms: C_14  and  O_16
REMARK    6  A    between atoms: C_17  and  O_19
REMARK    7  A    between atoms: C_20  and  O_22
REMARK    8  A    between atoms: C_23  and  O_25
REMARK    9  A    between atoms: O_25  and  C_26
REMARK   10  A    between atoms: C_26  and  C_27
REMARK   11  A    between atoms: C_27  and  C_28
REMARK   12  A    between atoms: C_28  and  C_29
REMARK   13  A    between atoms: C_29  and  C_30
REMARK   14  A    between atoms: C_30  and  C_31
REMARK   15  A    between atoms: C_31  and  C_32
REMARK   16  A    between atoms: C_32  and  C_33
REMARK   17  A    between atoms: C_35  and  C_37
REMARK   18  A    between atoms: C_37  and  O_38
REMARK                            x       y       z     vdW  Elec       q    Type
REMARK                         _______ _______ _______ _____ _____    ______ ____
ROOT
ATOM      1  C   UNL     1       9.652  -1.171  22.679  0.00  0.00    +0.148 C 
ATOM      2  C   UNL     1       9.854   0.296  23.107  0.00  0.00    +0.175 C 
ATOM      3  O   UNL     1       8.934   0.746  24.119  0.00  0.00    -0.341 OA
ATOM      4  C   UNL     1       7.556   0.375  23.946  0.00  0.00    +0.279 C 
ATOM      5  C   UNL     1       7.383  -1.154  23.723  0.00  0.00    +0.180 C 
ATOM      6  C   UNL     1       8.192  -1.561  22.498  0.00  0.00    +0.070 C 
ENDROOT
BRANCH   1   7
ATOM      7  O   UNL     1      10.375  -1.467  21.486  0.00  0.00    -0.389 OA
ATOM      8  H   UNL     1      10.088  -2.348  21.188  0.00  0.00    +0.210 HD
ENDBRANCH   1   7
BRANCH   5   9
ATOM      9  O   UNL     1       7.784  -1.818  24.925  0.00  0.00    -0.340 OA
BRANCH   9  10
ATOM     10  C   UNL     1       7.096  -2.993  25.367  0.00  0.00    +0.282 C 
ATOM     11  C   UNL     1       7.133  -4.205  24.393  0.00  0.00    +0.201 C 
ATOM     12  C   UNL     1       6.200  -5.307  24.914  0.00  0.00    +0.179 C 
ATOM     13  C   UNL     1       6.566  -5.650  26.367  0.00  0.00    +0.174 C 
ATOM     14  C   UNL     1       6.598  -4.389  27.261  0.00  0.00    +0.149 C 
ATOM     15  C   UNL     1       5.225  -3.835  27.663  0.00  0.00    +0.041 C 
ATOM     16  O   UNL     1       7.444  -3.357  26.705  0.00  0.00    -0.343 OA
BRANCH  13  17
ATOM     17  O   UNL     1       5.669  -6.641  26.879  0.00  0.00    -0.387 OA
ATOM     18  H   UNL     1       5.522  -7.281  26.155  0.00  0.00    +0.210 HD
ENDBRANCH  13  17
BRANCH  12  19
ATOM     19  O   UNL     1       4.812  -4.927  24.860  0.00  0.00    -0.386 OA
ATOM     20  H   UNL     1       4.272  -5.689  25.129  0.00  0.00    +0.210 HD
ENDBRANCH  12  19
BRANCH  11  21
ATOM     21  O   UNL     1       8.450  -4.769  24.282  0.00  0.00    -0.384 OA
ATOM     22  H   UNL     1       8.964  -4.494  25.062  0.00  0.00    +0.210 HD
ENDBRANCH  11  21
ENDBRANCH   9  10
ENDBRANCH   5   9
BRANCH   4  23
ATOM     23  O   UNL     1       6.939   1.164  22.922  0.00  0.00    -0.349 OA
BRANCH  23  24
ATOM     24  C   UNL     1       6.606   2.480  23.368  0.00  0.00    +0.163 C 
BRANCH  24  25
ATOM     25  C   UNL     1       6.381   3.416  22.190  0.00  0.00    +0.028 C 
BRANCH  25  26
ATOM     26  C   UNL     1       7.046   4.780  22.379  0.00  0.00    +0.002 C 
BRANCH  26  27
ATOM     27  C   UNL     1       8.253   4.666  23.310  0.00  0.00    +0.000 C 
BRANCH  27  28
ATOM     28  C   UNL     1       8.936   6.017  23.517  0.00  0.00    -0.000 C 
BRANCH  28  29
ATOM     29  C   UNL     1      10.231   5.846  24.311  0.00  0.00    -0.000 C 
BRANCH  29  30
ATOM     30  C   UNL     1      11.447   5.749  23.395  0.00  0.00    -0.003 C 
ATOM     31  C   UNL     1      11.986   4.327  23.357  0.00  0.00    +0.004 C 
ENDBRANCH  29  30
ENDBRANCH  28  29
ENDBRANCH  27  28
ENDBRANCH  26  27
ENDBRANCH  25  26
ENDBRANCH  24  25
ENDBRANCH  23  24
ENDBRANCH   4  23
BRANCH   2  32
ATOM     32  C   UNL     1       9.956   1.327  21.971  0.00  0.00    +0.190 C 
BRANCH  32  33
ATOM     33  O   UNL     1       8.949   1.047  20.984  0.00  0.00    -0.392 OA
ATOM     34  H   UNL     1       8.103   1.033  21.470  0.00  0.00    +0.210 HD
ENDBRANCH  32  33
ENDBRANCH   2  32
TORSDOF 16
ENDMDL
