MODEL 1
REMARK VINA RESULT:      -4.1      0.000      0.000
REMARK  Name = 
REMARK  2 active torsions:
REMARK  status: ('A' for Active; 'I' for Inactive)
REMARK    1  A    between atoms: O_1  and  C_2
REMARK    2  A    between atoms: C_2  and  C_3
REMARK                            x       y       z     vdW  Elec       q    Type
REMARK                         _______ _______ _______ _____ _____    ______ ____
ROOT
ATOM      1  C   UNL     1      10.155  -0.081  22.895  0.00  0.00    -0.022 A 
ATOM      2  C   UNL     1      10.256   0.377  24.216  0.00  0.00    +0.007 A 
ATOM      3  C   UNL     1      10.027   1.721  24.521  0.00  0.00    +0.015 A 
ATOM      4  C   UNL     1       9.694   2.614  23.504  0.00  0.00    +0.018 A 
ATOM      5 BR   UNL     1       9.394   4.435  23.916  0.00  0.00    -0.050 Br
ATOM      6  C   UNL     1       9.586   2.176  22.187  0.00  0.00    +0.015 A 
ATOM      7  C   UNL     1       9.815   0.832  21.885  0.00  0.00    +0.007 A 
ENDROOT
BRANCH   1   8
ATOM      8  C   UNL     1      10.395  -1.528  22.560  0.00  0.00    +0.191 C 
BRANCH   8   9
ATOM      9  O   UNL     1       9.835  -1.814  21.287  0.00  0.00    -0.390 OA
ATOM     10  H   UNL     1      10.410  -2.475  20.869  0.00  0.00    +0.210 HD
ENDBRANCH   8   9
ENDBRANCH   1   8
TORSDOF 2
ENDMDL
MODEL 2
REMARK VINA RESULT:      -4.1      0.038      1.612
REMARK  Name = 
REMARK  2 active torsions:
REMARK  status: ('A' for Active; 'I' for Inactive)
REMARK    1  A    between atoms: O_1  and  C_2
REMARK    2  A    between atoms: C_2  and  C_3
REMARK                            x       y       z     vdW  Elec       q    Type
REMARK                         _______ _______ _______ _____ _____    ______ ____
ROOT
ATOM      1  C   UNL     1      10.129  -0.090  22.892  0.00  0.00    -0.022 A 
ATOM      2  C   UNL     1       9.824   0.838  21.886  0.00  0.00    +0.007 A 
ATOM      3  C   UNL     1       9.603   2.181  22.202  0.00  0.00    +0.015 A 
ATOM      4  C   UNL     1       9.688   2.603  23.528  0.00  0.00    +0.018 A 
ATOM      5 BR   UNL     1       9.380   4.418  23.957  0.00  0.00    -0.050 Br
ATOM      6  C   UNL     1       9.993   1.696  24.539  0.00  0.00    +0.015 A 
ATOM      7  C   UNL     1      10.213   0.354  24.221  0.00  0.00    +0.007 A 
ENDROOT
BRANCH   1   8
ATOM      8  C   UNL     1      10.373  -1.536  22.559  0.00  0.00    +0.191 C 
BRANCH   8   9
ATOM      9  O   UNL     1       9.780  -1.836  21.305  0.00  0.00    -0.390 OA
ATOM     10  H   UNL     1       8.888  -1.452  21.317  0.00  0.00    +0.210 HD
ENDBRANCH   8   9
ENDBRANCH   1   8
TORSDOF 2
ENDMDL
MODEL 3
REMARK VINA RESULT:      -4.1      3.193      3.968
REMARK  Name = 
REMARK  2 active torsions:
REMARK  status: ('A' for Active; 'I' for Inactive)
REMARK    1  A    between atoms: O_1  and  C_2
REMARK    2  A    between atoms: C_2  and  C_3
REMARK                            x       y       z     vdW  Elec       q    Type
REMARK                         _______ _______ _______ _____ _____    ______ ____
ROOT
ATOM      1  C   UNL     1      10.046   0.838  23.356  0.00  0.00    -0.022 A 
ATOM      2  C   UNL     1       9.750   0.509  24.686  0.00  0.00    +0.007 A 
ATOM      3  C   UNL     1       9.513  -0.819  25.053  0.00  0.00    +0.015 A 
ATOM      4  C   UNL     1       9.574  -1.824  24.089  0.00  0.00    +0.018 A 
ATOM      5 BR   UNL     1       9.245  -3.619  24.584  0.00  0.00    -0.050 Br
ATOM      6  C   UNL     1       9.871  -1.515  22.764  0.00  0.00    +0.015 A 
ATOM      7  C   UNL     1      10.106  -0.188  22.401  0.00  0.00    +0.007 A 
ENDROOT
BRANCH   1   8
ATOM      8  C   UNL     1      10.306   2.264  22.954  0.00  0.00    +0.191 C 
BRANCH   8   9
ATOM      9  O   UNL     1      10.242   2.373  21.541  0.00  0.00    -0.390 OA
ATOM     10  H   UNL     1      10.290   1.471  21.186  0.00  0.00    +0.210 HD
ENDBRANCH   8   9
ENDBRANCH   1   8
TORSDOF 2
ENDMDL
MODEL 4
REMARK VINA RESULT:      -4.0      3.465      4.555
REMARK  Name = 
REMARK  2 active torsions:
REMARK  status: ('A' for Active; 'I' for Inactive)
REMARK    1  A    between atoms: O_1  and  C_2
REMARK    2  A    between atoms: C_2  and  C_3
REMARK                            x       y       z     vdW  Elec       q    Type
REMARK                         _______ _______ _______ _____ _____    ______ ____
ROOT
ATOM      1  C   UNL     1       8.685  -3.739  23.921  0.00  0.00    -0.022 A 
ATOM      2  C   UNL     1       7.757  -3.321  22.956  0.00  0.00    +0.007 A 
ATOM      3  C   UNL     1       7.951  -2.128  22.255  0.00  0.00    +0.015 A 
ATOM      4  C   UNL     1       9.078  -1.349  22.514  0.00  0.00    +0.018 A 
ATOM      5 BR   UNL     1       9.335   0.269  21.571  0.00  0.00    -0.050 Br
ATOM      6  C   UNL     1      10.011  -1.751  23.465  0.00  0.00    +0.015 A 
ATOM      7  C   UNL     1       9.814  -2.943  24.165  0.00  0.00    +0.007 A 
ENDROOT
BRANCH   1   8
ATOM      8  C   UNL     1       8.485  -5.024  24.676  0.00  0.00    +0.191 C 
BRANCH   8   9
ATOM      9  O   UNL     1       9.730  -5.693  24.804  0.00  0.00    -0.390 OA
ATOM     10  H   UNL     1       9.536  -6.595  25.103  0.00  0.00    +0.210 HD
ENDBRANCH   8   9
ENDBRANCH   1   8
TORSDOF 2
ENDMDL
MODEL 5
REMARK VINA RESULT:      -4.0      3.246      4.248
REMARK  Name = 
REMARK  2 active torsions:
REMARK  status: ('A' for Active; 'I' for Inactive)
REMARK    1  A    between atoms: O_1  and  C_2
REMARK    2  A    between atoms: C_2  and  C_3
REMARK                            x       y       z     vdW  Elec       q    Type
REMARK                         _______ _______ _______ _____ _____    ______ ____
ROOT
ATOM      1  C   UNL     1      10.522   2.164  23.244  0.00  0.00    -0.022 A 
ATOM      2  C   UNL     1       9.999   1.765  22.006  0.00  0.00    +0.007 A 
ATOM      3  C   UNL     1       9.482   0.478  21.836  0.00  0.00    +0.015 A 
ATOM      4  C   UNL     1       9.484  -0.416  22.906  0.00  0.00    +0.018 A 
ATOM      5 BR   UNL     1       8.793  -2.160  22.672  0.00  0.00    -0.050 Br
ATOM      6  C   UNL     1       9.997  -0.034  24.143  0.00  0.00    +0.015 A 
ATOM      7  C   UNL     1      10.513   1.252  24.310  0.00  0.00    +0.007 A 
ENDROOT
BRANCH   1   8
ATOM      8  C   UNL     1      11.076   3.549  23.437  0.00  0.00    +0.191 C 
BRANCH   8   9
ATOM      9  O   UNL     1      10.036   4.499  23.262  0.00  0.00    -0.390 OA
ATOM     10  H   UNL     1       9.526   4.512  24.088  0.00  0.00    +0.210 HD
ENDBRANCH   8   9
ENDBRANCH   1   8
TORSDOF 2
ENDMDL
MODEL 6
REMARK VINA RESULT:      -3.8      3.484      4.422
REMARK  Name = 
REMARK  2 active torsions:
REMARK  status: ('A' for Active; 'I' for Inactive)
REMARK    1  A    between atoms: O_1  and  C_2
REMARK    2  A    between atoms: C_2  and  C_3
REMARK                            x       y       z     vdW  Elec       q    Type
REMARK                         _______ _______ _______ _____ _____    ______ ____
ROOT
ATOM      1  C   UNL     1       9.068  -3.534  25.066  0.00  0.00    -0.022 A 
ATOM      2  C   UNL     1       9.739  -2.952  23.982  0.00  0.00    +0.007 A 
ATOM      3  C   UNL     1       9.837  -1.563  23.870  0.00  0.00    +0.015 A 
ATOM      4  C   UNL     1       9.265  -0.748  24.845  0.00  0.00    +0.018 A 
ATOM      5 BR   UNL     1       9.389   1.132  24.688  0.00  0.00    -0.050 Br
ATOM      6  C   UNL     1       8.597  -1.309  25.930  0.00  0.00    +0.015 A 
ATOM      7  C   UNL     1       8.500  -2.697  26.039  0.00  0.00    +0.007 A 
ENDROOT
BRANCH   1   8
ATOM      8  C   UNL     1       8.962  -5.028  25.196  0.00  0.00    +0.191 C 
BRANCH   8   9
ATOM      9  O   UNL     1      10.261  -5.579  25.354  0.00  0.00    -0.390 OA
ATOM     10  H   UNL     1      10.696  -5.525  24.487  0.00  0.00    +0.210 HD
ENDBRANCH   8   9
ENDBRANCH   1   8
TORSDOF 2
ENDMDL
MODEL 7
REMARK VINA RESULT:      -3.8      1.991      2.419
REMARK  Name = 
REMARK  2 active torsions:
REMARK  status: ('A' for Active; 'I' for Inactive)
REMARK    1  A    between atoms: O_1  and  C_2
REMARK    2  A    between atoms: C_2  and  C_3
REMARK                            x       y       z     vdW  Elec       q    Type
REMARK                         _______ _______ _______ _____ _____    ______ ____
ROOT
ATOM      1  C   UNL     1       8.613  -0.343  22.250  0.00  0.00    -0.022 A 
ATOM      2  C   UNL     1       9.343   0.701  21.666  0.00  0.00    +0.007 A 
ATOM      3  C   UNL     1       8.854   2.010  21.691  0.00  0.00    +0.015 A 
ATOM      4  C   UNL     1       7.631   2.280  22.304  0.00  0.00    +0.018 A 
ATOM      5 BR   UNL     1       6.965   4.049  22.329  0.00  0.00    -0.050 Br
ATOM      6  C   UNL     1       6.896   1.255  22.893  0.00  0.00    +0.015 A 
ATOM      7  C   UNL     1       7.387  -0.051  22.866  0.00  0.00    +0.007 A 
ENDROOT
BRANCH   1   8
ATOM      8  C   UNL     1       9.136  -1.753  22.232  0.00  0.00    +0.191 C 
BRANCH   8   9
ATOM      9  O   UNL     1      10.456  -1.758  21.710  0.00  0.00    -0.390 OA
ATOM     10  H   UNL     1      10.430  -2.269  20.885  0.00  0.00    +0.210 HD
ENDBRANCH   8   9
ENDBRANCH   1   8
TORSDOF 2
ENDMDL
MODEL 8
REMARK VINA RESULT:      -3.7      6.985      7.685
REMARK  Name = 
REMARK  2 active torsions:
REMARK  status: ('A' for Active; 'I' for Inactive)
REMARK    1  A    between atoms: O_1  and  C_2
REMARK    2  A    between atoms: C_2  and  C_3
REMARK                            x       y       z     vdW  Elec       q    Type
REMARK                         _______ _______ _______ _____ _____    ______ ____
ROOT
ATOM      1  C   UNL     1       7.998  -4.932  24.931  0.00  0.00    -0.022 A 
ATOM      2  C   UNL     1       6.950  -5.269  25.800  0.00  0.00    +0.007 A 
ATOM      3  C   UNL     1       5.683  -5.576  25.298  0.00  0.00    +0.015 A 
ATOM      4  C   UNL     1       5.457  -5.548  23.922  0.00  0.00    +0.018 A 
ATOM      5 BR   UNL     1       3.740  -5.954  23.245  0.00  0.00    -0.050 Br
ATOM      6  C   UNL     1       6.488  -5.219  23.045  0.00  0.00    +0.015 A 
ATOM      7  C   UNL     1       7.753  -4.913  23.550  0.00  0.00    +0.007 A 
ENDROOT
BRANCH   1   8
ATOM      8  C   UNL     1       9.366  -4.607  25.463  0.00  0.00    +0.191 C 
BRANCH   8   9
ATOM      9  O   UNL     1      10.202  -5.747  25.339  0.00  0.00    -0.390 OA
ATOM     10  H   UNL     1      11.115  -5.422  25.289  0.00  0.00    +0.210 HD
ENDBRANCH   8   9
ENDBRANCH   1   8
TORSDOF 2
ENDMDL
MODEL 9
REMARK VINA RESULT:      -3.7      3.260      4.134
REMARK  Name = 
REMARK  2 active torsions:
REMARK  status: ('A' for Active; 'I' for Inactive)
REMARK    1  A    between atoms: O_1  and  C_2
REMARK    2  A    between atoms: C_2  and  C_3
REMARK                            x       y       z     vdW  Elec       q    Type
REMARK                         _______ _______ _______ _____ _____    ______ ____
ROOT
ATOM      1  C   UNL     1       8.877   2.976  23.141  0.00  0.00    -0.022 A 
ATOM      2  C   UNL     1       9.599   2.314  24.144  0.00  0.00    +0.007 A 
ATOM      3  C   UNL     1      10.016   0.993  23.965  0.00  0.00    +0.015 A 
ATOM      4  C   UNL     1       9.712   0.326  22.778  0.00  0.00    +0.018 A 
ATOM      5 BR   UNL     1      10.268  -1.465  22.540  0.00  0.00    -0.050 Br
ATOM      6  C   UNL     1       8.999   0.969  21.770  0.00  0.00    +0.015 A 
ATOM      7  C   UNL     1       8.584   2.290  21.952  0.00  0.00    +0.007 A 
ENDROOT
BRANCH   1   8
ATOM      8  C   UNL     1       8.430   4.400  23.325  0.00  0.00    +0.191 C 
BRANCH   8   9
ATOM      9  O   UNL     1       7.879   4.880  22.108  0.00  0.00    -0.390 OA
ATOM     10  H   UNL     1       7.340   5.656  22.330  0.00  0.00    +0.210 HD
ENDBRANCH   8   9
ENDBRANCH   1   8
TORSDOF 2
ENDMDL
