MODEL 1
REMARK VINA RESULT:      -4.5      0.000      0.000
REMARK  Name = 
REMARK  10 active torsions:
REMARK  status: ('A' for Active; 'I' for Inactive)
REMARK    1  A    between atoms: N_1  and  C_2
REMARK    2  A    between atoms: C_2  and  C_3
REMARK    3  A    between atoms: C_3  and  C_4
REMARK    4  A    between atoms: C_4  and  N_5
REMARK    5  A    between atoms: N_5  and  C_6
REMARK    6  A    between atoms: C_6  and  C_7
REMARK    7  A    between atoms: C_7  and  S_8
REMARK    8  A    between atoms: S_8  and  P_9
REMARK    9  A    between atoms: P_9  and  O_10
REMARK   10  A    between atoms: P_9  and  O_11
REMARK                            x       y       z     vdW  Elec       q    Type
REMARK                         _______ _______ _______ _____ _____    ______ ____
ROOT
ATOM      1  C   UNL     1      10.397   2.277  23.244  0.00  0.00    +0.092 C 
ENDROOT
BRANCH   1   2
ATOM      2  N   UNL     1      10.998   3.552  22.818  0.00  0.00    -0.315 NA
ATOM      3  H   UNL     1      12.003   3.408  22.672  0.00  0.00    +0.122 HD
BRANCH   2   4
ATOM      4  C   UNL     1      10.777   4.612  23.804  0.00  0.00    +0.082 C 
BRANCH   4   5
ATOM      5  C   UNL     1      11.764   5.750  23.560  0.00  0.00    +0.030 C 
BRANCH   5   6
ATOM      6  C   UNL     1      12.816   5.358  22.518  0.00  0.00    +0.079 C 
BRANCH   6   7
ATOM      7  N   UNL     1      14.101   5.059  23.154  0.00  0.00    -0.330 NA
ATOM      8  H   UNL     1      13.934   4.580  24.042  0.00  0.00    +0.118 HD
ATOM      9  H   UNL     1      14.628   4.411  22.569  0.00  0.00    +0.118 HD
ENDBRANCH   6   7
ENDBRANCH   5   6
ENDBRANCH   4   5
ENDBRANCH   2   4
ENDBRANCH   1   2
BRANCH   1  10
ATOM     10  C   UNL     1       9.986   1.412  22.034  0.00  0.00    +0.096 C 
BRANCH  10  11
ATOM     11  S   UNL     1       8.678   0.257  22.518  0.00  0.00    -0.040 S 
BRANCH  11  12
ATOM     12  P   UNL     1       9.594  -1.552  23.132  0.00  0.00    +0.386 P 
ATOM     13  O   UNL     1      10.263  -2.875  23.580  0.00  0.00    -0.246 OA
BRANCH  12  14
ATOM     14  O   UNL     1      10.340  -1.533  21.662  0.00  0.00    -0.316 OA
ATOM     15  H   UNL     1      11.205  -1.948  21.714  0.00  0.00    +0.221 HD
ENDBRANCH  12  14
BRANCH  12  16
ATOM     16  O   UNL     1       8.225  -2.308  22.631  0.00  0.00    -0.316 OA
ATOM     17  H   UNL     1       8.403  -2.746  21.777  0.00  0.00    +0.221 HD
ENDBRANCH  12  16
ENDBRANCH  11  12
ENDBRANCH  10  11
ENDBRANCH   1  10
TORSDOF 10
ENDMDL
MODEL 2
REMARK VINA RESULT:      -4.2      5.486      7.215
REMARK  Name = 
REMARK  10 active torsions:
REMARK  status: ('A' for Active; 'I' for Inactive)
REMARK    1  A    between atoms: N_1  and  C_2
REMARK    2  A    between atoms: C_2  and  C_3
REMARK    3  A    between atoms: C_3  and  C_4
REMARK    4  A    between atoms: C_4  and  N_5
REMARK    5  A    between atoms: N_5  and  C_6
REMARK    6  A    between atoms: C_6  and  C_7
REMARK    7  A    between atoms: C_7  and  S_8
REMARK    8  A    between atoms: S_8  and  P_9
REMARK    9  A    between atoms: P_9  and  O_10
REMARK   10  A    between atoms: P_9  and  O_11
REMARK                            x       y       z     vdW  Elec       q    Type
REMARK                         _______ _______ _______ _____ _____    ______ ____
ROOT
ATOM      1  C   UNL     1       9.451  -1.609  24.439  0.00  0.00    +0.092 C 
ENDROOT
BRANCH   1   2
ATOM      2  N   UNL     1       9.574  -2.953  23.852  0.00  0.00    -0.315 NA
ATOM      3  H   UNL     1      10.092  -2.880  22.969  0.00  0.00    +0.122 HD
BRANCH   2   4
ATOM      4  C   UNL     1       8.264  -3.566  23.619  0.00  0.00    +0.082 C 
BRANCH   4   5
ATOM      5  C   UNL     1       8.309  -5.037  24.025  0.00  0.00    +0.030 C 
BRANCH   5   6
ATOM      6  C   UNL     1       8.883  -5.206  25.434  0.00  0.00    +0.079 C 
BRANCH   6   7
ATOM      7  N   UNL     1      10.312  -5.520  25.386  0.00  0.00    -0.330 NA
ATOM      8  H   UNL     1      10.738  -5.293  26.289  0.00  0.00    +0.118 HD
ATOM      9  H   UNL     1      10.437  -6.522  25.250  0.00  0.00    +0.118 HD
ENDBRANCH   6   7
ENDBRANCH   5   6
ENDBRANCH   4   5
ENDBRANCH   2   4
ENDBRANCH   1   2
BRANCH   1  10
ATOM     10  C   UNL     1      10.315  -0.579  23.681  0.00  0.00    +0.096 C 
BRANCH  10  11
ATOM     11  S   UNL     1       9.632  -0.299  22.028  0.00  0.00    -0.040 S 
BRANCH  11  12
ATOM     12  P   UNL     1       8.678   1.594  22.023  0.00  0.00    +0.386 P 
ATOM     13  O   UNL     1       7.982   2.977  22.020  0.00  0.00    -0.246 OA
BRANCH  12  14
ATOM     14  O   UNL     1      10.134   2.191  21.531  0.00  0.00    -0.316 OA
ATOM     15  H   UNL     1      10.750   2.239  22.268  0.00  0.00    +0.221 HD
ENDBRANCH  12  14
BRANCH  12  16
ATOM     16  O   UNL     1       8.993   1.653  23.633  0.00  0.00    -0.316 OA
ATOM     17  H   UNL     1       8.571   2.451  24.006  0.00  0.00    +0.221 HD
ENDBRANCH  12  16
ENDBRANCH  11  12
ENDBRANCH  10  11
ENDBRANCH   1  10
TORSDOF 10
ENDMDL
MODEL 3
REMARK VINA RESULT:      -4.2      4.067      4.956
REMARK  Name = 
REMARK  10 active torsions:
REMARK  status: ('A' for Active; 'I' for Inactive)
REMARK    1  A    between atoms: N_1  and  C_2
REMARK    2  A    between atoms: C_2  and  C_3
REMARK    3  A    between atoms: C_3  and  C_4
REMARK    4  A    between atoms: C_4  and  N_5
REMARK    5  A    between atoms: N_5  and  C_6
REMARK    6  A    between atoms: C_6  and  C_7
REMARK    7  A    between atoms: C_7  and  S_8
REMARK    8  A    between atoms: S_8  and  P_9
REMARK    9  A    between atoms: P_9  and  O_10
REMARK   10  A    between atoms: P_9  and  O_11
REMARK                            x       y       z     vdW  Elec       q    Type
REMARK                         _______ _______ _______ _____ _____    ______ ____
ROOT
ATOM      1  C   UNL     1       9.203  -0.446  25.815  0.00  0.00    +0.092 C 
ENDROOT
BRANCH   1   2
ATOM      2  N   UNL     1       9.162  -0.395  24.344  0.00  0.00    -0.315 NA
ATOM      3  H   UNL     1       9.019  -1.346  23.987  0.00  0.00    +0.122 HD
BRANCH   2   4
ATOM      4  C   UNL     1      10.391   0.174  23.786  0.00  0.00    +0.082 C 
BRANCH   4   5
ATOM      5  C   UNL     1      10.105   0.750  22.402  0.00  0.00    +0.030 C 
BRANCH   5   6
ATOM      6  C   UNL     1       9.483  -0.304  21.481  0.00  0.00    +0.079 C 
BRANCH   6   7
ATOM      7  N   UNL     1      10.130  -1.605  21.657  0.00  0.00    -0.330 NA
ATOM      8  H   UNL     1       9.671  -2.294  21.056  0.00  0.00    +0.118 HD
ATOM      9  H   UNL     1      11.099  -1.549  21.345  0.00  0.00    +0.118 HD
ENDBRANCH   6   7
ENDBRANCH   5   6
ENDBRANCH   4   5
ENDBRANCH   2   4
ENDBRANCH   1   2
BRANCH   1  10
ATOM     10  C   UNL     1       8.339  -1.600  26.366  0.00  0.00    +0.096 C 
BRANCH  10  11
ATOM     11  S   UNL     1       7.562  -2.496  24.999  0.00  0.00    -0.040 S 
BRANCH  11  12
ATOM     12  P   UNL     1       8.621  -4.309  24.715  0.00  0.00    +0.386 P 
ATOM     13  O   UNL     1       9.396  -5.634  24.509  0.00  0.00    -0.246 OA
BRANCH  12  14
ATOM     14  O   UNL     1       9.011  -4.191  26.313  0.00  0.00    -0.316 OA
ATOM     15  H   UNL     1       8.931  -5.044  26.748  0.00  0.00    +0.221 HD
ENDBRANCH  12  14
BRANCH  12  16
ATOM     16  O   UNL     1       9.861  -3.390  24.157  0.00  0.00    -0.316 OA
ATOM     17  H   UNL     1      10.658  -3.581  24.689  0.00  0.00    +0.221 HD
ENDBRANCH  12  16
ENDBRANCH  11  12
ENDBRANCH  10  11
ENDBRANCH   1  10
TORSDOF 10
ENDMDL
MODEL 4
REMARK VINA RESULT:      -4.1      4.153      5.490
REMARK  Name = 
REMARK  10 active torsions:
REMARK  status: ('A' for Active; 'I' for Inactive)
REMARK    1  A    between atoms: N_1  and  C_2
REMARK    2  A    between atoms: C_2  and  C_3
REMARK    3  A    between atoms: C_3  and  C_4
REMARK    4  A    between atoms: C_4  and  N_5
REMARK    5  A    between atoms: N_5  and  C_6
REMARK    6  A    between atoms: C_6  and  C_7
REMARK    7  A    between atoms: C_7  and  S_8
REMARK    8  A    between atoms: S_8  and  P_9
REMARK    9  A    between atoms: P_9  and  O_10
REMARK   10  A    between atoms: P_9  and  O_11
REMARK                            x       y       z     vdW  Elec       q    Type
REMARK                         _______ _______ _______ _____ _____    ______ ____
ROOT
ATOM      1  C   UNL     1       8.372  -2.471  22.481  0.00  0.00    +0.092 C 
ENDROOT
BRANCH   1   2
ATOM      2  N   UNL     1       9.712  -2.537  23.088  0.00  0.00    -0.315 NA
ATOM      3  H   UNL     1       9.613  -2.482  24.107  0.00  0.00    +0.122 HD
BRANCH   2   4
ATOM      4  C   UNL     1      10.579  -1.458  22.607  0.00  0.00    +0.082 C 
BRANCH   4   5
ATOM      5  C   UNL     1       9.742  -0.425  21.859  0.00  0.00    +0.030 C 
BRANCH   5   6
ATOM      6  C   UNL     1       9.950   0.979  22.435  0.00  0.00    +0.079 C 
BRANCH   6   7
ATOM      7  N   UNL     1       9.652   2.007  21.435  0.00  0.00    -0.330 NA
ATOM      8  H   UNL     1      10.419   2.052  20.759  0.00  0.00    +0.118 HD
ATOM      9  H   UNL     1       8.819   1.743  20.912  0.00  0.00    +0.118 HD
ENDBRANCH   6   7
ENDBRANCH   5   6
ENDBRANCH   4   5
ENDBRANCH   2   4
ENDBRANCH   1   2
BRANCH   1  10
ATOM     10  C   UNL     1       7.325  -3.213  23.338  0.00  0.00    +0.096 C 
BRANCH  10  11
ATOM     11  S   UNL     1       7.911  -4.883  23.718  0.00  0.00    -0.040 S 
BRANCH  11  12
ATOM     12  P   UNL     1       7.997  -5.085  25.826  0.00  0.00    +0.386 P 
ATOM     13  O   UNL     1       8.061  -5.231  27.366  0.00  0.00    -0.246 OA
BRANCH  12  14
ATOM     14  O   UNL     1       8.576  -3.541  25.828  0.00  0.00    -0.316 OA
ATOM     15  H   UNL     1       9.039  -3.352  26.649  0.00  0.00    +0.221 HD
ENDBRANCH  12  14
BRANCH  12  16
ATOM     16  O   UNL     1       9.447  -5.822  25.604  0.00  0.00    -0.316 OA
ATOM     17  H   UNL     1       9.675  -5.787  24.655  0.00  0.00    +0.221 HD
ENDBRANCH  12  16
ENDBRANCH  11  12
ENDBRANCH  10  11
ENDBRANCH   1  10
TORSDOF 10
ENDMDL
MODEL 5
REMARK VINA RESULT:      -4.1      5.859      7.569
REMARK  Name = 
REMARK  10 active torsions:
REMARK  status: ('A' for Active; 'I' for Inactive)
REMARK    1  A    between atoms: N_1  and  C_2
REMARK    2  A    between atoms: C_2  and  C_3
REMARK    3  A    between atoms: C_3  and  C_4
REMARK    4  A    between atoms: C_4  and  N_5
REMARK    5  A    between atoms: N_5  and  C_6
REMARK    6  A    between atoms: C_6  and  C_7
REMARK    7  A    between atoms: C_7  and  S_8
REMARK    8  A    between atoms: S_8  and  P_9
REMARK    9  A    between atoms: P_9  and  O_10
REMARK   10  A    between atoms: P_9  and  O_11
REMARK                            x       y       z     vdW  Elec       q    Type
REMARK                         _______ _______ _______ _____ _____    ______ ____
ROOT
ATOM      1  C   UNL     1       9.946  -2.076  23.699  0.00  0.00    +0.092 C 
ENDROOT
BRANCH   1   2
ATOM      2  N   UNL     1       9.883  -3.465  24.184  0.00  0.00    -0.315 NA
ATOM      3  H   UNL     1      10.290  -4.079  23.472  0.00  0.00    +0.122 HD
BRANCH   2   4
ATOM      4  C   UNL     1       8.508  -3.875  24.479  0.00  0.00    +0.082 C 
BRANCH   4   5
ATOM      5  C   UNL     1       8.356  -4.111  25.979  0.00  0.00    +0.030 C 
BRANCH   5   6
ATOM      6  C   UNL     1       7.410  -5.281  26.263  0.00  0.00    +0.079 C 
BRANCH   6   7
ATOM      7  N   UNL     1       7.733  -5.920  27.540  0.00  0.00    -0.330 NA
ATOM      8  H   UNL     1       7.816  -5.202  28.265  0.00  0.00    +0.118 HD
ATOM      9  H   UNL     1       6.964  -6.528  27.822  0.00  0.00    +0.118 HD
ENDBRANCH   6   7
ENDBRANCH   5   6
ENDBRANCH   4   5
ENDBRANCH   2   4
ENDBRANCH   1   2
BRANCH   1  10
ATOM     10  C   UNL     1       8.940  -1.829  22.555  0.00  0.00    +0.096 C 
BRANCH  10  11
ATOM     11  S   UNL     1       9.472  -0.413  21.561  0.00  0.00    -0.040 S 
BRANCH  11  12
ATOM     12  P   UNL     1       9.982   1.163  22.884  0.00  0.00    +0.386 P 
ATOM     13  O   UNL     1      10.354   2.314  23.851  0.00  0.00    -0.246 OA
BRANCH  12  14
ATOM     14  O   UNL     1       8.363   1.287  23.167  0.00  0.00    -0.316 OA
ATOM     15  H   UNL     1       8.067   2.196  23.061  0.00  0.00    +0.221 HD
ENDBRANCH  12  14
BRANCH  12  16
ATOM     16  O   UNL     1      10.011   2.138  21.564  0.00  0.00    -0.316 OA
ATOM     17  H   UNL     1      10.045   3.067  21.861  0.00  0.00    +0.221 HD
ENDBRANCH  12  16
ENDBRANCH  11  12
ENDBRANCH  10  11
ENDBRANCH   1  10
TORSDOF 10
ENDMDL
MODEL 6
REMARK VINA RESULT:      -4.1      3.993      5.035
REMARK  Name = 
REMARK  10 active torsions:
REMARK  status: ('A' for Active; 'I' for Inactive)
REMARK    1  A    between atoms: N_1  and  C_2
REMARK    2  A    between atoms: C_2  and  C_3
REMARK    3  A    between atoms: C_3  and  C_4
REMARK    4  A    between atoms: C_4  and  N_5
REMARK    5  A    between atoms: N_5  and  C_6
REMARK    6  A    between atoms: C_6  and  C_7
REMARK    7  A    between atoms: C_7  and  S_8
REMARK    8  A    between atoms: S_8  and  P_9
REMARK    9  A    between atoms: P_9  and  O_10
REMARK   10  A    between atoms: P_9  and  O_11
REMARK                            x       y       z     vdW  Elec       q    Type
REMARK                         _______ _______ _______ _____ _____    ______ ____
ROOT
ATOM      1  C   UNL     1       9.046  -1.679  24.862  0.00  0.00    +0.092 C 
ENDROOT
BRANCH   1   2
ATOM      2  N   UNL     1       9.658  -1.918  23.545  0.00  0.00    -0.315 NA
ATOM      3  H   UNL     1      10.358  -2.662  23.638  0.00  0.00    +0.122 HD
BRANCH   2   4
ATOM      4  C   UNL     1      10.278  -0.705  23.005  0.00  0.00    +0.082 C 
BRANCH   4   5
ATOM      5  C   UNL     1       9.687  -0.397  21.633  0.00  0.00    +0.030 C 
BRANCH   5   6
ATOM      6  C   UNL     1       9.004   0.974  21.618  0.00  0.00    +0.079 C 
BRANCH   6   7
ATOM      7  N   UNL     1       9.993   2.054  21.617  0.00  0.00    -0.330 NA
ATOM      8  H   UNL     1       9.510   2.953  21.697  0.00  0.00    +0.118 HD
ATOM      9  H   UNL     1      10.590   1.971  22.439  0.00  0.00    +0.118 HD
ENDBRANCH   6   7
ENDBRANCH   5   6
ENDBRANCH   4   5
ENDBRANCH   2   4
ENDBRANCH   1   2
BRANCH   1  10
ATOM     10  C   UNL     1       8.528  -2.988  25.493  0.00  0.00    +0.096 C 
BRANCH  10  11
ATOM     11  S   UNL     1       6.925  -3.427  24.774  0.00  0.00    -0.040 S 
BRANCH  11  12
ATOM     12  P   UNL     1       7.249  -4.925  23.310  0.00  0.00    +0.386 P 
ATOM     13  O   UNL     1       7.487  -6.019  22.241  0.00  0.00    -0.246 OA
BRANCH  12  14
ATOM     14  O   UNL     1       8.764  -5.051  23.950  0.00  0.00    -0.316 OA
ATOM     15  H   UNL     1       9.069  -5.962  23.926  0.00  0.00    +0.221 HD
ENDBRANCH  12  14
BRANCH  12  16
ATOM     16  O   UNL     1       7.593  -3.703  22.269  0.00  0.00    -0.316 OA
ATOM     17  H   UNL     1       7.651  -2.869  22.772  0.00  0.00    +0.221 HD
ENDBRANCH  12  16
ENDBRANCH  11  12
ENDBRANCH  10  11
ENDBRANCH   1  10
TORSDOF 10
ENDMDL
MODEL 7
REMARK VINA RESULT:      -4.0      3.919      4.727
REMARK  Name = 
REMARK  10 active torsions:
REMARK  status: ('A' for Active; 'I' for Inactive)
REMARK    1  A    between atoms: N_1  and  C_2
REMARK    2  A    between atoms: C_2  and  C_3
REMARK    3  A    between atoms: C_3  and  C_4
REMARK    4  A    between atoms: C_4  and  N_5
REMARK    5  A    between atoms: N_5  and  C_6
REMARK    6  A    between atoms: C_6  and  C_7
REMARK    7  A    between atoms: C_7  and  S_8
REMARK    8  A    between atoms: S_8  and  P_9
REMARK    9  A    between atoms: P_9  and  O_10
REMARK   10  A    between atoms: P_9  and  O_11
REMARK                            x       y       z     vdW  Elec       q    Type
REMARK                         _______ _______ _______ _____ _____    ______ ____
ROOT
ATOM      1  C   UNL     1       9.734  -1.933  22.796  0.00  0.00    +0.092 C 
ENDROOT
BRANCH   1   2
ATOM      2  N   UNL     1       9.599  -0.480  22.988  0.00  0.00    -0.315 NA
ATOM      3  H   UNL     1      10.029  -0.002  22.189  0.00  0.00    +0.122 HD
BRANCH   2   4
ATOM      4  C   UNL     1      10.226  -0.037  24.237  0.00  0.00    +0.082 C 
BRANCH   4   5
ATOM      5  C   UNL     1      10.764   1.381  24.063  0.00  0.00    +0.030 C 
BRANCH   5   6
ATOM      6  C   UNL     1       9.812   2.236  23.221  0.00  0.00    +0.079 C 
BRANCH   6   7
ATOM      7  N   UNL     1      10.205   2.227  21.811  0.00  0.00    -0.330 NA
ATOM      8  H   UNL     1       9.408   2.518  21.237  0.00  0.00    +0.118 HD
ATOM      9  H   UNL     1      10.939   2.917  21.657  0.00  0.00    +0.118 HD
ENDBRANCH   6   7
ENDBRANCH   5   6
ENDBRANCH   4   5
ENDBRANCH   2   4
ENDBRANCH   1   2
BRANCH   1  10
ATOM     10  C   UNL     1       9.667  -2.691  24.140  0.00  0.00    +0.096 C 
BRANCH  10  11
ATOM     11  S   UNL     1       8.381  -3.963  24.067  0.00  0.00    -0.040 S 
BRANCH  11  12
ATOM     12  P   UNL     1       8.036  -4.661  26.038  0.00  0.00    +0.386 P 
ATOM     13  O   UNL     1       7.784  -5.172  27.478  0.00  0.00    -0.246 OA
BRANCH  12  14
ATOM     14  O   UNL     1       9.192  -5.791  25.710  0.00  0.00    -0.316 OA
ATOM     15  H   UNL     1       9.600  -6.106  26.522  0.00  0.00    +0.221 HD
ENDBRANCH  12  14
BRANCH  12  16
ATOM     16  O   UNL     1       6.774  -5.508  25.419  0.00  0.00    -0.316 OA
ATOM     17  H   UNL     1       6.804  -5.450  24.445  0.00  0.00    +0.221 HD
ENDBRANCH  12  16
ENDBRANCH  11  12
ENDBRANCH  10  11
ENDBRANCH   1  10
TORSDOF 10
ENDMDL
MODEL 8
REMARK VINA RESULT:      -4.0      3.539      4.426
REMARK  Name = 
REMARK  10 active torsions:
REMARK  status: ('A' for Active; 'I' for Inactive)
REMARK    1  A    between atoms: N_1  and  C_2
REMARK    2  A    between atoms: C_2  and  C_3
REMARK    3  A    between atoms: C_3  and  C_4
REMARK    4  A    between atoms: C_4  and  N_5
REMARK    5  A    between atoms: N_5  and  C_6
REMARK    6  A    between atoms: C_6  and  C_7
REMARK    7  A    between atoms: C_7  and  S_8
REMARK    8  A    between atoms: S_8  and  P_9
REMARK    9  A    between atoms: P_9  and  O_10
REMARK   10  A    between atoms: P_9  and  O_11
REMARK                            x       y       z     vdW  Elec       q    Type
REMARK                         _______ _______ _______ _____ _____    ______ ____
ROOT
ATOM      1  C   UNL     1       9.450  -1.507  24.193  0.00  0.00    +0.092 C 
ENDROOT
BRANCH   1   2
ATOM      2  N   UNL     1      10.241  -0.383  23.667  0.00  0.00    -0.315 NA
ATOM      3  H   UNL     1      11.148  -0.740  23.347  0.00  0.00    +0.122 HD
BRANCH   2   4
ATOM      4  C   UNL     1      10.437   0.662  24.675  0.00  0.00    +0.082 C 
BRANCH   4   5
ATOM      5  C   UNL     1       9.750   1.946  24.220  0.00  0.00    +0.030 C 
BRANCH   5   6
ATOM      6  C   UNL     1      10.537   2.628  23.096  0.00  0.00    +0.079 C 
BRANCH   6   7
ATOM      7  N   UNL     1      10.096   2.155  21.783  0.00  0.00    -0.330 NA
ATOM      8  H   UNL     1       9.178   1.712  21.875  0.00  0.00    +0.118 HD
ATOM      9  H   UNL     1       9.973   2.950  21.157  0.00  0.00    +0.118 HD
ENDBRANCH   6   7
ENDBRANCH   5   6
ENDBRANCH   4   5
ENDBRANCH   2   4
ENDBRANCH   1   2
BRANCH   1  10
ATOM     10  C   UNL     1       8.944  -1.224  25.623  0.00  0.00    +0.096 C 
BRANCH  10  11
ATOM     11  S   UNL     1       8.141  -2.699  26.297  0.00  0.00    -0.040 S 
BRANCH  11  12
ATOM     12  P   UNL     1       8.940  -4.393  25.305  0.00  0.00    +0.386 P 
ATOM     13  O   UNL     1       9.523  -5.632  24.581  0.00  0.00    -0.246 OA
BRANCH  12  14
ATOM     14  O   UNL     1       7.443  -5.059  25.494  0.00  0.00    -0.316 OA
ATOM     15  H   UNL     1       7.114  -4.909  26.384  0.00  0.00    +0.221 HD
ENDBRANCH  12  14
BRANCH  12  16
ATOM     16  O   UNL     1       9.529  -4.856  26.766  0.00  0.00    -0.316 OA
ATOM     17  H   UNL     1       8.812  -5.282  27.273  0.00  0.00    +0.221 HD
ENDBRANCH  12  16
ENDBRANCH  11  12
ENDBRANCH  10  11
ENDBRANCH   1  10
TORSDOF 10
ENDMDL
MODEL 9
REMARK VINA RESULT:      -3.9      4.334      5.146
REMARK  Name = 
REMARK  10 active torsions:
REMARK  status: ('A' for Active; 'I' for Inactive)
REMARK    1  A    between atoms: N_1  and  C_2
REMARK    2  A    between atoms: C_2  and  C_3
REMARK    3  A    between atoms: C_3  and  C_4
REMARK    4  A    between atoms: C_4  and  N_5
REMARK    5  A    between atoms: N_5  and  C_6
REMARK    6  A    between atoms: C_6  and  C_7
REMARK    7  A    between atoms: C_7  and  S_8
REMARK    8  A    between atoms: S_8  and  P_9
REMARK    9  A    between atoms: P_9  and  O_10
REMARK   10  A    between atoms: P_9  and  O_11
REMARK                            x       y       z     vdW  Elec       q    Type
REMARK                         _______ _______ _______ _____ _____    ______ ____
ROOT
ATOM      1  C   UNL     1       8.445  -2.124  22.248  0.00  0.00    +0.092 C 
ENDROOT
BRANCH   1   2
ATOM      2  N   UNL     1       9.598  -1.376  22.775  0.00  0.00    -0.315 NA
ATOM      3  H   UNL     1       9.432  -1.172  23.766  0.00  0.00    +0.122 HD
BRANCH   2   4
ATOM      4  C   UNL     1       9.824  -0.133  22.034  0.00  0.00    +0.082 C 
BRANCH   4   5
ATOM      5  C   UNL     1      10.214   0.977  23.007  0.00  0.00    +0.030 C 
BRANCH   5   6
ATOM      6  C   UNL     1       9.433   0.864  24.319  0.00  0.00    +0.079 C 
BRANCH   6   7
ATOM      7  N   UNL     1      10.274   0.320  25.387  0.00  0.00    -0.330 NA
ATOM      8  H   UNL     1      11.250   0.573  25.209  0.00  0.00    +0.118 HD
ATOM      9  H   UNL     1      10.020   0.751  26.275  0.00  0.00    +0.118 HD
ENDBRANCH   6   7
ENDBRANCH   5   6
ENDBRANCH   4   5
ENDBRANCH   2   4
ENDBRANCH   1   2
BRANCH   1  10
ATOM     10  C   UNL     1       8.038  -3.277  23.189  0.00  0.00    +0.096 C 
BRANCH  10  11
ATOM     11  S   UNL     1       9.251  -3.440  24.523  0.00  0.00    -0.040 S 
BRANCH  11  12
ATOM     12  P   UNL     1       8.456  -4.764  25.975  0.00  0.00    +0.386 P 
ATOM     13  O   UNL     1       7.877  -5.732  27.036  0.00  0.00    -0.246 OA
BRANCH  12  14
ATOM     14  O   UNL     1       9.695  -5.770  25.559  0.00  0.00    -0.316 OA
ATOM     15  H   UNL     1      10.398  -5.282  25.122  0.00  0.00    +0.221 HD
ENDBRANCH  12  14
BRANCH  12  16
ATOM     16  O   UNL     1       7.414  -5.268  24.812  0.00  0.00    -0.316 OA
ATOM     17  H   UNL     1       6.799  -4.539  24.604  0.00  0.00    +0.221 HD
ENDBRANCH  12  16
ENDBRANCH  11  12
ENDBRANCH  10  11
ENDBRANCH   1  10
TORSDOF 10
ENDMDL
