MODEL 1
REMARK VINA RESULT:      -8.4      0.000      0.000
REMARK  Name = 
REMARK  3 active torsions:
REMARK  status: ('A' for Active; 'I' for Inactive)
REMARK    1  A    between atoms: C_1  and  C_2
REMARK    2  A    between atoms: C_2  and  C_3
REMARK    3  A    between atoms: C_3  and  O_4
REMARK                            x       y       z     vdW  Elec       q    Type
REMARK                         _______ _______ _______ _____ _____    ______ ____
ROOT
ATOM      1  C   UNL     1       3.815  -6.463  24.283  0.00  0.00    +0.188 C 
ATOM      2  C   UNL     1       4.696  -5.237  24.577  0.00  0.00    +0.008 A 
ATOM      3  C   UNL     1       5.018  -4.023  23.746  0.00  0.00    +0.035 A 
ATOM      4  C   UNL     1       6.271  -3.505  23.774  0.00  0.00    +0.071 A 
ATOM      5  C   UNL     1       7.071  -2.337  23.237  0.00  0.00    +0.093 A 
ATOM      6  C   UNL     1       8.410  -2.690  23.368  0.00  0.00    +0.000 A 
ATOM      7  C   UNL     1       9.444  -1.858  22.989  0.00  0.00    +0.017 A 
ATOM      8  C   UNL     1       9.116  -0.570  22.604  0.00  0.00    +0.001 A 
ATOM      9  C   UNL     1       7.749  -0.161  22.644  0.00  0.00    +0.072 A 
ATOM     10  C   UNL     1       7.567   1.206  22.414  0.00  0.00    +0.028 A 
ATOM     11  C   UNL     1       8.618   2.092  22.085  0.00  0.00    +0.002 A 
ATOM     12  C   UNL     1       9.923   1.626  21.978  0.00  0.00    +0.001 A 
ATOM     13  C   UNL     1      10.175   0.294  22.250  0.00  0.00    +0.010 A 
ATOM     14  C   UNL     1       8.574  -3.978  24.071  0.00  0.00    +0.162 C 
ATOM     15  N   UNL     1       6.718  -1.067  22.927  0.00  0.00    -0.245 NA
ATOM     16  N   UNL     1       7.211  -4.263  24.476  0.00  0.00    -0.302 N 
ATOM     17  C   UNL     1       6.922  -5.133  25.479  0.00  0.00    +0.259 A 
ATOM     18  O   UNL     1       7.777  -5.692  26.156  0.00  0.00    -0.267 OA
ATOM     19  C   UNL     1       5.470  -5.406  25.674  0.00  0.00    +0.061 A 
ATOM     20  C   UNL     1       5.129  -6.255  26.846  0.00  0.00    +0.273 C 
ATOM     21  O   UNL     1       4.158  -7.269  26.598  0.00  0.00    -0.457 OA
ATOM     22  C   UNL     1       3.245  -7.053  25.623  0.00  0.00    +0.344 C 
ATOM     23  O   UNL     1       2.098  -7.470  25.757  0.00  0.00    -0.247 OA
ENDROOT
BRANCH   1  25
ATOM     24  C   UNL     1       1.733  -5.301  23.240  0.00  0.00    +0.007 C 
ATOM     25  C   UNL     1       2.657  -6.503  23.264  0.00  0.00    +0.048 C 
ENDBRANCH   1  25
BRANCH   1  26
ATOM     26  O   UNL     1       4.766  -7.467  23.811  0.00  0.00    -0.373 OA
ATOM     27  H   UNL     1       5.650  -7.059  23.811  0.00  0.00    +0.211 HD
ENDBRANCH   1  26
TORSDOF 2
ENDMDL
MODEL 2
REMARK VINA RESULT:      -8.0      2.851      7.650
REMARK  Name = 
REMARK  3 active torsions:
REMARK  status: ('A' for Active; 'I' for Inactive)
REMARK    1  A    between atoms: C_1  and  C_2
REMARK    2  A    between atoms: C_2  and  C_3
REMARK    3  A    between atoms: C_3  and  O_4
REMARK                            x       y       z     vdW  Elec       q    Type
REMARK                         _______ _______ _______ _____ _____    ______ ____
ROOT
ATOM      1  C   UNL     1       8.037   0.261  23.092  0.00  0.00    +0.188 C 
ATOM      2  C   UNL     1       7.624  -1.208  22.897  0.00  0.00    +0.008 A 
ATOM      3  C   UNL     1       6.280  -1.881  22.975  0.00  0.00    +0.035 A 
ATOM      4  C   UNL     1       6.179  -3.116  23.525  0.00  0.00    +0.071 A 
ATOM      5  C   UNL     1       5.165  -4.212  23.774  0.00  0.00    +0.093 A 
ATOM      6  C   UNL     1       5.710  -5.031  24.756  0.00  0.00    +0.000 A 
ATOM      7  C   UNL     1       5.068  -6.155  25.237  0.00  0.00    +0.017 A 
ATOM      8  C   UNL     1       3.903  -6.543  24.599  0.00  0.00    +0.001 A 
ATOM      9  C   UNL     1       3.446  -5.793  23.473  0.00  0.00    +0.072 A 
ATOM     10  C   UNL     1       2.372  -6.388  22.803  0.00  0.00    +0.028 A 
ATOM     11  C   UNL     1       1.735  -7.572  23.240  0.00  0.00    +0.002 A 
ATOM     12  C   UNL     1       2.168  -8.220  24.390  0.00  0.00    +0.001 A 
ATOM     13  C   UNL     1       3.263  -7.711  25.065  0.00  0.00    +0.010 A 
ATOM     14  C   UNL     1       7.088  -4.629  25.107  0.00  0.00    +0.162 C 
ATOM     15  N   UNL     1       4.064  -4.597  23.085  0.00  0.00    -0.245 NA
ATOM     16  N   UNL     1       7.347  -3.596  24.123  0.00  0.00    -0.302 N 
ATOM     17  C   UNL     1       8.608  -3.208  23.798  0.00  0.00    +0.259 A 
ATOM     18  O   UNL     1       9.616  -3.733  24.255  0.00  0.00    -0.267 OA
ATOM     19  C   UNL     1       8.687  -2.046  22.869  0.00  0.00    +0.061 A 
ATOM     20  C   UNL     1      10.054  -1.688  22.403  0.00  0.00    +0.273 C 
ATOM     21  O   UNL     1      10.351  -0.294  22.410  0.00  0.00    -0.457 OA
ATOM     22  C   UNL     1       9.327   0.577  22.254  0.00  0.00    +0.344 C 
ATOM     23  O   UNL     1       9.503   1.621  21.631  0.00  0.00    -0.247 OA
ENDROOT
BRANCH   1  25
ATOM     24  C   UNL     1       6.058   1.681  24.007  0.00  0.00    +0.007 C 
ATOM     25  C   UNL     1       7.102   1.477  22.927  0.00  0.00    +0.048 C 
ENDBRANCH   1  25
BRANCH   1  26
ATOM     26  O   UNL     1       8.479   0.313  24.484  0.00  0.00    -0.373 OA
ATOM     27  H   UNL     1       8.031   1.067  24.908  0.00  0.00    +0.211 HD
ENDBRANCH   1  26
TORSDOF 2
ENDMDL
MODEL 3
REMARK VINA RESULT:      -7.9      4.829      8.391
REMARK  Name = 
REMARK  3 active torsions:
REMARK  status: ('A' for Active; 'I' for Inactive)
REMARK    1  A    between atoms: C_1  and  C_2
REMARK    2  A    between atoms: C_2  and  C_3
REMARK    3  A    between atoms: C_3  and  O_4
REMARK                            x       y       z     vdW  Elec       q    Type
REMARK                         _______ _______ _______ _____ _____    ______ ____
ROOT
ATOM      1  C   UNL     1       8.080   3.771  24.229  0.00  0.00    +0.188 C 
ATOM      2  C   UNL     1       8.405   2.420  23.570  0.00  0.00    +0.008 A 
ATOM      3  C   UNL     1       7.529   1.239  23.241  0.00  0.00    +0.035 A 
ATOM      4  C   UNL     1       8.010  -0.018  23.404  0.00  0.00    +0.071 A 
ATOM      5  C   UNL     1       7.622  -1.463  23.172  0.00  0.00    +0.093 A 
ATOM      6  C   UNL     1       8.474  -2.226  23.964  0.00  0.00    +0.000 A 
ATOM      7  C   UNL     1       8.425  -3.605  24.004  0.00  0.00    +0.017 A 
ATOM      8  C   UNL     1       7.586  -4.238  23.105  0.00  0.00    +0.001 A 
ATOM      9  C   UNL     1       6.847  -3.448  22.173  0.00  0.00    +0.072 A 
ATOM     10  C   UNL     1       6.184  -4.205  21.200  0.00  0.00    +0.028 A 
ATOM     11  C   UNL     1       6.169  -5.618  21.183  0.00  0.00    +0.002 A 
ATOM     12  C   UNL     1       6.839  -6.341  22.163  0.00  0.00    +0.001 A 
ATOM     13  C   UNL     1       7.559  -5.649  23.119  0.00  0.00    +0.010 A 
ATOM     14  C   UNL     1       9.499  -1.396  24.630  0.00  0.00    +0.162 C 
ATOM     15  N   UNL     1       6.839  -2.049  22.236  0.00  0.00    -0.245 NA
ATOM     16  N   UNL     1       9.258  -0.100  24.026  0.00  0.00    -0.302 N 
ATOM     17  C   UNL     1      10.196   0.884  24.029  0.00  0.00    +0.259 A 
ATOM     18  O   UNL     1      11.326   0.739  24.479  0.00  0.00    -0.267 OA
ATOM     19  C   UNL     1       9.736   2.192  23.484  0.00  0.00    +0.061 A 
ATOM     20  C   UNL     1      10.783   3.241  23.362  0.00  0.00    +0.273 C 
ATOM     21  O   UNL     1      10.394   4.540  23.802  0.00  0.00    -0.457 OA
ATOM     22  C   UNL     1       9.084   4.871  23.730  0.00  0.00    +0.344 C 
ATOM     23  O   UNL     1       8.760   6.024  23.458  0.00  0.00    -0.247 OA
ENDROOT
BRANCH   1  25
ATOM     24  C   UNL     1       5.870   4.353  22.985  0.00  0.00    +0.007 C 
ATOM     25  C   UNL     1       6.687   4.435  24.259  0.00  0.00    +0.048 C 
ENDBRANCH   1  25
BRANCH   1  26
ATOM     26  O   UNL     1       8.427   3.563  25.634  0.00  0.00    -0.373 OA
ATOM     27  H   UNL     1       9.394   3.641  25.714  0.00  0.00    +0.211 HD
ENDBRANCH   1  26
TORSDOF 2
ENDMDL
MODEL 4
REMARK VINA RESULT:      -7.9      2.755      4.402
REMARK  Name = 
REMARK  3 active torsions:
REMARK  status: ('A' for Active; 'I' for Inactive)
REMARK    1  A    between atoms: C_1  and  C_2
REMARK    2  A    between atoms: C_2  and  C_3
REMARK    3  A    between atoms: C_3  and  O_4
REMARK                            x       y       z     vdW  Elec       q    Type
REMARK                         _______ _______ _______ _____ _____    ______ ____
ROOT
ATOM      1  C   UNL     1       6.415  -3.657  23.583  0.00  0.00    +0.188 C 
ATOM      2  C   UNL     1       7.320  -2.535  24.119  0.00  0.00    +0.008 A 
ATOM      3  C   UNL     1       7.088  -1.054  24.260  0.00  0.00    +0.035 A 
ATOM      4  C   UNL     1       8.101  -0.189  24.002  0.00  0.00    +0.071 A 
ATOM      5  C   UNL     1       8.425   1.288  24.054  0.00  0.00    +0.093 A 
ATOM      6  C   UNL     1       9.546   1.469  23.251  0.00  0.00    +0.000 A 
ATOM      7  C   UNL     1      10.144   2.699  23.064  0.00  0.00    +0.017 A 
ATOM      8  C   UNL     1       9.681   3.754  23.830  0.00  0.00    +0.001 A 
ATOM      9  C   UNL     1       8.644   3.517  24.782  0.00  0.00    +0.072 A 
ATOM     10  C   UNL     1       8.393   4.609  25.620  0.00  0.00    +0.028 A 
ATOM     11  C   UNL     1       9.036   5.861  25.489  0.00  0.00    +0.002 A 
ATOM     12  C   UNL     1       9.981   6.065  24.491  0.00  0.00    +0.001 A 
ATOM     13  C   UNL     1      10.313   5.005  23.666  0.00  0.00    +0.010 A 
ATOM     14  C   UNL     1      10.079   0.184  22.752  0.00  0.00    +0.162 C 
ATOM     15  N   UNL     1       7.988   2.282  24.864  0.00  0.00    -0.245 NA
ATOM     16  N   UNL     1       9.254  -0.769  23.468  0.00  0.00    -0.302 N 
ATOM     17  C   UNL     1       9.627  -2.065  23.636  0.00  0.00    +0.259 A 
ATOM     18  O   UNL     1      10.703  -2.513  23.257  0.00  0.00    -0.267 OA
ATOM     19  C   UNL     1       8.603  -2.935  24.279  0.00  0.00    +0.061 A 
ATOM     20  C   UNL     1       9.041  -4.323  24.585  0.00  0.00    +0.273 C 
ATOM     21  O   UNL     1       8.100  -5.342  24.255  0.00  0.00    -0.457 OA
ATOM     22  C   UNL     1       6.785  -5.023  24.265  0.00  0.00    +0.344 C 
ATOM     23  O   UNL     1       5.958  -5.854  24.632  0.00  0.00    -0.247 OA
ENDROOT
BRANCH   1  25
ATOM     24  C   UNL     1       4.159  -3.180  24.787  0.00  0.00    +0.007 C 
ATOM     25  C   UNL     1       4.874  -3.605  23.520  0.00  0.00    +0.048 C 
ENDBRANCH   1  25
BRANCH   1  26
ATOM     26  O   UNL     1       6.842  -3.810  22.193  0.00  0.00    -0.373 OA
ATOM     27  H   UNL     1       7.763  -4.127  22.201  0.00  0.00    +0.211 HD
ENDBRANCH   1  26
TORSDOF 2
ENDMDL
MODEL 5
REMARK VINA RESULT:      -7.8      1.889      2.522
REMARK  Name = 
REMARK  3 active torsions:
REMARK  status: ('A' for Active; 'I' for Inactive)
REMARK    1  A    between atoms: C_1  and  C_2
REMARK    2  A    between atoms: C_2  and  C_3
REMARK    3  A    between atoms: C_3  and  O_4
REMARK                            x       y       z     vdW  Elec       q    Type
REMARK                         _______ _______ _______ _____ _____    ______ ____
ROOT
ATOM      1  C   UNL     1       5.308  -4.892  25.138  0.00  0.00    +0.188 C 
ATOM      2  C   UNL     1       6.294  -3.762  25.481  0.00  0.00    +0.008 A 
ATOM      3  C   UNL     1       6.338  -2.319  25.054  0.00  0.00    +0.035 A 
ATOM      4  C   UNL     1       7.533  -1.734  24.791  0.00  0.00    +0.071 A 
ATOM      5  C   UNL     1       8.128  -0.391  24.427  0.00  0.00    +0.093 A 
ATOM      6  C   UNL     1       9.400  -0.652  23.926  0.00  0.00    +0.000 A 
ATOM      7  C   UNL     1      10.255   0.343  23.498  0.00  0.00    +0.017 A 
ATOM      8  C   UNL     1       9.869   1.653  23.721  0.00  0.00    +0.001 A 
ATOM      9  C   UNL     1       8.639   1.907  24.399  0.00  0.00    +0.072 A 
ATOM     10  C   UNL     1       8.450   3.254  24.730  0.00  0.00    +0.028 A 
ATOM     11  C   UNL     1       9.342   4.285  24.357  0.00  0.00    +0.002 A 
ATOM     12  C   UNL     1      10.487   3.993  23.625  0.00  0.00    +0.001 A 
ATOM     13  C   UNL     1      10.758   2.673  23.316  0.00  0.00    +0.010 A 
ATOM     14  C   UNL     1       9.754  -2.082  24.038  0.00  0.00    +0.162 C 
ATOM     15  N   UNL     1       7.747   0.875  24.718  0.00  0.00    -0.245 NA
ATOM     16  N   UNL     1       8.630  -2.599  24.796  0.00  0.00    -0.302 N 
ATOM     17  C   UNL     1       8.697  -3.773  25.476  0.00  0.00    +0.259 A 
ATOM     18  O   UNL     1       9.715  -4.450  25.557  0.00  0.00    -0.267 OA
ATOM     19  C   UNL     1       7.414  -4.218  26.088  0.00  0.00    +0.061 A 
ATOM     20  C   UNL     1       7.497  -5.433  26.942  0.00  0.00    +0.273 C 
ATOM     21  O   UNL     1       6.456  -6.387  26.742  0.00  0.00    -0.457 OA
ATOM     22  C   UNL     1       5.255  -5.938  26.308  0.00  0.00    +0.344 C 
ATOM     23  O   UNL     1       4.224  -6.473  26.706  0.00  0.00    -0.247 OA
ENDROOT
BRANCH   1  25
ATOM     24  C   UNL     1       3.481  -5.294  23.329  0.00  0.00    +0.007 C 
ATOM     25  C   UNL     1       3.851  -4.690  24.669  0.00  0.00    +0.048 C 
ENDBRANCH   1  25
BRANCH   1  26
ATOM     26  O   UNL     1       5.962  -5.598  24.038  0.00  0.00    -0.373 OA
ATOM     27  H   UNL     1       5.276  -5.830  23.387  0.00  0.00    +0.211 HD
ENDBRANCH   1  26
TORSDOF 2
ENDMDL
MODEL 6
REMARK VINA RESULT:      -7.6      2.242      3.415
REMARK  Name = 
REMARK  3 active torsions:
REMARK  status: ('A' for Active; 'I' for Inactive)
REMARK    1  A    between atoms: C_1  and  C_2
REMARK    2  A    between atoms: C_2  and  C_3
REMARK    3  A    between atoms: C_3  and  O_4
REMARK                            x       y       z     vdW  Elec       q    Type
REMARK                         _______ _______ _______ _____ _____    ______ ____
ROOT
ATOM      1  C   UNL     1       6.512  -4.685  23.330  0.00  0.00    +0.188 C 
ATOM      2  C   UNL     1       6.610  -3.260  23.901  0.00  0.00    +0.008 A 
ATOM      3  C   UNL     1       6.700  -1.921  23.219  0.00  0.00    +0.035 A 
ATOM      4  C   UNL     1       7.501  -0.957  23.736  0.00  0.00    +0.071 A 
ATOM      5  C   UNL     1       7.885   0.491  23.521  0.00  0.00    +0.093 A 
ATOM      6  C   UNL     1       9.078   0.684  24.211  0.00  0.00    +0.000 A 
ATOM      7  C   UNL     1       9.731   1.899  24.254  0.00  0.00    +0.017 A 
ATOM      8  C   UNL     1       9.081   2.990  23.704  0.00  0.00    +0.001 A 
ATOM      9  C   UNL     1       7.775   2.815  23.155  0.00  0.00    +0.072 A 
ATOM     10  C   UNL     1       7.150   4.016  22.803  0.00  0.00    +0.028 A 
ATOM     11  C   UNL     1       7.774   5.280  22.895  0.00  0.00    +0.002 A 
ATOM     12  C   UNL     1       9.080   5.388  23.360  0.00  0.00    +0.001 A 
ATOM     13  C   UNL     1       9.730   4.241  23.777  0.00  0.00    +0.010 A 
ATOM     14  C   UNL     1       9.468  -0.514  24.983  0.00  0.00    +0.162 C 
ATOM     15  N   UNL     1       7.193   1.547  23.031  0.00  0.00    -0.245 NA
ATOM     16  N   UNL     1       8.308  -1.365  24.801  0.00  0.00    -0.302 N 
ATOM     17  C   UNL     1       8.035  -2.402  25.636  0.00  0.00    +0.259 A 
ATOM     18  O   UNL     1       8.700  -2.660  26.633  0.00  0.00    -0.267 OA
ATOM     19  C   UNL     1       6.881  -3.250  25.227  0.00  0.00    +0.061 A 
ATOM     20  C   UNL     1       6.489  -4.311  26.194  0.00  0.00    +0.273 C 
ATOM     21  O   UNL     1       6.212  -5.585  25.617  0.00  0.00    -0.457 OA
ATOM     22  C   UNL     1       5.759  -5.622  24.342  0.00  0.00    +0.344 C 
ATOM     23  O   UNL     1       4.939  -6.474  24.010  0.00  0.00    -0.247 OA
ENDROOT
BRANCH   1  25
ATOM     24  C   UNL     1       6.818  -6.017  21.116  0.00  0.00    +0.007 C 
ATOM     25  C   UNL     1       5.982  -5.047  21.926  0.00  0.00    +0.048 C 
ENDBRANCH   1  25
BRANCH   1  26
ATOM     26  O   UNL     1       7.894  -5.159  23.344  0.00  0.00    -0.373 OA
ATOM     27  H   UNL     1       7.990  -5.769  24.097  0.00  0.00    +0.211 HD
ENDBRANCH   1  26
TORSDOF 2
ENDMDL
MODEL 7
REMARK VINA RESULT:      -7.6      3.558      7.964
REMARK  Name = 
REMARK  3 active torsions:
REMARK  status: ('A' for Active; 'I' for Inactive)
REMARK    1  A    between atoms: C_1  and  C_2
REMARK    2  A    between atoms: C_2  and  C_3
REMARK    3  A    between atoms: C_3  and  O_4
REMARK                            x       y       z     vdW  Elec       q    Type
REMARK                         _______ _______ _______ _____ _____    ______ ____
ROOT
ATOM      1  C   UNL     1       8.795   1.770  24.362  0.00  0.00    +0.188 C 
ATOM      2  C   UNL     1       8.125   0.543  23.720  0.00  0.00    +0.008 A 
ATOM      3  C   UNL     1       6.960  -0.300  24.166  0.00  0.00    +0.035 A 
ATOM      4  C   UNL     1       6.991  -1.642  23.975  0.00  0.00    +0.071 A 
ATOM      5  C   UNL     1       6.127  -2.873  24.146  0.00  0.00    +0.093 A 
ATOM      6  C   UNL     1       6.990  -3.963  24.102  0.00  0.00    +0.000 A 
ATOM      7  C   UNL     1       6.555  -5.268  24.214  0.00  0.00    +0.017 A 
ATOM      8  C   UNL     1       5.188  -5.484  24.222  0.00  0.00    +0.001 A 
ATOM      9  C   UNL     1       4.309  -4.368  24.086  0.00  0.00    +0.072 A 
ATOM     10  C   UNL     1       2.967  -4.729  23.920  0.00  0.00    +0.028 A 
ATOM     11  C   UNL     1       2.503  -6.063  23.969  0.00  0.00    +0.002 A 
ATOM     12  C   UNL     1       3.392  -7.109  24.186  0.00  0.00    +0.001 A 
ATOM     13  C   UNL     1       4.740  -6.820  24.301  0.00  0.00    +0.010 A 
ATOM     14  C   UNL     1       8.376  -3.557  23.792  0.00  0.00    +0.162 C 
ATOM     15  N   UNL     1       4.786  -3.051  24.087  0.00  0.00    -0.245 NA
ATOM     16  N   UNL     1       8.206  -2.145  23.504  0.00  0.00    -0.302 N 
ATOM     17  C   UNL     1       9.123  -1.438  22.794  0.00  0.00    +0.259 A 
ATOM     18  O   UNL     1      10.123  -1.938  22.292  0.00  0.00    -0.267 OA
ATOM     19  C   UNL     1       8.855   0.025  22.705  0.00  0.00    +0.061 A 
ATOM     20  C   UNL     1       9.777   0.794  21.828  0.00  0.00    +0.273 C 
ATOM     21  O   UNL     1      10.238   2.031  22.367  0.00  0.00    -0.457 OA
ATOM     22  C   UNL     1       9.443   2.675  23.254  0.00  0.00    +0.344 C 
ATOM     23  O   UNL     1       9.405   3.902  23.260  0.00  0.00    -0.247 OA
ENDROOT
BRANCH   1  25
ATOM     24  C   UNL     1       6.685   3.115  25.076  0.00  0.00    +0.007 C 
ATOM     25  C   UNL     1       8.121   2.728  25.367  0.00  0.00    +0.048 C 
ENDBRANCH   1  25
BRANCH   1  26
ATOM     26  O   UNL     1       9.930   1.203  25.087  0.00  0.00    -0.373 OA
ATOM     27  H   UNL     1       9.868   0.233  25.021  0.00  0.00    +0.211 HD
ENDBRANCH   1  26
TORSDOF 2
ENDMDL
MODEL 8
REMARK VINA RESULT:      -7.4      1.452      1.772
REMARK  Name = 
REMARK  3 active torsions:
REMARK  status: ('A' for Active; 'I' for Inactive)
REMARK    1  A    between atoms: C_1  and  C_2
REMARK    2  A    between atoms: C_2  and  C_3
REMARK    3  A    between atoms: C_3  and  O_4
REMARK                            x       y       z     vdW  Elec       q    Type
REMARK                         _______ _______ _______ _____ _____    ______ ____
ROOT
ATOM      1  C   UNL     1       4.056  -6.328  26.746  0.00  0.00    +0.188 C 
ATOM      2  C   UNL     1       5.063  -5.187  26.519  0.00  0.00    +0.008 A 
ATOM      3  C   UNL     1       5.043  -4.017  25.572  0.00  0.00    +0.035 A 
ATOM      4  C   UNL     1       6.193  -3.619  24.974  0.00  0.00    +0.071 A 
ATOM      5  C   UNL     1       6.727  -2.537  24.060  0.00  0.00    +0.093 A 
ATOM      6  C   UNL     1       7.934  -3.013  23.558  0.00  0.00    +0.000 A 
ATOM      7  C   UNL     1       8.723  -2.285  22.690  0.00  0.00    +0.017 A 
ATOM      8  C   UNL     1       8.352  -0.976  22.438  0.00  0.00    +0.001 A 
ATOM      9  C   UNL     1       7.207  -0.441  23.101  0.00  0.00    +0.072 A 
ATOM     10  C   UNL     1       7.044   0.936  22.912  0.00  0.00    +0.028 A 
ATOM     11  C   UNL     1       7.876   1.716  22.076  0.00  0.00    +0.002 A 
ATOM     12  C   UNL     1       8.930   1.128  21.388  0.00  0.00    +0.001 A 
ATOM     13  C   UNL     1       9.177  -0.219  21.578  0.00  0.00    +0.010 A 
ATOM     14  C   UNL     1       8.314  -4.304  24.167  0.00  0.00    +0.162 C 
ATOM     15  N   UNL     1       6.369  -1.242  23.887  0.00  0.00    -0.245 NA
ATOM     16  N   UNL     1       7.292  -4.455  25.185  0.00  0.00    -0.302 N 
ATOM     17  C   UNL     1       7.450  -5.284  26.250  0.00  0.00    +0.259 A 
ATOM     18  O   UNL     1       8.478  -5.914  26.469  0.00  0.00    -0.267 OA
ATOM     19  C   UNL     1       6.252  -5.417  27.125  0.00  0.00    +0.061 A 
ATOM     20  C   UNL     1       6.447  -6.219  28.363  0.00  0.00    +0.273 C 
ATOM     21  O   UNL     1       5.400  -7.140  28.660  0.00  0.00    -0.457 OA
ATOM     22  C   UNL     1       4.152  -6.849  28.225  0.00  0.00    +0.344 C 
ATOM     23  O   UNL     1       3.180  -7.155  28.910  0.00  0.00    -0.247 OA
ENDROOT
BRANCH   1  25
ATOM     24  C   UNL     1       2.013  -7.384  25.529  0.00  0.00    +0.007 C 
ATOM     25  C   UNL     1       2.553  -6.269  26.402  0.00  0.00    +0.048 C 
ENDBRANCH   1  25
BRANCH   1  26
ATOM     26  O   UNL     1       4.585  -7.421  25.933  0.00  0.00    -0.373 OA
ATOM     27  H   UNL     1       5.292  -7.057  25.372  0.00  0.00    +0.211 HD
ENDBRANCH   1  26
TORSDOF 2
ENDMDL
MODEL 9
REMARK VINA RESULT:      -7.3      5.206      9.058
REMARK  Name = 
REMARK  3 active torsions:
REMARK  status: ('A' for Active; 'I' for Inactive)
REMARK    1  A    between atoms: C_1  and  C_2
REMARK    2  A    between atoms: C_2  and  C_3
REMARK    3  A    between atoms: C_3  and  O_4
REMARK                            x       y       z     vdW  Elec       q    Type
REMARK                         _______ _______ _______ _____ _____    ______ ____
ROOT
ATOM      1  C   UNL     1       8.443   4.671  24.232  0.00  0.00    +0.188 C 
ATOM      2  C   UNL     1       8.016   3.202  24.075  0.00  0.00    +0.008 A 
ATOM      3  C   UNL     1       8.163   2.021  24.998  0.00  0.00    +0.035 A 
ATOM      4  C   UNL     1       8.456   0.801  24.483  0.00  0.00    +0.071 A 
ATOM      5  C   UNL     1       8.630  -0.641  24.908  0.00  0.00    +0.093 A 
ATOM      6  C   UNL     1       9.325  -1.269  23.880  0.00  0.00    +0.000 A 
ATOM      7  C   UNL     1       9.658  -2.608  23.908  0.00  0.00    +0.017 A 
ATOM      8  C   UNL     1       9.144  -3.369  24.943  0.00  0.00    +0.001 A 
ATOM      9  C   UNL     1       8.282  -2.749  25.898  0.00  0.00    +0.072 A 
ATOM     10  C   UNL     1       7.680  -3.654  26.779  0.00  0.00    +0.028 A 
ATOM     11  C   UNL     1       7.958  -5.040  26.789  0.00  0.00    +0.002 A 
ATOM     12  C   UNL     1       8.869  -5.582  25.890  0.00  0.00    +0.001 A 
ATOM     13  C   UNL     1       9.454  -4.746  24.956  0.00  0.00    +0.010 A 
ATOM     14  C   UNL     1       9.531  -0.370  22.725  0.00  0.00    +0.162 C 
ATOM     15  N   UNL     1       8.057  -1.367  25.898  0.00  0.00    -0.245 NA
ATOM     16  N   UNL     1       8.753   0.789  23.119  0.00  0.00    -0.302 N 
ATOM     17  C   UNL     1       8.322   1.709  22.216  0.00  0.00    +0.259 A 
ATOM     18  O   UNL     1       8.498   1.605  21.008  0.00  0.00    -0.267 OA
ATOM     19  C   UNL     1       7.651   2.901  22.807  0.00  0.00    +0.061 A 
ATOM     20  C   UNL     1       7.062   3.856  21.831  0.00  0.00    +0.273 C 
ATOM     21  O   UNL     1       7.308   5.233  22.105  0.00  0.00    -0.457 OA
ATOM     22  C   UNL     1       7.497   5.603  23.393  0.00  0.00    +0.344 C 
ATOM     23  O   UNL     1       7.082   6.691  23.782  0.00  0.00    -0.247 OA
ENDROOT
BRANCH   1  25
ATOM     24  C   UNL     1       9.809   6.402  25.614  0.00  0.00    +0.007 C 
ATOM     25  C   UNL     1       8.680   5.391  25.577  0.00  0.00    +0.048 C 
ENDBRANCH   1  25
BRANCH   1  26
ATOM     26  O   UNL     1       9.730   4.733  23.541  0.00  0.00    -0.373 OA
ATOM     27  H   UNL     1       9.633   4.262  22.694  0.00  0.00    +0.211 HD
ENDBRANCH   1  26
TORSDOF 2
ENDMDL
