MODEL 1
REMARK VINA RESULT:      -6.5      0.000      0.000
REMARK  Name = 
REMARK  13 active torsions:
REMARK  status: ('A' for Active; 'I' for Inactive)
REMARK    1  A    between atoms: C_1  and  C_2
REMARK    2  A    between atoms: C_2  and  C_3
REMARK    3  A    between atoms: C_3  and  C_4
REMARK    4  A    between atoms: C_4  and  N_5
REMARK    5  A    between atoms: C_6  and  C_7
REMARK    6  A    between atoms: C_7  and  C_8
REMARK    7  A    between atoms: C_10  and  O_11
REMARK    8  A    between atoms: O_11  and  C_12
REMARK    9  A    between atoms: C_13  and  O_14
REMARK   10  A    between atoms: O_14  and  C_15
REMARK   11  A    between atoms: C_16  and  O_17
REMARK   12  A    between atoms: O_17  and  C_18
REMARK   13  A    between atoms: C_22  and  N_23
REMARK                            x       y       z     vdW  Elec       q    Type
REMARK                         _______ _______ _______ _____ _____    ______ ____
ROOT
ATOM      1  N   UNL     1       5.831  -4.671  24.990  0.00  0.00    -0.312 N 
ATOM      2  C   UNL     1       4.884  -5.325  25.742  0.00  0.00    +0.166 A 
ATOM      3  C   UNL     1       5.600  -6.050  26.674  0.00  0.00    +0.148 A 
ATOM      4  C   UNL     1       4.848  -6.779  27.615  0.00  0.00    +0.147 A 
ATOM      5  N   UNL     1       3.496  -6.735  27.542  0.00  0.00    -0.219 NA
ATOM      6  C   UNL     1       2.935  -6.000  26.559  0.00  0.00    +0.225 A 
ATOM      7  N   UNL     1       6.953  -5.878  26.483  0.00  0.00    -0.227 NA
ATOM      8  N   UNL     1       3.547  -5.254  25.619  0.00  0.00    -0.216 NA
ATOM      9  C   UNL     1       7.084  -5.065  25.442  0.00  0.00    +0.116 A 
ENDROOT
BRANCH   4  10
ATOM     10  N   UNL     1       5.419  -7.522  28.643  0.00  0.00    -0.341 N 
ATOM     11  H   UNL     1       4.719  -7.823  29.306  0.00  0.00    +0.144 HD
ATOM     12  H   UNL     1       6.255  -7.088  29.020  0.00  0.00    +0.144 HD
ENDBRANCH   4  10
BRANCH   1  13
ATOM     13  C   UNL     1       5.499  -3.656  24.013  0.00  0.00    +0.125 C 
BRANCH  13  14
ATOM     14  C   UNL     1       5.212  -4.136  22.591  0.00  0.00    +0.021 C 
BRANCH  14  16
ATOM     15  C   UNL     1       6.844  -5.709  21.517  0.00  0.00    +0.004 C 
ATOM     16  C   UNL     1       6.446  -4.250  21.697  0.00  0.00    -0.002 C 
ENDBRANCH  14  16
ENDBRANCH  13  14
ENDBRANCH   1  13
BRANCH   9  17
ATOM     17  C   UNL     1       8.381  -4.684  24.765  0.00  0.00    +0.109 C 
BRANCH  17  18
ATOM     18  C   UNL     1       8.841  -3.237  24.905  0.00  0.00    -0.033 A 
ATOM     19  C   UNL     1       8.525  -2.473  26.042  0.00  0.00    +0.053 A 
ATOM     20  C   UNL     1       8.858  -1.108  26.127  0.00  0.00    +0.165 A 
ATOM     21  C   UNL     1       9.487  -0.477  25.033  0.00  0.00    +0.204 A 
ATOM     22  C   UNL     1       9.847  -1.244  23.906  0.00  0.00    +0.165 A 
ATOM     23  C   UNL     1       9.504  -2.602  23.847  0.00  0.00    +0.053 A 
BRANCH  20  24
ATOM     24  O   UNL     1       8.622  -0.336  27.235  0.00  0.00    -0.491 OA
ATOM     25  C   UNL     1       7.296   0.093  27.502  0.00  0.00    +0.277 C 
ENDBRANCH  20  24
BRANCH  21  26
ATOM     26  O   UNL     1       9.885   0.843  25.009  0.00  0.00    -0.488 OA
ATOM     27  C   UNL     1       8.911   1.799  24.603  0.00  0.00    +0.277 C 
ENDBRANCH  21  26
BRANCH  22  28
ATOM     28  O   UNL     1      10.494  -0.586  22.886  0.00  0.00    -0.491 OA
ATOM     29  C   UNL     1       9.750  -0.412  21.685  0.00  0.00    +0.277 C 
ENDBRANCH  22  28
ENDBRANCH  17  18
ENDBRANCH   9  17
TORSDOF 9
ENDMDL
MODEL 2
REMARK VINA RESULT:      -6.4      3.998      7.385
REMARK  Name = 
REMARK  13 active torsions:
REMARK  status: ('A' for Active; 'I' for Inactive)
REMARK    1  A    between atoms: C_1  and  C_2
REMARK    2  A    between atoms: C_2  and  C_3
REMARK    3  A    between atoms: C_3  and  C_4
REMARK    4  A    between atoms: C_4  and  N_5
REMARK    5  A    between atoms: C_6  and  C_7
REMARK    6  A    between atoms: C_7  and  C_8
REMARK    7  A    between atoms: C_10  and  O_11
REMARK    8  A    between atoms: O_11  and  C_12
REMARK    9  A    between atoms: C_13  and  O_14
REMARK   10  A    between atoms: O_14  and  C_15
REMARK   11  A    between atoms: C_16  and  O_17
REMARK   12  A    between atoms: O_17  and  C_18
REMARK   13  A    between atoms: C_22  and  N_23
REMARK                            x       y       z     vdW  Elec       q    Type
REMARK                         _______ _______ _______ _____ _____    ______ ____
ROOT
ATOM      1  N   UNL     1       8.880  -0.610  25.110  0.00  0.00    -0.312 N 
ATOM      2  C   UNL     1       8.901   0.710  24.728  0.00  0.00    +0.166 A 
ATOM      3  C   UNL     1       9.382   0.703  23.433  0.00  0.00    +0.148 A 
ATOM      4  C   UNL     1       9.451   1.950  22.783  0.00  0.00    +0.147 A 
ATOM      5  N   UNL     1       9.061   3.058  23.458  0.00  0.00    -0.219 NA
ATOM      6  C   UNL     1       8.636   2.913  24.729  0.00  0.00    +0.225 A 
ATOM      7  N   UNL     1       9.682  -0.581  23.037  0.00  0.00    -0.227 NA
ATOM      8  N   UNL     1       8.512   1.778  25.445  0.00  0.00    -0.216 NA
ATOM      9  C   UNL     1       9.404  -1.366  24.070  0.00  0.00    +0.116 A 
ENDROOT
BRANCH   4  10
ATOM     10  N   UNL     1       9.869   2.105  21.465  0.00  0.00    -0.341 N 
ATOM     11  H   UNL     1      10.772   1.675  21.317  0.00  0.00    +0.144 HD
ATOM     12  H   UNL     1       9.750   3.054  21.128  0.00  0.00    +0.144 HD
ENDBRANCH   4  10
BRANCH   1  13
ATOM     13  C   UNL     1       8.270  -1.065  26.342  0.00  0.00    +0.125 C 
BRANCH  13  14
ATOM     14  C   UNL     1       6.751  -0.932  26.449  0.00  0.00    +0.021 C 
BRANCH  14  16
ATOM     15  C   UNL     1       4.746  -2.206  25.644  0.00  0.00    +0.004 C 
ATOM     16  C   UNL     1       5.983  -1.423  25.223  0.00  0.00    -0.002 C 
ENDBRANCH  14  16
ENDBRANCH  13  14
ENDBRANCH   1  13
BRANCH   9  17
ATOM     17  C   UNL     1       9.692  -2.848  24.167  0.00  0.00    +0.109 C 
BRANCH  17  18
ATOM     18  C   UNL     1       8.497  -3.794  24.129  0.00  0.00    -0.033 A 
ATOM     19  C   UNL     1       7.675  -3.892  22.993  0.00  0.00    +0.053 A 
ATOM     20  C   UNL     1       6.512  -4.685  22.993  0.00  0.00    +0.165 A 
ATOM     21  C   UNL     1       6.136  -5.369  24.169  0.00  0.00    +0.204 A 
ATOM     22  C   UNL     1       6.977  -5.311  25.299  0.00  0.00    +0.165 A 
ATOM     23  C   UNL     1       8.130  -4.513  25.273  0.00  0.00    +0.053 A 
BRANCH  20  24
ATOM     24  O   UNL     1       5.710  -4.858  21.894  0.00  0.00    -0.491 OA
ATOM     25  C   UNL     1       6.153  -5.708  20.848  0.00  0.00    +0.277 C 
ENDBRANCH  20  24
BRANCH  21  26
ATOM     26  O   UNL     1       5.039  -6.194  24.283  0.00  0.00    -0.488 OA
ATOM     27  C   UNL     1       3.786  -5.565  24.536  0.00  0.00    +0.277 C 
ENDBRANCH  21  26
BRANCH  22  28
ATOM     28  O   UNL     1       6.583  -6.027  26.405  0.00  0.00    -0.491 OA
ATOM     29  C   UNL     1       6.235  -5.262  27.554  0.00  0.00    +0.277 C 
ENDBRANCH  22  28
ENDBRANCH  17  18
ENDBRANCH   9  17
TORSDOF 9
ENDMDL
MODEL 3
REMARK VINA RESULT:      -6.3      0.138      2.344
REMARK  Name = 
REMARK  13 active torsions:
REMARK  status: ('A' for Active; 'I' for Inactive)
REMARK    1  A    between atoms: C_1  and  C_2
REMARK    2  A    between atoms: C_2  and  C_3
REMARK    3  A    between atoms: C_3  and  C_4
REMARK    4  A    between atoms: C_4  and  N_5
REMARK    5  A    between atoms: C_6  and  C_7
REMARK    6  A    between atoms: C_7  and  C_8
REMARK    7  A    between atoms: C_10  and  O_11
REMARK    8  A    between atoms: O_11  and  C_12
REMARK    9  A    between atoms: C_13  and  O_14
REMARK   10  A    between atoms: O_14  and  C_15
REMARK   11  A    between atoms: C_16  and  O_17
REMARK   12  A    between atoms: O_17  and  C_18
REMARK   13  A    between atoms: C_22  and  N_23
REMARK                            x       y       z     vdW  Elec       q    Type
REMARK                         _______ _______ _______ _____ _____    ______ ____
ROOT
ATOM      1  N   UNL     1       5.841  -4.741  24.990  0.00  0.00    -0.312 N 
ATOM      2  C   UNL     1       4.900  -5.404  25.742  0.00  0.00    +0.166 A 
ATOM      3  C   UNL     1       5.621  -6.086  26.703  0.00  0.00    +0.148 A 
ATOM      4  C   UNL     1       4.874  -6.814  27.649  0.00  0.00    +0.147 A 
ATOM      5  N   UNL     1       3.523  -6.811  27.552  0.00  0.00    -0.219 NA
ATOM      6  C   UNL     1       2.958  -6.118  26.542  0.00  0.00    +0.225 A 
ATOM      7  N   UNL     1       6.971  -5.877  26.531  0.00  0.00    -0.227 NA
ATOM      8  N   UNL     1       3.564  -5.377  25.594  0.00  0.00    -0.216 NA
ATOM      9  C   UNL     1       7.096  -5.087  25.473  0.00  0.00    +0.116 A 
ENDROOT
BRANCH   4  10
ATOM     10  N   UNL     1       5.448  -7.514  28.704  0.00  0.00    -0.341 N 
ATOM     11  H   UNL     1       6.118  -6.941  29.200  0.00  0.00    +0.144 HD
ATOM     12  H   UNL     1       5.748  -8.446  28.437  0.00  0.00    +0.144 HD
ENDBRANCH   4  10
BRANCH   1  13
ATOM     13  C   UNL     1       5.496  -3.761  23.983  0.00  0.00    +0.125 C 
BRANCH  13  14
ATOM     14  C   UNL     1       5.215  -4.287  22.576  0.00  0.00    +0.021 C 
BRANCH  14  16
ATOM     15  C   UNL     1       6.824  -5.994  21.689  0.00  0.00    +0.004 C 
ATOM     16  C   UNL     1       6.461  -4.515  21.722  0.00  0.00    -0.002 C 
ENDBRANCH  14  16
ENDBRANCH  13  14
ENDBRANCH   1  13
BRANCH   9  17
ATOM     17  C   UNL     1       8.394  -4.684  24.809  0.00  0.00    +0.109 C 
BRANCH  17  18
ATOM     18  C   UNL     1       8.746  -3.200  24.811  0.00  0.00    -0.033 A 
ATOM     19  C   UNL     1       9.436  -2.608  23.738  0.00  0.00    +0.053 A 
ATOM     20  C   UNL     1       9.852  -1.264  23.784  0.00  0.00    +0.165 A 
ATOM     21  C   UNL     1       9.610  -0.501  24.945  0.00  0.00    +0.204 A 
ATOM     22  C   UNL     1       8.882  -1.072  26.009  0.00  0.00    +0.165 A 
ATOM     23  C   UNL     1       8.478  -2.413  25.937  0.00  0.00    +0.053 A 
BRANCH  20  24
ATOM     24  O   UNL     1      10.476  -0.627  22.743  0.00  0.00    -0.491 OA
ATOM     25  C   UNL     1       9.706  -0.236  21.617  0.00  0.00    +0.277 C 
ENDBRANCH  20  24
BRANCH  21  26
ATOM     26  O   UNL     1       9.945   0.828  25.098  0.00  0.00    -0.488 OA
ATOM     27  C   UNL     1       9.004   1.785  24.622  0.00  0.00    +0.277 C 
ENDBRANCH  21  26
BRANCH  22  28
ATOM     28  O   UNL     1       8.641  -0.271  27.100  0.00  0.00    -0.491 OA
ATOM     29  C   UNL     1       7.273  -0.016  27.399  0.00  0.00    +0.277 C 
ENDBRANCH  22  28
ENDBRANCH  17  18
ENDBRANCH   9  17
TORSDOF 9
ENDMDL
MODEL 4
REMARK VINA RESULT:      -6.2      4.067      7.106
REMARK  Name = 
REMARK  13 active torsions:
REMARK  status: ('A' for Active; 'I' for Inactive)
REMARK    1  A    between atoms: C_1  and  C_2
REMARK    2  A    between atoms: C_2  and  C_3
REMARK    3  A    between atoms: C_3  and  C_4
REMARK    4  A    between atoms: C_4  and  N_5
REMARK    5  A    between atoms: C_6  and  C_7
REMARK    6  A    between atoms: C_7  and  C_8
REMARK    7  A    between atoms: C_10  and  O_11
REMARK    8  A    between atoms: O_11  and  C_12
REMARK    9  A    between atoms: C_13  and  O_14
REMARK   10  A    between atoms: O_14  and  C_15
REMARK   11  A    between atoms: C_16  and  O_17
REMARK   12  A    between atoms: O_17  and  C_18
REMARK   13  A    between atoms: C_22  and  N_23
REMARK                            x       y       z     vdW  Elec       q    Type
REMARK                         _______ _______ _______ _____ _____    ______ ____
ROOT
ATOM      1  N   UNL     1       8.639  -0.500  24.995  0.00  0.00    -0.312 N 
ATOM      2  C   UNL     1       8.754   0.826  24.654  0.00  0.00    +0.166 A 
ATOM      3  C   UNL     1       9.439   0.833  23.455  0.00  0.00    +0.148 A 
ATOM      4  C   UNL     1       9.643   2.091  22.856  0.00  0.00    +0.147 A 
ATOM      5  N   UNL     1       9.176   3.195  23.486  0.00  0.00    -0.219 NA
ATOM      6  C   UNL     1       8.545   3.035  24.668  0.00  0.00    +0.225 A 
ATOM      7  N   UNL     1       9.769  -0.451  23.081  0.00  0.00    -0.227 NA
ATOM      8  N   UNL     1       8.279   1.889  25.325  0.00  0.00    -0.216 NA
ATOM      9  C   UNL     1       9.307  -1.249  24.034  0.00  0.00    +0.116 A 
ENDROOT
BRANCH   4  10
ATOM     10  N   UNL     1      10.275   2.261  21.628  0.00  0.00    -0.341 N 
ATOM     11  H   UNL     1      11.264   2.065  21.698  0.00  0.00    +0.144 HD
ATOM     12  H   UNL     1      10.008   3.126  21.170  0.00  0.00    +0.144 HD
ENDBRANCH   4  10
BRANCH   1  13
ATOM     13  C   UNL     1       7.825  -0.963  26.099  0.00  0.00    +0.125 C 
BRANCH  13  14
ATOM     14  C   UNL     1       6.338  -0.615  26.053  0.00  0.00    +0.021 C 
BRANCH  14  16
ATOM     15  C   UNL     1       4.630  -2.442  25.862  0.00  0.00    +0.004 C 
ATOM     16  C   UNL     1       5.514  -1.470  25.092  0.00  0.00    -0.002 C 
ENDBRANCH  14  16
ENDBRANCH  13  14
ENDBRANCH   1  13
BRANCH   9  17
ATOM     17  C   UNL     1       9.540  -2.740  24.140  0.00  0.00    +0.109 C 
BRANCH  17  18
ATOM     18  C   UNL     1       8.306  -3.637  24.166  0.00  0.00    -0.033 A 
ATOM     19  C   UNL     1       7.990  -4.416  25.293  0.00  0.00    +0.053 A 
ATOM     20  C   UNL     1       6.912  -5.322  25.280  0.00  0.00    +0.165 A 
ATOM     21  C   UNL     1       6.155  -5.486  24.101  0.00  0.00    +0.204 A 
ATOM     22  C   UNL     1       6.438  -4.678  22.981  0.00  0.00    +0.165 A 
ATOM     23  C   UNL     1       7.517  -3.783  23.019  0.00  0.00    +0.053 A 
BRANCH  20  24
ATOM     24  O   UNL     1       6.529  -6.062  26.369  0.00  0.00    -0.491 OA
ATOM     25  C   UNL     1       6.565  -5.460  27.654  0.00  0.00    +0.277 C 
ENDBRANCH  20  24
BRANCH  21  26
ATOM     26  O   UNL     1       5.064  -6.319  23.976  0.00  0.00    -0.488 OA
ATOM     27  C   UNL     1       3.819  -5.821  24.454  0.00  0.00    +0.277 C 
ENDBRANCH  21  26
BRANCH  22  28
ATOM     28  O   UNL     1       5.644  -4.851  21.871  0.00  0.00    -0.491 OA
ATOM     29  C   UNL     1       6.181  -5.674  20.841  0.00  0.00    +0.277 C 
ENDBRANCH  22  28
ENDBRANCH  17  18
ENDBRANCH   9  17
TORSDOF 9
ENDMDL
MODEL 5
REMARK VINA RESULT:      -6.1      2.867      4.906
REMARK  Name = 
REMARK  13 active torsions:
REMARK  status: ('A' for Active; 'I' for Inactive)
REMARK    1  A    between atoms: C_1  and  C_2
REMARK    2  A    between atoms: C_2  and  C_3
REMARK    3  A    between atoms: C_3  and  C_4
REMARK    4  A    between atoms: C_4  and  N_5
REMARK    5  A    between atoms: C_6  and  C_7
REMARK    6  A    between atoms: C_7  and  C_8
REMARK    7  A    between atoms: C_10  and  O_11
REMARK    8  A    between atoms: O_11  and  C_12
REMARK    9  A    between atoms: C_13  and  O_14
REMARK   10  A    between atoms: O_14  and  C_15
REMARK   11  A    between atoms: C_16  and  O_17
REMARK   12  A    between atoms: O_17  and  C_18
REMARK   13  A    between atoms: C_22  and  N_23
REMARK                            x       y       z     vdW  Elec       q    Type
REMARK                         _______ _______ _______ _____ _____    ______ ____
ROOT
ATOM      1  N   UNL     1       9.356  -2.048  23.889  0.00  0.00    -0.312 N 
ATOM      2  C   UNL     1       8.589  -3.154  24.163  0.00  0.00    +0.166 A 
ATOM      3  C   UNL     1       8.055  -2.922  25.416  0.00  0.00    +0.148 A 
ATOM      4  C   UNL     1       7.173  -3.900  25.914  0.00  0.00    +0.147 A 
ATOM      5  N   UNL     1       6.917  -4.992  25.154  0.00  0.00    -0.219 NA
ATOM      6  C   UNL     1       7.532  -5.095  23.958  0.00  0.00    +0.225 A 
ATOM      7  N   UNL     1       8.507  -1.722  25.917  0.00  0.00    -0.227 NA
ATOM      8  N   UNL     1       8.376  -4.222  23.374  0.00  0.00    -0.216 NA
ATOM      9  C   UNL     1       9.318  -1.214  24.998  0.00  0.00    +0.116 A 
ENDROOT
BRANCH   4  10
ATOM     10  N   UNL     1       6.520  -3.792  27.137  0.00  0.00    -0.341 N 
ATOM     11  H   UNL     1       5.925  -2.975  27.161  0.00  0.00    +0.144 HD
ATOM     12  H   UNL     1       7.143  -3.932  27.926  0.00  0.00    +0.144 HD
ENDBRANCH   4  10
BRANCH   1  13
ATOM     13  C   UNL     1       9.951  -1.803  22.592  0.00  0.00    +0.125 C 
BRANCH  13  14
ATOM     14  C   UNL     1       9.124  -0.989  21.597  0.00  0.00    +0.021 C 
BRANCH  14  16
ATOM     15  C   UNL     1       8.347   1.371  21.253  0.00  0.00    +0.004 C 
ATOM     16  C   UNL     1       9.558   0.469  21.453  0.00  0.00    -0.002 C 
ENDBRANCH  14  16
ENDBRANCH  13  14
ENDBRANCH   1  13
BRANCH   9  17
ATOM     17  C   UNL     1      10.163   0.032  25.145  0.00  0.00    +0.109 C 
BRANCH  17  18
ATOM     18  C   UNL     1       9.491   1.369  24.849  0.00  0.00    -0.033 A 
ATOM     19  C   UNL     1       8.104   1.540  24.997  0.00  0.00    +0.053 A 
ATOM     20  C   UNL     1       7.468   2.740  24.626  0.00  0.00    +0.165 A 
ATOM     21  C   UNL     1       8.229   3.782  24.054  0.00  0.00    +0.204 A 
ATOM     22  C   UNL     1       9.627   3.636  23.942  0.00  0.00    +0.165 A 
ATOM     23  C   UNL     1      10.235   2.430  24.320  0.00  0.00    +0.053 A 
BRANCH  20  24
ATOM     24  O   UNL     1       6.129   2.977  24.803  0.00  0.00    -0.491 OA
ATOM     25  C   UNL     1       5.206   2.410  23.887  0.00  0.00    +0.277 C 
ENDBRANCH  20  24
BRANCH  21  26
ATOM     26  O   UNL     1       7.725   5.009  23.678  0.00  0.00    -0.488 OA
ATOM     27  C   UNL     1       7.207   5.110  22.355  0.00  0.00    +0.277 C 
ENDBRANCH  21  26
BRANCH  22  28
ATOM     28  O   UNL     1      10.324   4.697  23.414  0.00  0.00    -0.491 OA
ATOM     29  C   UNL     1      11.739   4.554  23.369  0.00  0.00    +0.277 C 
ENDBRANCH  22  28
ENDBRANCH  17  18
ENDBRANCH   9  17
TORSDOF 9
ENDMDL
MODEL 6
REMARK VINA RESULT:      -6.0      4.729      7.985
REMARK  Name = 
REMARK  13 active torsions:
REMARK  status: ('A' for Active; 'I' for Inactive)
REMARK    1  A    between atoms: C_1  and  C_2
REMARK    2  A    between atoms: C_2  and  C_3
REMARK    3  A    between atoms: C_3  and  C_4
REMARK    4  A    between atoms: C_4  and  N_5
REMARK    5  A    between atoms: C_6  and  C_7
REMARK    6  A    between atoms: C_7  and  C_8
REMARK    7  A    between atoms: C_10  and  O_11
REMARK    8  A    between atoms: O_11  and  C_12
REMARK    9  A    between atoms: C_13  and  O_14
REMARK   10  A    between atoms: O_14  and  C_15
REMARK   11  A    between atoms: C_16  and  O_17
REMARK   12  A    between atoms: O_17  and  C_18
REMARK   13  A    between atoms: C_22  and  N_23
REMARK                            x       y       z     vdW  Elec       q    Type
REMARK                         _______ _______ _______ _____ _____    ______ ____
ROOT
ATOM      1  N   UNL     1       9.501   1.154  23.041  0.00  0.00    -0.312 N 
ATOM      2  C   UNL     1       9.272   2.503  23.168  0.00  0.00    +0.166 A 
ATOM      3  C   UNL     1       8.077   2.730  22.513  0.00  0.00    +0.148 A 
ATOM      4  C   UNL     1       7.586   4.049  22.544  0.00  0.00    +0.147 A 
ATOM      5  N   UNL     1       8.307   4.997  23.190  0.00  0.00    -0.219 NA
ATOM      6  C   UNL     1       9.471   4.631  23.765  0.00  0.00    +0.225 A 
ATOM      7  N   UNL     1       7.598   1.561  21.967  0.00  0.00    -0.227 NA
ATOM      8  N   UNL     1      10.030   3.406  23.814  0.00  0.00    -0.216 NA
ATOM      9  C   UNL     1       8.481   0.617  22.266  0.00  0.00    +0.116 A 
ENDROOT
BRANCH   4  10
ATOM     10  N   UNL     1       6.377   4.430  21.971  0.00  0.00    -0.341 N 
ATOM     11  H   UNL     1       5.595   4.094  22.516  0.00  0.00    +0.144 HD
ATOM     12  H   UNL     1       6.349   4.262  20.971  0.00  0.00    +0.144 HD
ENDBRANCH   4  10
BRANCH   1  13
ATOM     13  C   UNL     1      10.563   0.464  23.743  0.00  0.00    +0.125 C 
BRANCH  13  14
ATOM     14  C   UNL     1      10.345   0.197  25.232  0.00  0.00    +0.021 C 
BRANCH  14  16
ATOM     15  C   UNL     1       8.707  -1.341  26.347  0.00  0.00    +0.004 C 
ATOM     16  C   UNL     1       8.885  -0.008  25.634  0.00  0.00    -0.002 C 
ENDBRANCH  14  16
ENDBRANCH  13  14
ENDBRANCH   1  13
BRANCH   9  17
ATOM     17  C   UNL     1       8.462  -0.812  21.771  0.00  0.00    +0.109 C 
BRANCH  17  18
ATOM     18  C   UNL     1       7.879  -1.865  22.707  0.00  0.00    -0.033 A 
ATOM     19  C   UNL     1       8.565  -3.061  22.984  0.00  0.00    +0.053 A 
ATOM     20  C   UNL     1       7.984  -4.078  23.764  0.00  0.00    +0.165 A 
ATOM     21  C   UNL     1       6.668  -3.917  24.248  0.00  0.00    +0.204 A 
ATOM     22  C   UNL     1       5.989  -2.704  24.012  0.00  0.00    +0.165 A 
ATOM     23  C   UNL     1       6.591  -1.707  23.232  0.00  0.00    +0.053 A 
BRANCH  20  24
ATOM     24  O   UNL     1       8.632  -5.236  24.108  0.00  0.00    -0.491 OA
ATOM     25  C   UNL     1       9.444  -5.247  25.272  0.00  0.00    +0.277 C 
ENDBRANCH  20  24
BRANCH  21  26
ATOM     26  O   UNL     1       6.005  -4.828  25.042  0.00  0.00    -0.488 OA
ATOM     27  C   UNL     1       5.271  -5.848  24.371  0.00  0.00    +0.277 C 
ENDBRANCH  21  26
BRANCH  22  28
ATOM     28  O   UNL     1       4.724  -2.586  24.540  0.00  0.00    -0.491 OA
ATOM     29  C   UNL     1       4.628  -1.902  25.785  0.00  0.00    +0.277 C 
ENDBRANCH  22  28
ENDBRANCH  17  18
ENDBRANCH   9  17
TORSDOF 9
ENDMDL
MODEL 7
REMARK VINA RESULT:      -5.9      3.073      5.717
REMARK  Name = 
REMARK  13 active torsions:
REMARK  status: ('A' for Active; 'I' for Inactive)
REMARK    1  A    between atoms: C_1  and  C_2
REMARK    2  A    between atoms: C_2  and  C_3
REMARK    3  A    between atoms: C_3  and  C_4
REMARK    4  A    between atoms: C_4  and  N_5
REMARK    5  A    between atoms: C_6  and  C_7
REMARK    6  A    between atoms: C_7  and  C_8
REMARK    7  A    between atoms: C_10  and  O_11
REMARK    8  A    between atoms: O_11  and  C_12
REMARK    9  A    between atoms: C_13  and  O_14
REMARK   10  A    between atoms: O_14  and  C_15
REMARK   11  A    between atoms: C_16  and  O_17
REMARK   12  A    between atoms: O_17  and  C_18
REMARK   13  A    between atoms: C_22  and  N_23
REMARK                            x       y       z     vdW  Elec       q    Type
REMARK                         _______ _______ _______ _____ _____    ______ ____
ROOT
ATOM      1  N   UNL     1       9.078  -1.523  23.777  0.00  0.00    -0.312 N 
ATOM      2  C   UNL     1       8.349  -2.660  24.027  0.00  0.00    +0.166 A 
ATOM      3  C   UNL     1       7.972  -3.128  22.783  0.00  0.00    +0.148 A 
ATOM      4  C   UNL     1       7.246  -4.335  22.760  0.00  0.00    +0.147 A 
ATOM      5  N   UNL     1       6.958  -4.943  23.936  0.00  0.00    -0.219 NA
ATOM      6  C   UNL     1       7.372  -4.354  25.076  0.00  0.00    +0.225 A 
ATOM      7  N   UNL     1       8.426  -2.285  21.794  0.00  0.00    -0.227 NA
ATOM      8  N   UNL     1       8.081  -3.218  25.221  0.00  0.00    -0.216 NA
ATOM      9  C   UNL     1       9.069  -1.300  22.406  0.00  0.00    +0.116 A 
ENDROOT
BRANCH   4  10
ATOM     10  N   UNL     1       6.834  -4.958  21.587  0.00  0.00    -0.341 N 
ATOM     11  H   UNL     1       6.717  -4.287  20.840  0.00  0.00    +0.144 HD
ATOM     12  H   UNL     1       6.075  -5.614  21.741  0.00  0.00    +0.144 HD
ENDBRANCH   4  10
BRANCH   1  13
ATOM     13  C   UNL     1       9.816  -0.818  24.804  0.00  0.00    +0.125 C 
BRANCH  13  14
ATOM     14  C   UNL     1       8.995  -0.135  25.898  0.00  0.00    +0.021 C 
BRANCH  14  16
ATOM     15  C   UNL     1       7.514   1.888  25.946  0.00  0.00    +0.004 C 
ATOM     16  C   UNL     1       7.676   0.469  25.419  0.00  0.00    -0.002 C 
ENDBRANCH  14  16
ENDBRANCH  13  14
ENDBRANCH   1  13
BRANCH   9  17
ATOM     17  C   UNL     1       9.631  -0.058  21.751  0.00  0.00    +0.109 C 
BRANCH  17  18
ATOM     18  C   UNL     1       9.089   1.286  22.226  0.00  0.00    -0.033 A 
ATOM     19  C   UNL     1       7.771   1.686  21.946  0.00  0.00    +0.053 A 
ATOM     20  C   UNL     1       7.302   2.967  22.293  0.00  0.00    +0.165 A 
ATOM     21  C   UNL     1       8.181   3.889  22.899  0.00  0.00    +0.204 A 
ATOM     22  C   UNL     1       9.492   3.483  23.223  0.00  0.00    +0.165 A 
ATOM     23  C   UNL     1       9.934   2.200  22.867  0.00  0.00    +0.053 A 
BRANCH  20  24
ATOM     24  O   UNL     1       6.011   3.384  22.091  0.00  0.00    -0.491 OA
ATOM     25  C   UNL     1       5.002   2.947  22.988  0.00  0.00    +0.277 C 
ENDBRANCH  20  24
BRANCH  21  26
ATOM     26  O   UNL     1       7.832   5.159  23.307  0.00  0.00    -0.488 OA
ATOM     27  C   UNL     1       7.780   6.164  22.300  0.00  0.00    +0.277 C 
ENDBRANCH  21  26
BRANCH  22  28
ATOM     28  O   UNL     1      10.294   4.408  23.849  0.00  0.00    -0.491 OA
ATOM     29  C   UNL     1      11.625   4.518  23.354  0.00  0.00    +0.277 C 
ENDBRANCH  22  28
ENDBRANCH  17  18
ENDBRANCH   9  17
TORSDOF 9
ENDMDL
MODEL 8
REMARK VINA RESULT:      -5.8      3.048      5.741
REMARK  Name = 
REMARK  13 active torsions:
REMARK  status: ('A' for Active; 'I' for Inactive)
REMARK    1  A    between atoms: C_1  and  C_2
REMARK    2  A    between atoms: C_2  and  C_3
REMARK    3  A    between atoms: C_3  and  C_4
REMARK    4  A    between atoms: C_4  and  N_5
REMARK    5  A    between atoms: C_6  and  C_7
REMARK    6  A    between atoms: C_7  and  C_8
REMARK    7  A    between atoms: C_10  and  O_11
REMARK    8  A    between atoms: O_11  and  C_12
REMARK    9  A    between atoms: C_13  and  O_14
REMARK   10  A    between atoms: O_14  and  C_15
REMARK   11  A    between atoms: C_16  and  O_17
REMARK   12  A    between atoms: O_17  and  C_18
REMARK   13  A    between atoms: C_22  and  N_23
REMARK                            x       y       z     vdW  Elec       q    Type
REMARK                         _______ _______ _______ _____ _____    ______ ____
ROOT
ATOM      1  N   UNL     1       9.004  -1.607  23.686  0.00  0.00    -0.312 N 
ATOM      2  C   UNL     1       8.075  -2.598  23.894  0.00  0.00    +0.166 A 
ATOM      3  C   UNL     1       7.606  -2.923  22.636  0.00  0.00    +0.148 A 
ATOM      4  C   UNL     1       6.665  -3.968  22.568  0.00  0.00    +0.147 A 
ATOM      5  N   UNL     1       6.277  -4.570  23.719  0.00  0.00    -0.219 NA
ATOM      6  C   UNL     1       6.804  -4.128  24.878  0.00  0.00    +0.225 A 
ATOM      7  N   UNL     1       8.202  -2.132  21.680  0.00  0.00    -0.227 NA
ATOM      8  N   UNL     1       7.717  -3.154  25.064  0.00  0.00    -0.216 NA
ATOM      9  C   UNL     1       9.025  -1.318  22.327  0.00  0.00    +0.116 A 
ENDROOT
BRANCH   4  10
ATOM     10  N   UNL     1       6.132  -4.443  21.375  0.00  0.00    -0.341 N 
ATOM     11  H   UNL     1       5.465  -3.789  20.988  0.00  0.00    +0.144 HD
ATOM     12  H   UNL     1       5.842  -5.414  21.436  0.00  0.00    +0.144 HD
ENDBRANCH   4  10
BRANCH   1  13
ATOM     13  C   UNL     1       9.871  -1.106  24.732  0.00  0.00    +0.125 C 
BRANCH  13  14
ATOM     14  C   UNL     1       9.397   0.137  25.483  0.00  0.00    +0.021 C 
BRANCH  14  16
ATOM     15  C   UNL     1       7.550   1.768  25.951  0.00  0.00    +0.004 C 
ATOM     16  C   UNL     1       7.890   0.382  25.421  0.00  0.00    -0.002 C 
ENDBRANCH  14  16
ENDBRANCH  13  14
ENDBRANCH   1  13
BRANCH   9  17
ATOM     17  C   UNL     1       9.807  -0.173  21.722  0.00  0.00    +0.109 C 
BRANCH  17  18
ATOM     18  C   UNL     1       9.356   1.241  22.074  0.00  0.00    -0.033 A 
ATOM     19  C   UNL     1      10.220   2.150  22.709  0.00  0.00    +0.053 A 
ATOM     20  C   UNL     1       9.774   3.418  23.127  0.00  0.00    +0.165 A 
ATOM     21  C   UNL     1       8.421   3.774  22.945  0.00  0.00    +0.204 A 
ATOM     22  C   UNL     1       7.557   2.887  22.271  0.00  0.00    +0.165 A 
ATOM     23  C   UNL     1       8.027   1.629  21.864  0.00  0.00    +0.053 A 
BRANCH  20  24
ATOM     24  O   UNL     1      10.590   4.359  23.699  0.00  0.00    -0.491 OA
ATOM     25  C   UNL     1      11.944   4.438  23.281  0.00  0.00    +0.277 C 
ENDBRANCH  20  24
BRANCH  21  26
ATOM     26  O   UNL     1       7.875   4.993  23.288  0.00  0.00    -0.488 OA
ATOM     27  C   UNL     1       7.548   5.185  24.661  0.00  0.00    +0.277 C 
ENDBRANCH  21  26
BRANCH  22  28
ATOM     28  O   UNL     1       6.259   3.301  22.085  0.00  0.00    -0.491 OA
ATOM     29  C   UNL     1       5.293   2.742  22.969  0.00  0.00    +0.277 C 
ENDBRANCH  22  28
ENDBRANCH  17  18
ENDBRANCH   9  17
TORSDOF 9
ENDMDL
MODEL 9
REMARK VINA RESULT:      -5.8      2.841      5.129
REMARK  Name = 
REMARK  13 active torsions:
REMARK  status: ('A' for Active; 'I' for Inactive)
REMARK    1  A    between atoms: C_1  and  C_2
REMARK    2  A    between atoms: C_2  and  C_3
REMARK    3  A    between atoms: C_3  and  C_4
REMARK    4  A    between atoms: C_4  and  N_5
REMARK    5  A    between atoms: C_6  and  C_7
REMARK    6  A    between atoms: C_7  and  C_8
REMARK    7  A    between atoms: C_10  and  O_11
REMARK    8  A    between atoms: O_11  and  C_12
REMARK    9  A    between atoms: C_13  and  O_14
REMARK   10  A    between atoms: O_14  and  C_15
REMARK   11  A    between atoms: C_16  and  O_17
REMARK   12  A    between atoms: O_17  and  C_18
REMARK   13  A    between atoms: C_22  and  N_23
REMARK                            x       y       z     vdW  Elec       q    Type
REMARK                         _______ _______ _______ _____ _____    ______ ____
ROOT
ATOM      1  N   UNL     1       9.288  -2.135  24.196  0.00  0.00    -0.312 N 
ATOM      2  C   UNL     1       8.583  -3.285  24.461  0.00  0.00    +0.166 A 
ATOM      3  C   UNL     1       7.972  -3.061  25.680  0.00  0.00    +0.148 A 
ATOM      4  C   UNL     1       7.134  -4.086  26.158  0.00  0.00    +0.147 A 
ATOM      5  N   UNL     1       6.990  -5.210  25.415  0.00  0.00    -0.219 NA
ATOM      6  C   UNL     1       7.670  -5.297  24.254  0.00  0.00    +0.225 A 
ATOM      7  N   UNL     1       8.317  -1.823  26.171  0.00  0.00    -0.227 NA
ATOM      8  N   UNL     1       8.483  -4.382  23.690  0.00  0.00    -0.216 NA
ATOM      9  C   UNL     1       9.138  -1.281  25.281  0.00  0.00    +0.116 A 
ENDROOT
BRANCH   4  10
ATOM     10  N   UNL     1       6.414  -3.995  27.345  0.00  0.00    -0.341 N 
ATOM     11  H   UNL     1       6.937  -3.495  28.051  0.00  0.00    +0.144 HD
ATOM     12  H   UNL     1       5.999  -4.880  27.618  0.00  0.00    +0.144 HD
ENDBRANCH   4  10
BRANCH   1  13
ATOM     13  C   UNL     1       9.930  -1.879  22.924  0.00  0.00    +0.125 C 
BRANCH  13  14
ATOM     14  C   UNL     1       9.097  -1.160  21.863  0.00  0.00    +0.021 C 
BRANCH  14  16
ATOM     15  C   UNL     1       8.466   1.178  21.210  0.00  0.00    +0.004 C 
ATOM     16  C   UNL     1       9.621   0.221  21.472  0.00  0.00    -0.002 C 
ENDBRANCH  14  16
ENDBRANCH  13  14
ENDBRANCH   1  13
BRANCH   9  17
ATOM     17  C   UNL     1       9.890   0.022  25.437  0.00  0.00    +0.109 C 
BRANCH  17  18
ATOM     18  C   UNL     1       9.238   1.276  24.862  0.00  0.00    -0.033 A 
ATOM     19  C   UNL     1      10.009   2.357  24.399  0.00  0.00    +0.053 A 
ATOM     20  C   UNL     1       9.409   3.554  23.965  0.00  0.00    +0.165 A 
ATOM     21  C   UNL     1       8.007   3.693  24.031  0.00  0.00    +0.204 A 
ATOM     22  C   UNL     1       7.223   2.599  24.453  0.00  0.00    +0.165 A 
ATOM     23  C   UNL     1       7.846   1.417  24.880  0.00  0.00    +0.053 A 
BRANCH  20  24
ATOM     24  O   UNL     1      10.113   4.614  23.454  0.00  0.00    -0.491 OA
ATOM     25  C   UNL     1      11.528   4.528  23.384  0.00  0.00    +0.277 C 
ENDBRANCH  20  24
BRANCH  21  26
ATOM     26  O   UNL     1       7.306   4.803  23.611  0.00  0.00    -0.488 OA
ATOM     27  C   UNL     1       7.161   5.863  24.551  0.00  0.00    +0.277 C 
ENDBRANCH  21  26
BRANCH  22  28
ATOM     28  O   UNL     1       5.860   2.777  24.461  0.00  0.00    -0.491 OA
ATOM     29  C   UNL     1       5.237   2.781  25.741  0.00  0.00    +0.277 C 
ENDBRANCH  22  28
ENDBRANCH  17  18
ENDBRANCH   9  17
TORSDOF 9
ENDMDL
