MODEL 1
REMARK VINA RESULT:      -4.8      0.000      0.000
REMARK  Name = 
REMARK  12 active torsions:
REMARK  status: ('A' for Active; 'I' for Inactive)
REMARK    1  A    between atoms: O_1  and  N_2
REMARK    2  A    between atoms: C_3  and  C_5
REMARK    3  A    between atoms: C_5  and  O_7
REMARK    4  A    between atoms: C_5  and  C_8
REMARK    5  A    between atoms: C_8  and  O_10
REMARK    6  A    between atoms: C_8  and  C_11
REMARK    7  A    between atoms: C_11  and  O_13
REMARK    8  A    between atoms: C_11  and  C_14
REMARK    9  A    between atoms: C_14  and  O_15
REMARK   10  A    between atoms: O_15  and  P_16
REMARK   11  A    between atoms: P_16  and  O_17
REMARK   12  A    between atoms: P_16  and  O_18
REMARK                            x       y       z     vdW  Elec       q    Type
REMARK                         _______ _______ _______ _____ _____    ______ ____
ROOT
ATOM      1  C   UNL     1       8.926   0.247  21.677  0.00  0.00    +0.183 C 
ENDROOT
BRANCH   1   2
ATOM      2  O   UNL     1       7.731   0.453  22.469  0.00  0.00    -0.386 OA
ATOM      3  H   UNL     1       7.051   0.812  21.867  0.00  0.00    +0.210 HD
ENDBRANCH   1   2
BRANCH   1   4
ATOM      4  C   UNL     1      10.102   0.991  22.337  0.00  0.00    +0.233 C 
BRANCH   4   7
ATOM      5  N   UNL     1      10.141   0.128  24.627  0.00  0.00    -0.195 N 
ATOM      6  H   UNL     1      10.351  -0.783  24.210  0.00  0.00    +0.182 HD
ATOM      7  C   UNL     1       9.889   1.225  23.847  0.00  0.00    +0.267 C 
ATOM      8  O   UNL     1       9.579   2.342  24.263  0.00  0.00    -0.271 OA
BRANCH   5   9
ATOM      9  O   UNL     1       9.957   0.221  26.014  0.00  0.00    -0.295 OA
ATOM     10  H   UNL     1       9.074   0.628  26.088  0.00  0.00    +0.241 HD
ENDBRANCH   5   9
ENDBRANCH   4   7
BRANCH   4  11
ATOM     11  O   UNL     1      10.307   2.247  21.676  0.00  0.00    -0.380 OA
ATOM     12  H   UNL     1      10.062   2.094  20.736  0.00  0.00    +0.211 HD
ENDBRANCH   4  11
ENDBRANCH   1   4
BRANCH   1  13
ATOM     13  C   UNL     1       9.224  -1.270  21.520  0.00  0.00    +0.172 C 
BRANCH  13  14
ATOM     14  O   UNL     1      10.524  -1.601  22.014  0.00  0.00    -0.387 OA
ATOM     15  H   UNL     1      10.502  -2.541  22.264  0.00  0.00    +0.210 HD
ENDBRANCH  13  14
BRANCH  13  16
ATOM     16  C   UNL     1       8.212  -2.139  22.266  0.00  0.00    +0.206 C 
BRANCH  16  17
ATOM     17  O   UNL     1       8.329  -1.897  23.659  0.00  0.00    -0.284 OA
BRANCH  17  18
ATOM     18  P   UNL     1       8.553  -3.150  24.611  0.00  0.00    +0.472 P 
ATOM     19  O   UNL     1       7.536  -4.235  24.538  0.00  0.00    -0.228 OA
BRANCH  18  20
ATOM     20  O   UNL     1       8.732  -2.496  26.054  0.00  0.00    -0.303 OA
ATOM     21  H   UNL     1       7.967  -1.951  26.301  0.00  0.00    +0.222 HD
ENDBRANCH  18  20
BRANCH  18  22
ATOM     22  O   UNL     1      10.032  -3.635  24.243  0.00  0.00    -0.303 OA
ATOM     23  H   UNL     1      10.018  -4.536  23.871  0.00  0.00    +0.222 HD
ENDBRANCH  18  22
ENDBRANCH  17  18
ENDBRANCH  16  17
ENDBRANCH  13  16
ENDBRANCH   1  13
TORSDOF 12
ENDMDL
MODEL 2
REMARK VINA RESULT:      -4.7      2.965      5.499
REMARK  Name = 
REMARK  12 active torsions:
REMARK  status: ('A' for Active; 'I' for Inactive)
REMARK    1  A    between atoms: O_1  and  N_2
REMARK    2  A    between atoms: C_3  and  C_5
REMARK    3  A    between atoms: C_5  and  O_7
REMARK    4  A    between atoms: C_5  and  C_8
REMARK    5  A    between atoms: C_8  and  O_10
REMARK    6  A    between atoms: C_8  and  C_11
REMARK    7  A    between atoms: C_11  and  O_13
REMARK    8  A    between atoms: C_11  and  C_14
REMARK    9  A    between atoms: C_14  and  O_15
REMARK   10  A    between atoms: O_15  and  P_16
REMARK   11  A    between atoms: P_16  and  O_17
REMARK   12  A    between atoms: P_16  and  O_18
REMARK                            x       y       z     vdW  Elec       q    Type
REMARK                         _______ _______ _______ _____ _____    ______ ____
ROOT
ATOM      1  C   UNL     1       9.165  -3.457  24.648  0.00  0.00    +0.183 C 
ENDROOT
BRANCH   1   2
ATOM      2  O   UNL     1       8.681  -2.817  25.854  0.00  0.00    -0.386 OA
ATOM      3  H   UNL     1       8.896  -1.867  25.776  0.00  0.00    +0.210 HD
ENDBRANCH   1   2
BRANCH   1   4
ATOM      4  C   UNL     1       8.778  -4.947  24.679  0.00  0.00    +0.233 C 
BRANCH   4   7
ATOM      5  N   UNL     1       8.290  -5.787  26.925  0.00  0.00    -0.195 N 
ATOM      6  H   UNL     1       9.285  -6.021  26.983  0.00  0.00    +0.182 HD
ATOM      7  C   UNL     1       7.746  -5.274  25.779  0.00  0.00    +0.267 C 
ATOM      8  O   UNL     1       6.554  -5.014  25.606  0.00  0.00    -0.271 OA
BRANCH   5   9
ATOM      9  O   UNL     1       7.440  -6.142  27.983  0.00  0.00    -0.295 OA
ATOM     10  H   UNL     1       7.618  -5.450  28.645  0.00  0.00    +0.241 HD
ENDBRANCH   5   9
ENDBRANCH   4   7
BRANCH   4  11
ATOM     11  O   UNL     1       9.956  -5.745  24.867  0.00  0.00    -0.380 OA
ATOM     12  H   UNL     1      10.013  -6.322  24.074  0.00  0.00    +0.211 HD
ENDBRANCH   4  11
ENDBRANCH   1   4
BRANCH   1  13
ATOM     13  C   UNL     1       8.601  -2.746  23.387  0.00  0.00    +0.172 C 
BRANCH  13  14
ATOM     14  O   UNL     1       7.326  -2.152  23.648  0.00  0.00    -0.387 OA
ATOM     15  H   UNL     1       6.659  -2.852  23.541  0.00  0.00    +0.210 HD
ENDBRANCH  13  14
BRANCH  13  16
ATOM     16  C   UNL     1       9.528  -1.641  22.881  0.00  0.00    +0.206 C 
BRANCH  16  17
ATOM     17  O   UNL     1      10.317  -1.166  23.960  0.00  0.00    -0.284 OA
BRANCH  17  18
ATOM     18  P   UNL     1      10.011   0.293  24.513  0.00  0.00    +0.472 P 
ATOM     19  O   UNL     1      11.047   1.332  24.266  0.00  0.00    -0.228 OA
BRANCH  18  20
ATOM     20  O   UNL     1       9.665   0.044  26.050  0.00  0.00    -0.303 OA
ATOM     21  H   UNL     1       9.397   0.863  26.497  0.00  0.00    +0.222 HD
ENDBRANCH  18  20
BRANCH  18  22
ATOM     22  O   UNL     1       8.589   0.642  23.871  0.00  0.00    -0.303 OA
ATOM     23  H   UNL     1       8.201  -0.142  23.440  0.00  0.00    +0.222 HD
ENDBRANCH  18  22
ENDBRANCH  17  18
ENDBRANCH  16  17
ENDBRANCH  13  16
ENDBRANCH   1  13
TORSDOF 12
ENDMDL
MODEL 3
REMARK VINA RESULT:      -4.7      3.041      5.472
REMARK  Name = 
REMARK  12 active torsions:
REMARK  status: ('A' for Active; 'I' for Inactive)
REMARK    1  A    between atoms: O_1  and  N_2
REMARK    2  A    between atoms: C_3  and  C_5
REMARK    3  A    between atoms: C_5  and  O_7
REMARK    4  A    between atoms: C_5  and  C_8
REMARK    5  A    between atoms: C_8  and  O_10
REMARK    6  A    between atoms: C_8  and  C_11
REMARK    7  A    between atoms: C_11  and  O_13
REMARK    8  A    between atoms: C_11  and  C_14
REMARK    9  A    between atoms: C_14  and  O_15
REMARK   10  A    between atoms: O_15  and  P_16
REMARK   11  A    between atoms: P_16  and  O_17
REMARK   12  A    between atoms: P_16  and  O_18
REMARK                            x       y       z     vdW  Elec       q    Type
REMARK                         _______ _______ _______ _____ _____    ______ ____
ROOT
ATOM      1  C   UNL     1       7.824  -3.551  23.836  0.00  0.00    +0.183 C 
ENDROOT
BRANCH   1   2
ATOM      2  O   UNL     1       7.938  -3.507  22.393  0.00  0.00    -0.386 OA
ATOM      3  H   UNL     1       7.571  -2.648  22.106  0.00  0.00    +0.210 HD
ENDBRANCH   1   2
BRANCH   1   4
ATOM      4  C   UNL     1       7.795  -5.022  24.294  0.00  0.00    +0.233 C 
BRANCH   4   7
ATOM      5  N   UNL     1       8.027  -5.806  26.600  0.00  0.00    -0.195 N 
ATOM      6  H   UNL     1       8.928  -6.193  26.308  0.00  0.00    +0.182 HD
ATOM      7  C   UNL     1       7.191  -5.197  25.703  0.00  0.00    +0.267 C 
ATOM      8  O   UNL     1       6.071  -4.751  25.957  0.00  0.00    -0.271 OA
BRANCH   5   9
ATOM      9  O   UNL     1       7.571  -6.038  27.906  0.00  0.00    -0.295 OA
ATOM     10  H   UNL     1       7.950  -6.911  28.115  0.00  0.00    +0.241 HD
ENDBRANCH   5   9
ENDBRANCH   4   7
BRANCH   4  11
ATOM     11  O   UNL     1       9.124  -5.560  24.265  0.00  0.00    -0.380 OA
ATOM     12  H   UNL     1       9.632  -4.977  23.657  0.00  0.00    +0.211 HD
ENDBRANCH   4  11
ENDBRANCH   1   4
BRANCH   1  13
ATOM     13  C   UNL     1       8.990  -2.768  24.501  0.00  0.00    +0.172 C 
BRANCH  13  14
ATOM     14  O   UNL     1      10.246  -3.089  23.898  0.00  0.00    -0.387 OA
ATOM     15  H   UNL     1      10.939  -2.705  24.462  0.00  0.00    +0.210 HD
ENDBRANCH  13  14
BRANCH  13  16
ATOM     16  C   UNL     1       8.803  -1.255  24.400  0.00  0.00    +0.206 C 
BRANCH  16  17
ATOM     17  O   UNL     1       8.396  -0.923  23.083  0.00  0.00    -0.284 OA
BRANCH  17  18
ATOM     18  P   UNL     1       9.473  -0.257  22.121  0.00  0.00    +0.472 P 
ATOM     19  O   UNL     1       8.983   0.812  21.208  0.00  0.00    -0.228 OA
BRANCH  18  20
ATOM     20  O   UNL     1      10.145  -1.505  21.392  0.00  0.00    -0.303 OA
ATOM     21  H   UNL     1      10.861  -1.891  21.922  0.00  0.00    +0.222 HD
ENDBRANCH  18  20
BRANCH  18  22
ATOM     22  O   UNL     1      10.613   0.236  23.128  0.00  0.00    -0.303 OA
ATOM     23  H   UNL     1      10.428   1.140  23.445  0.00  0.00    +0.222 HD
ENDBRANCH  18  22
ENDBRANCH  17  18
ENDBRANCH  16  17
ENDBRANCH  13  16
ENDBRANCH   1  13
TORSDOF 12
ENDMDL
MODEL 4
REMARK VINA RESULT:      -4.6      2.193      3.387
REMARK  Name = 
REMARK  12 active torsions:
REMARK  status: ('A' for Active; 'I' for Inactive)
REMARK    1  A    between atoms: O_1  and  N_2
REMARK    2  A    between atoms: C_3  and  C_5
REMARK    3  A    between atoms: C_5  and  O_7
REMARK    4  A    between atoms: C_5  and  C_8
REMARK    5  A    between atoms: C_8  and  O_10
REMARK    6  A    between atoms: C_8  and  C_11
REMARK    7  A    between atoms: C_11  and  O_13
REMARK    8  A    between atoms: C_11  and  C_14
REMARK    9  A    between atoms: C_14  and  O_15
REMARK   10  A    between atoms: O_15  and  P_16
REMARK   11  A    between atoms: P_16  and  O_17
REMARK   12  A    between atoms: P_16  and  O_18
REMARK                            x       y       z     vdW  Elec       q    Type
REMARK                         _______ _______ _______ _____ _____    ______ ____
ROOT
ATOM      1  C   UNL     1      10.123   2.560  22.913  0.00  0.00    +0.183 C 
ENDROOT
BRANCH   1   2
ATOM      2  O   UNL     1      10.004   1.826  21.670  0.00  0.00    -0.386 OA
ATOM      3  H   UNL     1      10.170   0.886  21.879  0.00  0.00    +0.210 HD
ENDBRANCH   1   2
BRANCH   1   4
ATOM      4  C   UNL     1       8.771   3.222  23.238  0.00  0.00    +0.233 C 
BRANCH   4   7
ATOM      5  N   UNL     1       7.238   1.315  23.211  0.00  0.00    -0.195 N 
ATOM      6  H   UNL     1       7.808   0.930  23.969  0.00  0.00    +0.182 HD
ATOM      7  C   UNL     1       7.577   2.489  22.593  0.00  0.00    +0.267 C 
ATOM      8  O   UNL     1       6.978   2.995  21.643  0.00  0.00    -0.271 OA
BRANCH   5   9
ATOM      9  O   UNL     1       6.179   0.553  22.694  0.00  0.00    -0.295 OA
ATOM     10  H   UNL     1       5.602   1.229  22.295  0.00  0.00    +0.241 HD
ENDBRANCH   5   9
ENDBRANCH   4   7
BRANCH   4  11
ATOM     11  O   UNL     1       8.791   4.590  22.807  0.00  0.00    -0.380 OA
ATOM     12  H   UNL     1       7.869   4.913  22.912  0.00  0.00    +0.211 HD
ENDBRANCH   4  11
ENDBRANCH   1   4
BRANCH   1  13
ATOM     13  C   UNL     1      10.591   1.621  24.060  0.00  0.00    +0.172 C 
BRANCH  13  14
ATOM     14  O   UNL     1       9.664   1.624  25.148  0.00  0.00    -0.387 OA
ATOM     15  H   UNL     1       8.888   2.134  24.860  0.00  0.00    +0.210 HD
ENDBRANCH  13  14
BRANCH  13  16
ATOM     16  C   UNL     1      10.753   0.174  23.595  0.00  0.00    +0.206 C 
BRANCH  16  17
ATOM     17  O   UNL     1       9.517  -0.504  23.747  0.00  0.00    -0.284 OA
BRANCH  17  18
ATOM     18  P   UNL     1       9.209  -1.712  22.760  0.00  0.00    +0.472 P 
ATOM     19  O   UNL     1       7.789  -1.900  22.357  0.00  0.00    -0.228 OA
BRANCH  18  20
ATOM     20  O   UNL     1       9.871  -2.967  23.488  0.00  0.00    -0.303 OA
ATOM     21  H   UNL     1       9.217  -3.657  23.684  0.00  0.00    +0.222 HD
ENDBRANCH  18  20
BRANCH  18  22
ATOM     22  O   UNL     1      10.193  -1.443  21.528  0.00  0.00    -0.303 OA
ATOM     23  H   UNL     1      10.201  -2.204  20.919  0.00  0.00    +0.222 HD
ENDBRANCH  18  22
ENDBRANCH  17  18
ENDBRANCH  16  17
ENDBRANCH  13  16
ENDBRANCH   1  13
TORSDOF 12
ENDMDL
MODEL 5
REMARK VINA RESULT:      -4.5      1.856      2.894
REMARK  Name = 
REMARK  12 active torsions:
REMARK  status: ('A' for Active; 'I' for Inactive)
REMARK    1  A    between atoms: O_1  and  N_2
REMARK    2  A    between atoms: C_3  and  C_5
REMARK    3  A    between atoms: C_5  and  O_7
REMARK    4  A    between atoms: C_5  and  C_8
REMARK    5  A    between atoms: C_8  and  O_10
REMARK    6  A    between atoms: C_8  and  C_11
REMARK    7  A    between atoms: C_11  and  O_13
REMARK    8  A    between atoms: C_11  and  C_14
REMARK    9  A    between atoms: C_14  and  O_15
REMARK   10  A    between atoms: O_15  and  P_16
REMARK   11  A    between atoms: P_16  and  O_17
REMARK   12  A    between atoms: P_16  and  O_18
REMARK                            x       y       z     vdW  Elec       q    Type
REMARK                         _______ _______ _______ _____ _____    ______ ____
ROOT
ATOM      1  C   UNL     1       9.821  -1.769  23.509  0.00  0.00    +0.183 C 
ENDROOT
BRANCH   1   2
ATOM      2  O   UNL     1      10.580  -3.001  23.449  0.00  0.00    -0.386 OA
ATOM      3  H   UNL     1      11.188  -2.997  24.214  0.00  0.00    +0.210 HD
ENDBRANCH   1   2
BRANCH   1   4
ATOM      4  C   UNL     1      10.212  -0.878  22.316  0.00  0.00    +0.233 C 
BRANCH   4   7
ATOM      5  N   UNL     1       9.383   1.268  21.481  0.00  0.00    -0.195 N 
ATOM      6  H   UNL     1       9.301   0.807  20.571  0.00  0.00    +0.182 HD
ATOM      7  C   UNL     1       9.912   0.616  22.562  0.00  0.00    +0.267 C 
ATOM      8  O   UNL     1      10.095   1.109  23.676  0.00  0.00    -0.271 OA
BRANCH   5   9
ATOM      9  O   UNL     1       9.093   2.636  21.585  0.00  0.00    -0.295 OA
ATOM     10  H   UNL     1       8.562   2.806  20.786  0.00  0.00    +0.241 HD
ENDBRANCH   5   9
ENDBRANCH   4   7
BRANCH   4  11
ATOM     11  O   UNL     1       9.525  -1.323  21.139  0.00  0.00    -0.380 OA
ATOM     12  H   UNL     1      10.111  -1.089  20.386  0.00  0.00    +0.211 HD
ENDBRANCH   4  11
ENDBRANCH   1   4
BRANCH   1  13
ATOM     13  C   UNL     1       8.296  -2.066  23.526  0.00  0.00    +0.172 C 
BRANCH  13  14
ATOM     14  O   UNL     1       7.963  -3.136  22.638  0.00  0.00    -0.387 OA
ATOM     15  H   UNL     1       8.752  -3.699  22.561  0.00  0.00    +0.210 HD
ENDBRANCH  13  14
BRANCH  13  16
ATOM     16  C   UNL     1       7.796  -2.451  24.919  0.00  0.00    +0.206 C 
BRANCH  16  17
ATOM     17  O   UNL     1       8.755  -3.289  25.542  0.00  0.00    -0.284 OA
BRANCH  17  18
ATOM     18  P   UNL     1       8.477  -4.854  25.549  0.00  0.00    +0.472 P 
ATOM     19  O   UNL     1       7.254  -5.318  24.838  0.00  0.00    -0.228 OA
BRANCH  18  20
ATOM     20  O   UNL     1       8.539  -5.238  27.096  0.00  0.00    -0.303 OA
ATOM     21  H   UNL     1       7.673  -5.148  27.525  0.00  0.00    +0.222 HD
ENDBRANCH  18  20
BRANCH  18  22
ATOM     22  O   UNL     1       9.830  -5.473  24.964  0.00  0.00    -0.303 OA
ATOM     23  H   UNL     1      10.596  -5.200  25.501  0.00  0.00    +0.222 HD
ENDBRANCH  18  22
ENDBRANCH  17  18
ENDBRANCH  16  17
ENDBRANCH  13  16
ENDBRANCH   1  13
TORSDOF 12
ENDMDL
MODEL 6
REMARK VINA RESULT:      -4.5      2.982      5.470
REMARK  Name = 
REMARK  12 active torsions:
REMARK  status: ('A' for Active; 'I' for Inactive)
REMARK    1  A    between atoms: O_1  and  N_2
REMARK    2  A    between atoms: C_3  and  C_5
REMARK    3  A    between atoms: C_5  and  O_7
REMARK    4  A    between atoms: C_5  and  C_8
REMARK    5  A    between atoms: C_8  and  O_10
REMARK    6  A    between atoms: C_8  and  C_11
REMARK    7  A    between atoms: C_11  and  O_13
REMARK    8  A    between atoms: C_11  and  C_14
REMARK    9  A    between atoms: C_14  and  O_15
REMARK   10  A    between atoms: O_15  and  P_16
REMARK   11  A    between atoms: P_16  and  O_17
REMARK   12  A    between atoms: P_16  and  O_18
REMARK                            x       y       z     vdW  Elec       q    Type
REMARK                         _______ _______ _______ _____ _____    ______ ____
ROOT
ATOM      1  C   UNL     1       6.869  -4.968  23.336  0.00  0.00    +0.183 C 
ENDROOT
BRANCH   1   2
ATOM      2  O   UNL     1       8.270  -5.334  23.348  0.00  0.00    -0.386 OA
ATOM      3  H   UNL     1       8.338  -6.179  23.833  0.00  0.00    +0.210 HD
ENDBRANCH   1   2
BRANCH   1   4
ATOM      4  C   UNL     1       6.475  -4.441  24.729  0.00  0.00    +0.233 C 
BRANCH   4   7
ATOM      5  N   UNL     1       8.512  -4.362  26.083  0.00  0.00    -0.195 N 
ATOM      6  H   UNL     1       8.811  -3.599  25.471  0.00  0.00    +0.182 HD
ATOM      7  C   UNL     1       7.341  -5.035  25.859  0.00  0.00    +0.267 C 
ATOM      8  O   UNL     1       6.932  -5.996  26.513  0.00  0.00    -0.271 OA
BRANCH   5   9
ATOM      9  O   UNL     1       9.388  -4.830  27.073  0.00  0.00    -0.295 OA
ATOM     10  H   UNL     1       9.112  -4.327  27.861  0.00  0.00    +0.241 HD
ENDBRANCH   5   9
ENDBRANCH   4   7
BRANCH   4  11
ATOM     11  O   UNL     1       5.091  -4.726  24.976  0.00  0.00    -0.380 OA
ATOM     12  H   UNL     1       4.918  -4.417  25.892  0.00  0.00    +0.211 HD
ENDBRANCH   4  11
ENDBRANCH   1   4
BRANCH   1  13
ATOM     13  C   UNL     1       6.587  -3.918  22.226  0.00  0.00    +0.172 C 
BRANCH  13  14
ATOM     14  O   UNL     1       5.186  -3.786  21.975  0.00  0.00    -0.387 OA
ATOM     15  H   UNL     1       4.768  -4.620  22.249  0.00  0.00    +0.210 HD
ENDBRANCH  13  14
BRANCH  13  16
ATOM     16  C   UNL     1       7.123  -2.533  22.589  0.00  0.00    +0.206 C 
BRANCH  16  17
ATOM     17  O   UNL     1       8.508  -2.476  22.288  0.00  0.00    -0.284 OA
BRANCH  17  18
ATOM     18  P   UNL     1       9.486  -1.912  23.407  0.00  0.00    +0.472 P 
ATOM     19  O   UNL     1      10.379  -0.789  23.009  0.00  0.00    -0.228 OA
BRANCH  18  20
ATOM     20  O   UNL     1      10.240  -3.214  23.935  0.00  0.00    -0.303 OA
ATOM     21  H   UNL     1      11.028  -3.414  23.405  0.00  0.00    +0.222 HD
ENDBRANCH  18  20
BRANCH  18  22
ATOM     22  O   UNL     1       8.499  -1.547  24.611  0.00  0.00    -0.303 OA
ATOM     23  H   UNL     1       7.645  -1.219  24.272  0.00  0.00    +0.222 HD
ENDBRANCH  18  22
ENDBRANCH  17  18
ENDBRANCH  16  17
ENDBRANCH  13  16
ENDBRANCH   1  13
TORSDOF 12
ENDMDL
MODEL 7
REMARK VINA RESULT:      -4.5      2.389      4.992
REMARK  Name = 
REMARK  12 active torsions:
REMARK  status: ('A' for Active; 'I' for Inactive)
REMARK    1  A    between atoms: O_1  and  N_2
REMARK    2  A    between atoms: C_3  and  C_5
REMARK    3  A    between atoms: C_5  and  O_7
REMARK    4  A    between atoms: C_5  and  C_8
REMARK    5  A    between atoms: C_8  and  O_10
REMARK    6  A    between atoms: C_8  and  C_11
REMARK    7  A    between atoms: C_11  and  O_13
REMARK    8  A    between atoms: C_11  and  C_14
REMARK    9  A    between atoms: C_14  and  O_15
REMARK   10  A    between atoms: O_15  and  P_16
REMARK   11  A    between atoms: P_16  and  O_17
REMARK   12  A    between atoms: P_16  and  O_18
REMARK                            x       y       z     vdW  Elec       q    Type
REMARK                         _______ _______ _______ _____ _____    ______ ____
ROOT
ATOM      1  C   UNL     1       9.369  -1.216  24.947  0.00  0.00    +0.183 C 
ENDROOT
BRANCH   1   2
ATOM      2  O   UNL     1       7.937  -1.138  24.745  0.00  0.00    -0.386 OA
ATOM      3  H   UNL     1       7.538  -1.865  25.262  0.00  0.00    +0.210 HD
ENDBRANCH   1   2
BRANCH   1   4
ATOM      4  C   UNL     1       9.997  -2.020  23.793  0.00  0.00    +0.233 C 
BRANCH   4   7
ATOM      5  N   UNL     1       9.847  -0.891  21.627  0.00  0.00    -0.195 N 
ATOM      6  H   UNL     1      10.643  -0.328  21.939  0.00  0.00    +0.182 HD
ATOM      7  C   UNL     1       9.262  -1.813  22.452  0.00  0.00    +0.267 C 
ATOM      8  O   UNL     1       8.273  -2.494  22.176  0.00  0.00    -0.271 OA
BRANCH   5   9
ATOM      9  O   UNL     1       9.249  -0.606  20.390  0.00  0.00    -0.295 OA
ATOM     10  H   UNL     1       9.189   0.366  20.398  0.00  0.00    +0.241 HD
ENDBRANCH   5   9
ENDBRANCH   4   7
BRANCH   4  11
ATOM     11  O   UNL     1      10.009  -3.414  24.130  0.00  0.00    -0.380 OA
ATOM     12  H   UNL     1      10.362  -3.461  25.046  0.00  0.00    +0.211 HD
ENDBRANCH   4  11
ENDBRANCH   1   4
BRANCH   1  13
ATOM     13  C   UNL     1       9.985   0.206  25.055  0.00  0.00    +0.172 C 
BRANCH  13  14
ATOM     14  O   UNL     1      11.030   0.398  24.099  0.00  0.00    -0.387 OA
ATOM     15  H   UNL     1      10.610   0.702  23.275  0.00  0.00    +0.210 HD
ENDBRANCH  13  14
BRANCH  13  16
ATOM     16  C   UNL     1       8.947   1.305  24.830  0.00  0.00    +0.206 C 
BRANCH  16  17
ATOM     17  O   UNL     1       8.488   1.244  23.490  0.00  0.00    -0.284 OA
BRANCH  17  18
ATOM     18  P   UNL     1       8.703   2.527  22.575  0.00  0.00    +0.472 P 
ATOM     19  O   UNL     1       7.503   3.054  21.871  0.00  0.00    -0.228 OA
BRANCH  18  20
ATOM     20  O   UNL     1       9.909   2.106  21.620  0.00  0.00    -0.303 OA
ATOM     21  H   UNL     1      10.678   1.794  22.125  0.00  0.00    +0.222 HD
ENDBRANCH  18  20
BRANCH  18  22
ATOM     22  O   UNL     1       9.375   3.583  23.570  0.00  0.00    -0.303 OA
ATOM     23  H   UNL     1       9.241   4.494  23.250  0.00  0.00    +0.222 HD
ENDBRANCH  18  22
ENDBRANCH  17  18
ENDBRANCH  16  17
ENDBRANCH  13  16
ENDBRANCH   1  13
TORSDOF 12
ENDMDL
MODEL 8
REMARK VINA RESULT:      -4.4      4.013      5.972
REMARK  Name = 
REMARK  12 active torsions:
REMARK  status: ('A' for Active; 'I' for Inactive)
REMARK    1  A    between atoms: O_1  and  N_2
REMARK    2  A    between atoms: C_3  and  C_5
REMARK    3  A    between atoms: C_5  and  O_7
REMARK    4  A    between atoms: C_5  and  C_8
REMARK    5  A    between atoms: C_8  and  O_10
REMARK    6  A    between atoms: C_8  and  C_11
REMARK    7  A    between atoms: C_11  and  O_13
REMARK    8  A    between atoms: C_11  and  C_14
REMARK    9  A    between atoms: C_14  and  O_15
REMARK   10  A    between atoms: O_15  and  P_16
REMARK   11  A    between atoms: P_16  and  O_17
REMARK   12  A    between atoms: P_16  and  O_18
REMARK                            x       y       z     vdW  Elec       q    Type
REMARK                         _______ _______ _______ _____ _____    ______ ____
ROOT
ATOM      1  C   UNL     1       8.980  -4.792  25.148  0.00  0.00    +0.183 C 
ENDROOT
BRANCH   1   2
ATOM      2  O   UNL     1      10.320  -5.339  25.093  0.00  0.00    -0.386 OA
ATOM      3  H   UNL     1      10.926  -4.634  25.391  0.00  0.00    +0.210 HD
ENDBRANCH   1   2
BRANCH   1   4
ATOM      4  C   UNL     1       8.593  -4.555  26.619  0.00  0.00    +0.233 C 
BRANCH   4   7
ATOM      5  N   UNL     1       6.683  -5.955  26.003  0.00  0.00    -0.195 N 
ATOM      6  H   UNL     1       6.976  -5.813  25.033  0.00  0.00    +0.182 HD
ATOM      7  C   UNL     1       7.329  -5.334  27.038  0.00  0.00    +0.267 C 
ATOM      8  O   UNL     1       7.012  -5.408  28.226  0.00  0.00    -0.271 OA
BRANCH   5   9
ATOM      9  O   UNL     1       5.507  -6.673  26.266  0.00  0.00    -0.295 OA
ATOM     10  H   UNL     1       4.846  -5.968  26.387  0.00  0.00    +0.241 HD
ENDBRANCH   5   9
ENDBRANCH   4   7
BRANCH   4  11
ATOM     11  O   UNL     1       8.395  -3.152  26.843  0.00  0.00    -0.380 OA
ATOM     12  H   UNL     1       8.564  -2.720  25.976  0.00  0.00    +0.211 HD
ENDBRANCH   4  11
ENDBRANCH   1   4
BRANCH   1  13
ATOM     13  C   UNL     1       8.888  -3.485  24.314  0.00  0.00    +0.172 C 
BRANCH  13  14
ATOM     14  O   UNL     1      10.169  -3.095  23.811  0.00  0.00    -0.387 OA
ATOM     15  H   UNL     1      10.556  -2.483  24.462  0.00  0.00    +0.210 HD
ENDBRANCH  13  14
BRANCH  13  16
ATOM     16  C   UNL     1       7.947  -3.625  23.118  0.00  0.00    +0.206 C 
BRANCH  16  17
ATOM     17  O   UNL     1       6.863  -4.466  23.475  0.00  0.00    -0.284 OA
BRANCH  17  18
ATOM     18  P   UNL     1       6.270  -5.426  22.355  0.00  0.00    +0.472 P 
ATOM     19  O   UNL     1       5.590  -4.771  21.205  0.00  0.00    -0.228 OA
BRANCH  18  20
ATOM     20  O   UNL     1       5.360  -6.444  23.180  0.00  0.00    -0.303 OA
ATOM     21  H   UNL     1       4.684  -5.983  23.701  0.00  0.00    +0.222 HD
ENDBRANCH  18  20
BRANCH  18  22
ATOM     22  O   UNL     1       7.527  -6.319  21.931  0.00  0.00    -0.303 OA
ATOM     23  H   UNL     1       7.258  -7.244  21.778  0.00  0.00    +0.222 HD
ENDBRANCH  18  22
ENDBRANCH  17  18
ENDBRANCH  16  17
ENDBRANCH  13  16
ENDBRANCH   1  13
TORSDOF 12
ENDMDL
MODEL 9
REMARK VINA RESULT:      -4.4      4.597      6.780
REMARK  Name = 
REMARK  12 active torsions:
REMARK  status: ('A' for Active; 'I' for Inactive)
REMARK    1  A    between atoms: O_1  and  N_2
REMARK    2  A    between atoms: C_3  and  C_5
REMARK    3  A    between atoms: C_5  and  O_7
REMARK    4  A    between atoms: C_5  and  C_8
REMARK    5  A    between atoms: C_8  and  O_10
REMARK    6  A    between atoms: C_8  and  C_11
REMARK    7  A    between atoms: C_11  and  O_13
REMARK    8  A    between atoms: C_11  and  C_14
REMARK    9  A    between atoms: C_14  and  O_15
REMARK   10  A    between atoms: O_15  and  P_16
REMARK   11  A    between atoms: P_16  and  O_17
REMARK   12  A    between atoms: P_16  and  O_18
REMARK                            x       y       z     vdW  Elec       q    Type
REMARK                         _______ _______ _______ _____ _____    ______ ____
ROOT
ATOM      1  C   UNL     1       5.412  -5.724  22.191  0.00  0.00    +0.183 C 
ENDROOT
BRANCH   1   2
ATOM      2  O   UNL     1       6.182  -6.918  22.472  0.00  0.00    -0.386 OA
ATOM      3  H   UNL     1       6.672  -7.137  21.656  0.00  0.00    +0.210 HD
ENDBRANCH   1   2
BRANCH   1   4
ATOM      4  C   UNL     1       4.422  -5.481  23.345  0.00  0.00    +0.233 C 
BRANCH   4   7
ATOM      5  N   UNL     1       5.277  -6.026  25.571  0.00  0.00    -0.195 N 
ATOM      6  H   UNL     1       5.732  -5.109  25.549  0.00  0.00    +0.182 HD
ATOM      7  C   UNL     1       4.580  -6.499  24.493  0.00  0.00    +0.267 C 
ATOM      8  O   UNL     1       4.048  -7.607  24.416  0.00  0.00    -0.271 OA
BRANCH   5   9
ATOM      9  O   UNL     1       5.502  -6.876  26.664  0.00  0.00    -0.295 OA
ATOM     10  H   UNL     1       4.601  -7.159  26.906  0.00  0.00    +0.241 HD
ENDBRANCH   5   9
ENDBRANCH   4   7
BRANCH   4  11
ATOM     11  O   UNL     1       3.079  -5.521  22.841  0.00  0.00    -0.380 OA
ATOM     12  H   UNL     1       2.564  -6.032  23.505  0.00  0.00    +0.211 HD
ENDBRANCH   4  11
ENDBRANCH   1   4
BRANCH   1  13
ATOM     13  C   UNL     1       6.352  -4.505  21.976  0.00  0.00    +0.172 C 
BRANCH  13  14
ATOM     14  O   UNL     1       5.642  -3.387  21.439  0.00  0.00    -0.387 OA
ATOM     15  H   UNL     1       4.806  -3.316  21.932  0.00  0.00    +0.210 HD
ENDBRANCH  13  14
BRANCH  13  16
ATOM     16  C   UNL     1       7.015  -4.050  23.276  0.00  0.00    +0.206 C 
BRANCH  16  17
ATOM     17  O   UNL     1       7.795  -5.113  23.797  0.00  0.00    -0.284 OA
BRANCH  17  18
ATOM     18  P   UNL     1       8.739  -4.800  25.038  0.00  0.00    +0.472 P 
ATOM     19  O   UNL     1      10.203  -4.769  24.772  0.00  0.00    -0.228 OA
BRANCH  18  20
ATOM     20  O   UNL     1       8.279  -5.863  26.135  0.00  0.00    -0.303 OA
ATOM     21  H   UNL     1       7.615  -5.493  26.739  0.00  0.00    +0.222 HD
ENDBRANCH  18  20
BRANCH  18  22
ATOM     22  O   UNL     1       8.162  -3.419  25.602  0.00  0.00    -0.303 OA
ATOM     23  H   UNL     1       7.949  -3.495  26.550  0.00  0.00    +0.222 HD
ENDBRANCH  18  22
ENDBRANCH  17  18
ENDBRANCH  16  17
ENDBRANCH  13  16
ENDBRANCH   1  13
TORSDOF 12
ENDMDL
