MODEL 1
REMARK VINA RESULT:      -4.9      0.000      0.000
REMARK  Name = 
REMARK  8 active torsions:
REMARK  status: ('A' for Active; 'I' for Inactive)
REMARK    1  A    between atoms: O_1  and  C_2
REMARK    2  A    between atoms: C_5  and  O_7
REMARK    3  A    between atoms: C_8  and  O_10
REMARK    4  A    between atoms: C_11  and  C_13
REMARK    5  A    between atoms: C_13  and  O_14
REMARK    6  A    between atoms: O_14  and  P_15
REMARK    7  A    between atoms: P_15  and  O_16
REMARK    8  A    between atoms: P_15  and  O_17
REMARK                            x       y       z     vdW  Elec       q    Type
REMARK                         _______ _______ _______ _____ _____    ______ ____
ROOT
ATOM      1  C   UNL     1       6.086  -3.774  21.701  0.00  0.00    +0.250 C 
ATOM      2  O   UNL     1       5.192  -3.758  22.798  0.00  0.00    -0.343 OA
ATOM      3  C   UNL     1       5.496  -4.667  23.873  0.00  0.00    +0.178 C 
ATOM      4  C   UNL     1       5.743  -6.109  23.382  0.00  0.00    +0.174 C 
ATOM      5  C   UNL     1       6.648  -6.170  22.146  0.00  0.00    +0.150 C 
ATOM      6  C   UNL     1       6.229  -5.152  21.088  0.00  0.00    +0.095 C 
ENDROOT
BRANCH   1   7
ATOM      7  O   UNL     1       7.382  -3.311  22.051  0.00  0.00    -0.367 OA
ATOM      8  H   UNL     1       7.790  -4.018  22.581  0.00  0.00    +0.212 HD
ENDBRANCH   1   7
BRANCH   4   9
ATOM      9  O   UNL     1       4.472  -6.692  23.043  0.00  0.00    -0.387 OA
ATOM     10  H   UNL     1       4.641  -7.411  22.409  0.00  0.00    +0.210 HD
ENDBRANCH   4   9
BRANCH   5  11
ATOM     11  O   UNL     1       8.017  -6.004  22.515  0.00  0.00    -0.389 OA
ATOM     12  H   UNL     1       8.124  -5.103  22.884  0.00  0.00    +0.210 HD
ENDBRANCH   5  11
BRANCH   3  13
ATOM     13  C   UNL     1       6.603  -4.112  24.779  0.00  0.00    +0.206 C 
BRANCH  13  14
ATOM     14  O   UNL     1       7.457  -5.186  25.147  0.00  0.00    -0.284 OA
BRANCH  14  15
ATOM     15  P   UNL     1       8.970  -4.850  25.503  0.00  0.00    +0.472 P 
ATOM     16  O   UNL     1       9.256  -4.387  26.880  0.00  0.00    -0.228 OA
BRANCH  15  17
ATOM     17  O   UNL     1       9.409  -3.879  24.311  0.00  0.00    -0.303 OA
ATOM     18  H   UNL     1       9.236  -2.954  24.555  0.00  0.00    +0.222 HD
ENDBRANCH  15  17
BRANCH  15  19
ATOM     19  O   UNL     1       9.759  -6.185  25.109  0.00  0.00    -0.303 OA
ATOM     20  H   UNL     1       9.306  -6.631  24.368  0.00  0.00    +0.222 HD
ENDBRANCH  15  19
ENDBRANCH  14  15
ENDBRANCH  13  14
ENDBRANCH   3  13
TORSDOF 8
ENDMDL
MODEL 2
REMARK VINA RESULT:      -4.8      3.233      4.913
REMARK  Name = 
REMARK  8 active torsions:
REMARK  status: ('A' for Active; 'I' for Inactive)
REMARK    1  A    between atoms: O_1  and  C_2
REMARK    2  A    between atoms: C_5  and  O_7
REMARK    3  A    between atoms: C_8  and  O_10
REMARK    4  A    between atoms: C_11  and  C_13
REMARK    5  A    between atoms: C_13  and  O_14
REMARK    6  A    between atoms: O_14  and  P_15
REMARK    7  A    between atoms: P_15  and  O_16
REMARK    8  A    between atoms: P_15  and  O_17
REMARK                            x       y       z     vdW  Elec       q    Type
REMARK                         _______ _______ _______ _____ _____    ______ ____
ROOT
ATOM      1  C   UNL     1       9.603  -1.725  22.240  0.00  0.00    +0.250 C 
ATOM      2  O   UNL     1      10.201  -1.906  23.510  0.00  0.00    -0.343 OA
ATOM      3  C   UNL     1       9.445  -1.424  24.638  0.00  0.00    +0.178 C 
ATOM      4  C   UNL     1       8.963   0.030  24.455  0.00  0.00    +0.174 C 
ATOM      5  C   UNL     1       8.375   0.292  23.063  0.00  0.00    +0.150 C 
ATOM      6  C   UNL     1       9.263  -0.276  21.958  0.00  0.00    +0.095 C 
ENDROOT
BRANCH   1   7
ATOM      7  O   UNL     1       8.419  -2.494  22.084  0.00  0.00    -0.367 OA
ATOM      8  H   UNL     1       7.820  -2.219  22.800  0.00  0.00    +0.212 HD
ENDBRANCH   1   7
BRANCH   4   9
ATOM      9  O   UNL     1      10.091   0.904  24.642  0.00  0.00    -0.387 OA
ATOM     10  H   UNL     1      10.604   0.899  23.815  0.00  0.00    +0.210 HD
ENDBRANCH   4   9
BRANCH   5  11
ATOM     11  O   UNL     1       7.044  -0.216  22.975  0.00  0.00    -0.389 OA
ATOM     12  H   UNL     1       6.846  -0.691  23.809  0.00  0.00    +0.210 HD
ENDBRANCH   5  11
BRANCH   3  13
ATOM     13  C   UNL     1       8.336  -2.410  25.030  0.00  0.00    +0.206 C 
BRANCH  13  14
ATOM     14  O   UNL     1       8.922  -3.460  25.787  0.00  0.00    -0.284 OA
BRANCH  14  15
ATOM     15  P   UNL     1       8.981  -4.909  25.136  0.00  0.00    +0.472 P 
ATOM     16  O   UNL     1       8.421  -5.064  23.774  0.00  0.00    -0.228 OA
BRANCH  15  17
ATOM     17  O   UNL     1       8.361  -5.839  26.280  0.00  0.00    -0.303 OA
ATOM     18  H   UNL     1       7.396  -5.720  26.318  0.00  0.00    +0.222 HD
ENDBRANCH  15  17
BRANCH  15  19
ATOM     19  O   UNL     1      10.528  -5.306  25.232  0.00  0.00    -0.303 OA
ATOM     20  H   UNL     1      10.956  -5.184  24.363  0.00  0.00    +0.222 HD
ENDBRANCH  15  19
ENDBRANCH  14  15
ENDBRANCH  13  14
ENDBRANCH   3  13
TORSDOF 8
ENDMDL
MODEL 3
REMARK VINA RESULT:      -4.7      3.454      4.817
REMARK  Name = 
REMARK  8 active torsions:
REMARK  status: ('A' for Active; 'I' for Inactive)
REMARK    1  A    between atoms: O_1  and  C_2
REMARK    2  A    between atoms: C_5  and  O_7
REMARK    3  A    between atoms: C_8  and  O_10
REMARK    4  A    between atoms: C_11  and  C_13
REMARK    5  A    between atoms: C_13  and  O_14
REMARK    6  A    between atoms: O_14  and  P_15
REMARK    7  A    between atoms: P_15  and  O_16
REMARK    8  A    between atoms: P_15  and  O_17
REMARK                            x       y       z     vdW  Elec       q    Type
REMARK                         _______ _______ _______ _____ _____    ______ ____
ROOT
ATOM      1  C   UNL     1       7.937   0.352  23.074  0.00  0.00    +0.250 C 
ATOM      2  O   UNL     1       7.716  -0.953  22.575  0.00  0.00    -0.343 OA
ATOM      3  C   UNL     1       8.530  -1.995  23.147  0.00  0.00    +0.178 C 
ATOM      4  C   UNL     1      10.033  -1.647  23.141  0.00  0.00    +0.174 C 
ATOM      5  C   UNL     1      10.315  -0.212  23.604  0.00  0.00    +0.150 C 
ATOM      6  C   UNL     1       9.380   0.792  22.934  0.00  0.00    +0.095 C 
ENDROOT
BRANCH   1   7
ATOM      7  O   UNL     1       7.568   0.479  24.440  0.00  0.00    -0.367 OA
ATOM      8  H   UNL     1       7.187  -0.378  24.700  0.00  0.00    +0.212 HD
ENDBRANCH   1   7
BRANCH   4   9
ATOM      9  O   UNL     1      10.522  -1.793  21.795  0.00  0.00    -0.387 OA
ATOM     10  H   UNL     1       9.930  -2.415  21.336  0.00  0.00    +0.210 HD
ENDBRANCH   4   9
BRANCH   5  11
ATOM     11  O   UNL     1      10.246  -0.120  25.027  0.00  0.00    -0.389 OA
ATOM     12  H   UNL     1       9.672   0.641  25.253  0.00  0.00    +0.210 HD
ENDBRANCH   5  11
BRANCH   3  13
ATOM     13  C   UNL     1       7.992  -2.437  24.516  0.00  0.00    +0.206 C 
BRANCH  13  14
ATOM     14  O   UNL     1       9.056  -3.043  25.236  0.00  0.00    -0.284 OA
BRANCH  14  15
ATOM     15  P   UNL     1       8.988  -4.611  25.491  0.00  0.00    +0.472 P 
ATOM     16  O   UNL     1       7.783  -5.325  25.012  0.00  0.00    -0.228 OA
BRANCH  15  17
ATOM     17  O   UNL     1       9.325  -4.733  27.050  0.00  0.00    -0.303 OA
ATOM     18  H   UNL     1       8.810  -5.457  27.445  0.00  0.00    +0.222 HD
ENDBRANCH  15  17
BRANCH  15  19
ATOM     19  O   UNL     1      10.346  -5.160  24.847  0.00  0.00    -0.303 OA
ATOM     20  H   UNL     1      10.555  -6.040  25.214  0.00  0.00    +0.222 HD
ENDBRANCH  15  19
ENDBRANCH  14  15
ENDBRANCH  13  14
ENDBRANCH   3  13
TORSDOF 8
ENDMDL
MODEL 4
REMARK VINA RESULT:      -4.7      5.194      6.400
REMARK  Name = 
REMARK  8 active torsions:
REMARK  status: ('A' for Active; 'I' for Inactive)
REMARK    1  A    between atoms: O_1  and  C_2
REMARK    2  A    between atoms: C_5  and  O_7
REMARK    3  A    between atoms: C_8  and  O_10
REMARK    4  A    between atoms: C_11  and  C_13
REMARK    5  A    between atoms: C_13  and  O_14
REMARK    6  A    between atoms: O_14  and  P_15
REMARK    7  A    between atoms: P_15  and  O_16
REMARK    8  A    between atoms: P_15  and  O_17
REMARK                            x       y       z     vdW  Elec       q    Type
REMARK                         _______ _______ _______ _____ _____    ______ ____
ROOT
ATOM      1  C   UNL     1       7.641  -0.270  23.459  0.00  0.00    +0.250 C 
ATOM      2  O   UNL     1       8.546  -0.284  24.547  0.00  0.00    -0.343 OA
ATOM      3  C   UNL     1       9.878  -0.748  24.255  0.00  0.00    +0.178 C 
ATOM      4  C   UNL     1       9.888  -2.100  23.510  0.00  0.00    +0.174 C 
ATOM      5  C   UNL     1       8.868  -2.158  22.367  0.00  0.00    +0.150 C 
ATOM      6  C   UNL     1       7.502  -1.628  22.802  0.00  0.00    +0.095 C 
ENDROOT
BRANCH   1   7
ATOM      7  O   UNL     1       8.012   0.668  22.458  0.00  0.00    -0.367 OA
ATOM      8  H   UNL     1       8.368   1.441  22.929  0.00  0.00    +0.212 HD
ENDBRANCH   1   7
BRANCH   4   9
ATOM      9  O   UNL     1       9.568  -3.136  24.456  0.00  0.00    -0.387 OA
ATOM     10  H   UNL     1       9.630  -3.988  23.989  0.00  0.00    +0.210 HD
ENDBRANCH   4   9
BRANCH   5  11
ATOM     11  O   UNL     1       9.356  -1.462  21.221  0.00  0.00    -0.389 OA
ATOM     12  H   UNL     1       9.321  -2.075  20.457  0.00  0.00    +0.210 HD
ENDBRANCH   5  11
BRANCH   3  13
ATOM     13  C   UNL     1      10.718   0.347  23.583  0.00  0.00    +0.206 C 
BRANCH  13  14
ATOM     14  O   UNL     1      10.405   1.588  24.200  0.00  0.00    -0.284 OA
BRANCH  14  15
ATOM     15  P   UNL     1      10.381   2.891  23.289  0.00  0.00    +0.472 P 
ATOM     16  O   UNL     1      11.480   3.867  23.471  0.00  0.00    -0.228 OA
BRANCH  15  17
ATOM     17  O   UNL     1       8.892   3.438  23.489  0.00  0.00    -0.303 OA
ATOM     18  H   UNL     1       8.326   3.134  22.759  0.00  0.00    +0.222 HD
ENDBRANCH  15  17
BRANCH  15  19
ATOM     19  O   UNL     1      10.291   2.312  21.800  0.00  0.00    -0.303 OA
ATOM     20  H   UNL     1       9.539   2.720  21.330  0.00  0.00    +0.222 HD
ENDBRANCH  15  19
ENDBRANCH  14  15
ENDBRANCH  13  14
ENDBRANCH   3  13
TORSDOF 8
ENDMDL
MODEL 5
REMARK VINA RESULT:      -4.7      3.116      4.736
REMARK  Name = 
REMARK  8 active torsions:
REMARK  status: ('A' for Active; 'I' for Inactive)
REMARK    1  A    between atoms: O_1  and  C_2
REMARK    2  A    between atoms: C_5  and  O_7
REMARK    3  A    between atoms: C_8  and  O_10
REMARK    4  A    between atoms: C_11  and  C_13
REMARK    5  A    between atoms: C_13  and  O_14
REMARK    6  A    between atoms: O_14  and  P_15
REMARK    7  A    between atoms: P_15  and  O_16
REMARK    8  A    between atoms: P_15  and  O_17
REMARK                            x       y       z     vdW  Elec       q    Type
REMARK                         _______ _______ _______ _____ _____    ______ ____
ROOT
ATOM      1  C   UNL     1       8.811  -0.352  24.576  0.00  0.00    +0.250 C 
ATOM      2  O   UNL     1       7.836  -0.244  23.556  0.00  0.00    -0.343 OA
ATOM      3  C   UNL     1       7.791  -1.326  22.607  0.00  0.00    +0.178 C 
ATOM      4  C   UNL     1       9.177  -1.657  22.015  0.00  0.00    +0.174 C 
ATOM      5  C   UNL     1      10.281  -1.711  23.077  0.00  0.00    +0.150 C 
ATOM      6  C   UNL     1      10.212  -0.516  24.025  0.00  0.00    +0.095 C 
ENDROOT
BRANCH   1   7
ATOM      7  O   UNL     1       8.554  -1.437  25.457  0.00  0.00    -0.367 OA
ATOM      8  H   UNL     1       8.600  -1.072  26.358  0.00  0.00    +0.212 HD
ENDBRANCH   1   7
BRANCH   4   9
ATOM      9  O   UNL     1       9.514  -0.632  21.062  0.00  0.00    -0.387 OA
ATOM     10  H   UNL     1       9.811  -1.077  20.248  0.00  0.00    +0.210 HD
ENDBRANCH   4   9
BRANCH   5  11
ATOM     11  O   UNL     1      10.233  -2.946  23.791  0.00  0.00    -0.389 OA
ATOM     12  H   UNL     1       9.826  -2.775  24.666  0.00  0.00    +0.210 HD
ENDBRANCH   5  11
BRANCH   3  13
ATOM     13  C   UNL     1       7.045  -2.540  23.178  0.00  0.00    +0.206 C 
BRANCH  13  14
ATOM     14  O   UNL     1       7.522  -3.705  22.519  0.00  0.00    -0.284 OA
BRANCH  14  15
ATOM     15  P   UNL     1       7.297  -5.110  23.230  0.00  0.00    +0.472 P 
ATOM     16  O   UNL     1       6.072  -5.270  24.045  0.00  0.00    -0.228 OA
BRANCH  15  17
ATOM     17  O   UNL     1       8.693  -5.361  23.970  0.00  0.00    -0.303 OA
ATOM     18  H   UNL     1       9.417  -5.359  23.321  0.00  0.00    +0.222 HD
ENDBRANCH  15  17
BRANCH  15  19
ATOM     19  O   UNL     1       7.400  -6.164  22.030  0.00  0.00    -0.303 OA
ATOM     20  H   UNL     1       7.444  -7.071  22.388  0.00  0.00    +0.222 HD
ENDBRANCH  15  19
ENDBRANCH  14  15
ENDBRANCH  13  14
ENDBRANCH   3  13
TORSDOF 8
ENDMDL
MODEL 6
REMARK VINA RESULT:      -4.7      4.700      6.260
REMARK  Name = 
REMARK  8 active torsions:
REMARK  status: ('A' for Active; 'I' for Inactive)
REMARK    1  A    between atoms: O_1  and  C_2
REMARK    2  A    between atoms: C_5  and  O_7
REMARK    3  A    between atoms: C_8  and  O_10
REMARK    4  A    between atoms: C_11  and  C_13
REMARK    5  A    between atoms: C_13  and  O_14
REMARK    6  A    between atoms: O_14  and  P_15
REMARK    7  A    between atoms: P_15  and  O_16
REMARK    8  A    between atoms: P_15  and  O_17
REMARK                            x       y       z     vdW  Elec       q    Type
REMARK                         _______ _______ _______ _____ _____    ______ ____
ROOT
ATOM      1  C   UNL     1       7.424   0.513  23.041  0.00  0.00    +0.250 C 
ATOM      2  O   UNL     1       8.437  -0.111  22.276  0.00  0.00    -0.343 OA
ATOM      3  C   UNL     1       9.792   0.150  22.690  0.00  0.00    +0.178 C 
ATOM      4  C   UNL     1      10.081   1.654  22.870  0.00  0.00    +0.174 C 
ATOM      5  C   UNL     1       8.970   2.388  23.631  0.00  0.00    +0.150 C 
ATOM      6  C   UNL     1       7.586   2.018  23.104  0.00  0.00    +0.095 C 
ENDROOT
BRANCH   1   7
ATOM      7  O   UNL     1       7.369   0.020  24.372  0.00  0.00    -0.367 OA
ATOM      8  H   UNL     1       6.504   0.289  24.727  0.00  0.00    +0.212 HD
ENDBRANCH   1   7
BRANCH   4   9
ATOM      9  O   UNL     1      10.204   2.247  21.565  0.00  0.00    -0.387 OA
ATOM     10  H   UNL     1      11.080   2.670  21.517  0.00  0.00    +0.210 HD
ENDBRANCH   4   9
BRANCH   5  11
ATOM     11  O   UNL     1       9.077   2.146  25.034  0.00  0.00    -0.389 OA
ATOM     12  H   UNL     1       9.570   2.892  25.433  0.00  0.00    +0.210 HD
ENDBRANCH   5  11
BRANCH   3  13
ATOM     13  C   UNL     1      10.184  -0.715  23.896  0.00  0.00    +0.206 C 
BRANCH  13  14
ATOM     14  O   UNL     1      10.164  -2.077  23.491  0.00  0.00    -0.284 OA
BRANCH  14  15
ATOM     15  P   UNL     1       9.190  -3.072  24.262  0.00  0.00    +0.472 P 
ATOM     16  O   UNL     1       9.693  -4.438  24.535  0.00  0.00    -0.228 OA
BRANCH  15  17
ATOM     17  O   UNL     1       7.831  -2.957  23.427  0.00  0.00    -0.303 OA
ATOM     18  H   UNL     1       7.213  -2.359  23.880  0.00  0.00    +0.222 HD
ENDBRANCH  15  17
BRANCH  15  19
ATOM     19  O   UNL     1       8.798  -2.267  25.588  0.00  0.00    -0.303 OA
ATOM     20  H   UNL     1       8.321  -1.448  25.350  0.00  0.00    +0.222 HD
ENDBRANCH  15  19
ENDBRANCH  14  15
ENDBRANCH  13  14
ENDBRANCH   3  13
TORSDOF 8
ENDMDL
MODEL 7
REMARK VINA RESULT:      -4.7      4.766      6.548
REMARK  Name = 
REMARK  8 active torsions:
REMARK  status: ('A' for Active; 'I' for Inactive)
REMARK    1  A    between atoms: O_1  and  C_2
REMARK    2  A    between atoms: C_5  and  O_7
REMARK    3  A    between atoms: C_8  and  O_10
REMARK    4  A    between atoms: C_11  and  C_13
REMARK    5  A    between atoms: C_13  and  O_14
REMARK    6  A    between atoms: O_14  and  P_15
REMARK    7  A    between atoms: P_15  and  O_16
REMARK    8  A    between atoms: P_15  and  O_17
REMARK                            x       y       z     vdW  Elec       q    Type
REMARK                         _______ _______ _______ _____ _____    ______ ____
ROOT
ATOM      1  C   UNL     1       7.668   1.228  23.914  0.00  0.00    +0.250 C 
ATOM      2  O   UNL     1       7.827   0.801  22.574  0.00  0.00    -0.343 OA
ATOM      3  C   UNL     1       9.133   0.306  22.220  0.00  0.00    +0.178 C 
ATOM      4  C   UNL     1      10.267   1.267  22.633  0.00  0.00    +0.174 C 
ATOM      5  C   UNL     1      10.095   1.815  24.055  0.00  0.00    +0.150 C 
ATOM      6  C   UNL     1       8.668   2.296  24.306  0.00  0.00    +0.095 C 
ENDROOT
BRANCH   1   7
ATOM      7  O   UNL     1       7.781   0.157  24.840  0.00  0.00    -0.367 OA
ATOM      8  H   UNL     1       6.914   0.081  25.276  0.00  0.00    +0.212 HD
ENDBRANCH   1   7
BRANCH   4   9
ATOM      9  O   UNL     1      10.270   2.377  21.717  0.00  0.00    -0.387 OA
ATOM     10  H   UNL     1      11.137   2.813  21.790  0.00  0.00    +0.210 HD
ENDBRANCH   4   9
BRANCH   5  11
ATOM     11  O   UNL     1      10.496   0.843  25.020  0.00  0.00    -0.389 OA
ATOM     12  H   UNL     1       9.734   0.673  25.612  0.00  0.00    +0.210 HD
ENDBRANCH   5  11
BRANCH   3  13
ATOM     13  C   UNL     1       9.330  -1.141  22.694  0.00  0.00    +0.206 C 
BRANCH  13  14
ATOM     14  O   UNL     1       8.484  -1.981  21.921  0.00  0.00    -0.284 OA
BRANCH  14  15
ATOM     15  P   UNL     1       7.326  -2.771  22.673  0.00  0.00    +0.472 P 
ATOM     16  O   UNL     1       6.958  -4.103  22.143  0.00  0.00    -0.228 OA
BRANCH  15  17
ATOM     17  O   UNL     1       6.156  -1.684  22.765  0.00  0.00    -0.303 OA
ATOM     18  H   UNL     1       6.455  -0.842  22.381  0.00  0.00    +0.222 HD
ENDBRANCH  15  17
BRANCH  15  19
ATOM     19  O   UNL     1       7.820  -2.811  24.194  0.00  0.00    -0.303 OA
ATOM     20  H   UNL     1       7.360  -3.526  24.674  0.00  0.00    +0.222 HD
ENDBRANCH  15  19
ENDBRANCH  14  15
ENDBRANCH  13  14
ENDBRANCH   3  13
TORSDOF 8
ENDMDL
MODEL 8
REMARK VINA RESULT:      -4.6      5.706      7.286
REMARK  Name = 
REMARK  8 active torsions:
REMARK  status: ('A' for Active; 'I' for Inactive)
REMARK    1  A    between atoms: O_1  and  C_2
REMARK    2  A    between atoms: C_5  and  O_7
REMARK    3  A    between atoms: C_8  and  O_10
REMARK    4  A    between atoms: C_11  and  C_13
REMARK    5  A    between atoms: C_13  and  O_14
REMARK    6  A    between atoms: O_14  and  P_15
REMARK    7  A    between atoms: P_15  and  O_16
REMARK    8  A    between atoms: P_15  and  O_17
REMARK                            x       y       z     vdW  Elec       q    Type
REMARK                         _______ _______ _______ _____ _____    ______ ____
ROOT
ATOM      1  C   UNL     1       7.947   1.806  21.774  0.00  0.00    +0.250 C 
ATOM      2  O   UNL     1       9.305   1.443  21.933  0.00  0.00    -0.343 OA
ATOM      3  C   UNL     1       9.871   1.671  23.238  0.00  0.00    +0.178 C 
ATOM      4  C   UNL     1       9.616   3.102  23.756  0.00  0.00    +0.174 C 
ATOM      5  C   UNL     1       8.172   3.567  23.535  0.00  0.00    +0.150 C 
ATOM      6  C   UNL     1       7.689   3.258  22.120  0.00  0.00    +0.095 C 
ENDROOT
BRANCH   1   7
ATOM      7  O   UNL     1       7.077   1.004  22.559  0.00  0.00    -0.367 OA
ATOM      8  H   UNL     1       7.502   0.911  23.429  0.00  0.00    +0.212 HD
ENDBRANCH   1   7
BRANCH   4   9
ATOM      9  O   UNL     1      10.493   3.998  23.050  0.00  0.00    -0.387 OA
ATOM     10  H   UNL     1      10.848   3.515  22.282  0.00  0.00    +0.210 HD
ENDBRANCH   4   9
BRANCH   5  11
ATOM     11  O   UNL     1       7.305   3.000  24.518  0.00  0.00    -0.389 OA
ATOM     12  H   UNL     1       6.700   2.377  24.064  0.00  0.00    +0.210 HD
ENDBRANCH   5  11
BRANCH   3  13
ATOM     13  C   UNL     1       9.470   0.564  24.223  0.00  0.00    +0.206 C 
BRANCH  13  14
ATOM     14  O   UNL     1      10.361  -0.529  24.050  0.00  0.00    -0.284 OA
BRANCH  14  15
ATOM     15  P   UNL     1       9.835  -1.804  23.259  0.00  0.00    +0.472 P 
ATOM     16  O   UNL     1      10.098  -3.132  23.861  0.00  0.00    -0.228 OA
BRANCH  15  17
ATOM     17  O   UNL     1      10.394  -1.560  21.780  0.00  0.00    -0.303 OA
ATOM     18  H   UNL     1       9.717  -1.121  21.238  0.00  0.00    +0.222 HD
ENDBRANCH  15  17
BRANCH  15  19
ATOM     19  O   UNL     1       8.279  -1.504  23.046  0.00  0.00    -0.303 OA
ATOM     20  H   UNL     1       8.143  -0.550  22.889  0.00  0.00    +0.222 HD
ENDBRANCH  15  19
ENDBRANCH  14  15
ENDBRANCH  13  14
ENDBRANCH   3  13
TORSDOF 8
ENDMDL
MODEL 9
REMARK VINA RESULT:      -4.6      5.147      6.570
REMARK  Name = 
REMARK  8 active torsions:
REMARK  status: ('A' for Active; 'I' for Inactive)
REMARK    1  A    between atoms: O_1  and  C_2
REMARK    2  A    between atoms: C_5  and  O_7
REMARK    3  A    between atoms: C_8  and  O_10
REMARK    4  A    between atoms: C_11  and  C_13
REMARK    5  A    between atoms: C_13  and  O_14
REMARK    6  A    between atoms: O_14  and  P_15
REMARK    7  A    between atoms: P_15  and  O_16
REMARK    8  A    between atoms: P_15  and  O_17
REMARK                            x       y       z     vdW  Elec       q    Type
REMARK                         _______ _______ _______ _____ _____    ______ ____
ROOT
ATOM      1  C   UNL     1       9.684   2.407  22.296  0.00  0.00    +0.250 C 
ATOM      2  O   UNL     1      10.463   2.347  23.476  0.00  0.00    -0.343 OA
ATOM      3  C   UNL     1      10.061   1.364  24.449  0.00  0.00    +0.178 C 
ATOM      4  C   UNL     1       8.557   1.437  24.782  0.00  0.00    +0.174 C 
ATOM      5  C   UNL     1       7.676   1.579  23.535  0.00  0.00    +0.150 C 
ATOM      6  C   UNL     1       8.215   2.642  22.581  0.00  0.00    +0.095 C 
ENDROOT
BRANCH   1   7
ATOM      7  O   UNL     1       9.798   1.229  21.511  0.00  0.00    -0.367 OA
ATOM      8  H   UNL     1       9.226   0.564  21.933  0.00  0.00    +0.212 HD
ENDBRANCH   1   7
BRANCH   4   9
ATOM      9  O   UNL     1       8.338   2.584  25.624  0.00  0.00    -0.387 OA
ATOM     10  H   UNL     1       7.444   2.918  25.435  0.00  0.00    +0.210 HD
ENDBRANCH   4   9
BRANCH   5  11
ATOM     11  O   UNL     1       7.524   0.319  22.881  0.00  0.00    -0.389 OA
ATOM     12  H   UNL     1       7.493   0.482  21.915  0.00  0.00    +0.210 HD
ENDBRANCH   5  11
BRANCH   3  13
ATOM     13  C   UNL     1      10.554  -0.038  24.064  0.00  0.00    +0.206 C 
BRANCH  13  14
ATOM     14  O   UNL     1       9.656  -0.991  24.616  0.00  0.00    -0.284 OA
BRANCH  14  15
ATOM     15  P   UNL     1       9.366  -2.314  23.782  0.00  0.00    +0.472 P 
ATOM     16  O   UNL     1      10.124  -3.530  24.153  0.00  0.00    -0.228 OA
BRANCH  15  17
ATOM     17  O   UNL     1       9.498  -1.816  22.268  0.00  0.00    -0.303 OA
ATOM     18  H   UNL     1       8.927  -1.043  22.122  0.00  0.00    +0.222 HD
ENDBRANCH  15  17
BRANCH  15  19
ATOM     19  O   UNL     1       7.781  -2.497  23.901  0.00  0.00    -0.303 OA
ATOM     20  H   UNL     1       7.507  -3.320  23.452  0.00  0.00    +0.222 HD
ENDBRANCH  15  19
ENDBRANCH  14  15
ENDBRANCH  13  14
ENDBRANCH   3  13
TORSDOF 8
ENDMDL
