MODEL 1
REMARK VINA RESULT:      -6.9      0.000      0.000
REMARK  Name = 
REMARK  10 active torsions:
REMARK  status: ('A' for Active; 'I' for Inactive)
REMARK    1  A    between atoms: C_1  and  C_2
REMARK    2  A    between atoms: C_7  and  C_8
REMARK    3  A    between atoms: N_9  and  C_12
REMARK    4  A    between atoms: C_15  and  C_17
REMARK    5  A    between atoms: C_17  and  O_18
REMARK    6  A    between atoms: O_18  and  P_19
REMARK    7  A    between atoms: P_19  and  O_20
REMARK    8  A    between atoms: P_19  and  O_21
REMARK    9  A    between atoms: C_23  and  O_25
REMARK   10  A    between atoms: C_26  and  O_28
REMARK                            x       y       z     vdW  Elec       q    Type
REMARK                         _______ _______ _______ _____ _____    ______ ____
ROOT
ATOM      1  C   UNL     1       9.302  -3.275  24.453  0.00  0.00    +0.252 C 
ATOM      2  C   UNL     1       9.279  -4.531  25.340  0.00  0.00    +0.195 C 
ATOM      3  C   UNL     1       8.007  -5.284  24.942  0.00  0.00    +0.178 C 
ATOM      4  C   UNL     1       7.336  -4.360  23.928  0.00  0.00    +0.178 C 
ATOM      5  O   UNL     1       8.383  -3.553  23.370  0.00  0.00    -0.346 OA
ENDROOT
BRANCH   1  12
ATOM      6  C   UNL     1       9.031   3.495  24.080  0.00  0.00    +0.044 C 
ATOM      7  C   UNL     1       9.042   1.999  24.239  0.00  0.00    -0.045 A 
ATOM      8  C   UNL     1       9.505   1.147  23.214  0.00  0.00    -0.045 A 
ATOM      9  C   UNL     1       9.992   1.716  21.905  0.00  0.00    +0.044 C 
ATOM     10  C   UNL     1       9.519  -0.253  23.391  0.00  0.00    +0.031 A 
ATOM     11  C   UNL     1       9.049  -0.763  24.609  0.00  0.00    +0.071 A 
ATOM     12  N   UNL     1       8.930  -2.036  25.125  0.00  0.00    -0.301 N 
ATOM     13  C   UNL     1       8.318  -1.927  26.346  0.00  0.00    +0.202 A 
ATOM     14  N   UNL     1       8.124  -0.676  26.690  0.00  0.00    -0.236 NA
ATOM     15  C   UNL     1       8.566   0.059  25.621  0.00  0.00    +0.089 A 
ATOM     16  C   UNL     1       8.568   1.448  25.446  0.00  0.00    +0.033 A 
ENDBRANCH   1  12
BRANCH   2  17
ATOM     17  O   UNL     1      10.435  -5.350  25.062  0.00  0.00    -0.385 OA
ATOM     18  H   UNL     1      10.219  -6.279  25.277  0.00  0.00    +0.210 HD
ENDBRANCH   2  17
BRANCH   3  19
ATOM     19  O   UNL     1       7.178  -5.506  26.078  0.00  0.00    -0.386 OA
ATOM     20  H   UNL     1       7.665  -5.205  26.868  0.00  0.00    +0.210 HD
ENDBRANCH   3  19
BRANCH   4  21
ATOM     21  C   UNL     1       6.598  -5.101  22.822  0.00  0.00    +0.206 C 
BRANCH  21  22
ATOM     22  O   UNL     1       5.920  -6.202  23.391  0.00  0.00    -0.284 OA
BRANCH  22  23
ATOM     23  P   UNL     1       4.368  -6.026  23.717  0.00  0.00    +0.472 P 
ATOM     24  O   UNL     1       3.593  -5.166  22.783  0.00  0.00    -0.228 OA
BRANCH  23  25
ATOM     25  O   UNL     1       4.341  -5.567  25.242  0.00  0.00    -0.303 OA
ATOM     26  H   UNL     1       3.484  -5.171  25.489  0.00  0.00    +0.222 HD
ENDBRANCH  23  25
BRANCH  23  27
ATOM     27  O   UNL     1       3.843  -7.531  23.778  0.00  0.00    -0.303 OA
ATOM     28  H   UNL     1       3.003  -7.630  23.297  0.00  0.00    +0.222 HD
ENDBRANCH  23  27
ENDBRANCH  22  23
ENDBRANCH  21  22
ENDBRANCH   4  21
TORSDOF 8
ENDMDL
MODEL 2
REMARK VINA RESULT:      -6.6      4.657      7.515
REMARK  Name = 
REMARK  10 active torsions:
REMARK  status: ('A' for Active; 'I' for Inactive)
REMARK    1  A    between atoms: C_1  and  C_2
REMARK    2  A    between atoms: C_7  and  C_8
REMARK    3  A    between atoms: N_9  and  C_12
REMARK    4  A    between atoms: C_15  and  C_17
REMARK    5  A    between atoms: C_17  and  O_18
REMARK    6  A    between atoms: O_18  and  P_19
REMARK    7  A    between atoms: P_19  and  O_20
REMARK    8  A    between atoms: P_19  and  O_21
REMARK    9  A    between atoms: C_23  and  O_25
REMARK   10  A    between atoms: C_26  and  O_28
REMARK                            x       y       z     vdW  Elec       q    Type
REMARK                         _______ _______ _______ _____ _____    ______ ____
ROOT
ATOM      1  C   UNL     1       9.242  -1.371  23.499  0.00  0.00    +0.252 C 
ATOM      2  C   UNL     1       9.545  -0.950  22.051  0.00  0.00    +0.195 C 
ATOM      3  C   UNL     1       9.825   0.554  22.117  0.00  0.00    +0.178 C 
ATOM      4  C   UNL     1       9.565   0.911  23.580  0.00  0.00    +0.178 C 
ATOM      5  O   UNL     1       9.756  -0.300  24.326  0.00  0.00    -0.346 OA
ENDROOT
BRANCH   1  12
ATOM      6  C   UNL     1       3.994  -5.640  22.973  0.00  0.00    +0.044 C 
ATOM      7  C   UNL     1       5.107  -4.642  23.145  0.00  0.00    -0.045 A 
ATOM      8  C   UNL     1       6.415  -4.902  22.682  0.00  0.00    -0.045 A 
ATOM      9  C   UNL     1       6.744  -6.211  22.010  0.00  0.00    +0.044 C 
ATOM     10  C   UNL     1       7.439  -3.946  22.842  0.00  0.00    +0.031 A 
ATOM     11  C   UNL     1       7.117  -2.741  23.482  0.00  0.00    +0.071 A 
ATOM     12  N   UNL     1       7.835  -1.606  23.793  0.00  0.00    -0.301 N 
ATOM     13  C   UNL     1       7.005  -0.780  24.505  0.00  0.00    +0.202 A 
ATOM     14  N   UNL     1       5.787  -1.258  24.590  0.00  0.00    -0.236 NA
ATOM     15  C   UNL     1       5.840  -2.477  23.967  0.00  0.00    +0.089 A 
ATOM     16  C   UNL     1       4.823  -3.424  23.793  0.00  0.00    +0.033 A 
ENDBRANCH   1  12
BRANCH   2  17
ATOM     17  O   UNL     1      10.719  -1.641  21.573  0.00  0.00    -0.385 OA
ATOM     18  H   UNL     1      11.225  -1.968  22.343  0.00  0.00    +0.210 HD
ENDBRANCH   2  17
BRANCH   3  19
ATOM     19  O   UNL     1       8.958   1.266  21.242  0.00  0.00    -0.386 OA
ATOM     20  H   UNL     1       8.448   1.903  21.777  0.00  0.00    +0.210 HD
ENDBRANCH   3  19
BRANCH   4  21
ATOM     21  C   UNL     1      10.479   2.005  24.112  0.00  0.00    +0.206 C 
BRANCH  21  22
ATOM     22  O   UNL     1      10.372   3.133  23.269  0.00  0.00    -0.284 OA
BRANCH  22  23
ATOM     23  P   UNL     1       9.224   4.193  23.595  0.00  0.00    +0.472 P 
ATOM     24  O   UNL     1       8.679   4.168  24.979  0.00  0.00    -0.228 OA
BRANCH  23  25
ATOM     25  O   UNL     1       8.150   3.969  22.440  0.00  0.00    -0.303 OA
ATOM     26  H   UNL     1       7.346   3.525  22.770  0.00  0.00    +0.222 HD
ENDBRANCH  23  25
BRANCH  23  27
ATOM     27  O   UNL     1       9.900   5.583  23.203  0.00  0.00    -0.303 OA
ATOM     28  H   UNL     1      10.856   5.479  23.054  0.00  0.00    +0.222 HD
ENDBRANCH  23  27
ENDBRANCH  22  23
ENDBRANCH  21  22
ENDBRANCH   4  21
TORSDOF 8
ENDMDL
MODEL 3
REMARK VINA RESULT:      -6.6      2.417      3.680
REMARK  Name = 
REMARK  10 active torsions:
REMARK  status: ('A' for Active; 'I' for Inactive)
REMARK    1  A    between atoms: C_1  and  C_2
REMARK    2  A    between atoms: C_7  and  C_8
REMARK    3  A    between atoms: N_9  and  C_12
REMARK    4  A    between atoms: C_15  and  C_17
REMARK    5  A    between atoms: C_17  and  O_18
REMARK    6  A    between atoms: O_18  and  P_19
REMARK    7  A    between atoms: P_19  and  O_20
REMARK    8  A    between atoms: P_19  and  O_21
REMARK    9  A    between atoms: C_23  and  O_25
REMARK   10  A    between atoms: C_26  and  O_28
REMARK                            x       y       z     vdW  Elec       q    Type
REMARK                         _______ _______ _______ _____ _____    ______ ____
ROOT
ATOM      1  C   UNL     1       6.631  -2.157  22.506  0.00  0.00    +0.252 C 
ATOM      2  C   UNL     1       6.673  -3.555  21.868  0.00  0.00    +0.195 C 
ATOM      3  C   UNL     1       6.584  -4.538  23.039  0.00  0.00    +0.178 C 
ATOM      4  C   UNL     1       6.598  -3.639  24.273  0.00  0.00    +0.178 C 
ATOM      5  O   UNL     1       6.109  -2.360  23.841  0.00  0.00    -0.346 OA
ENDROOT
BRANCH   1  12
ATOM      6  C   UNL     1       9.836   3.696  23.736  0.00  0.00    +0.044 C 
ATOM      7  C   UNL     1       9.207   2.357  23.459  0.00  0.00    -0.045 A 
ATOM      8  C   UNL     1       7.815   2.153  23.576  0.00  0.00    -0.045 A 
ATOM      9  C   UNL     1       6.908   3.279  24.005  0.00  0.00    +0.044 C 
ATOM     10  C   UNL     1       7.245   0.893  23.299  0.00  0.00    +0.031 A 
ATOM     11  C   UNL     1       8.106  -0.145  22.916  0.00  0.00    +0.071 A 
ATOM     12  N   UNL     1       7.911  -1.464  22.565  0.00  0.00    -0.301 N 
ATOM     13  C   UNL     1       9.146  -2.022  22.368  0.00  0.00    +0.202 A 
ATOM     14  N   UNL     1      10.109  -1.138  22.473  0.00  0.00    -0.236 NA
ATOM     15  C   UNL     1       9.483   0.031  22.819  0.00  0.00    +0.089 A 
ATOM     16  C   UNL     1      10.041   1.287  23.082  0.00  0.00    +0.033 A 
ENDBRANCH   1  12
BRANCH   2  17
ATOM     17  O   UNL     1       5.536  -3.734  20.997  0.00  0.00    -0.385 OA
ATOM     18  H   UNL     1       4.719  -3.628  21.523  0.00  0.00    +0.210 HD
ENDBRANCH   2  17
BRANCH   3  19
ATOM     19  O   UNL     1       7.692  -5.433  23.030  0.00  0.00    -0.386 OA
ATOM     20  H   UNL     1       8.369  -5.065  22.432  0.00  0.00    +0.210 HD
ENDBRANCH   3  19
BRANCH   4  21
ATOM     21  C   UNL     1       5.748  -4.165  25.420  0.00  0.00    +0.206 C 
BRANCH  21  22
ATOM     22  O   UNL     1       6.345  -5.344  25.921  0.00  0.00    -0.284 OA
BRANCH  22  23
ATOM     23  P   UNL     1       7.687  -5.190  26.770  0.00  0.00    +0.472 P 
ATOM     24  O   UNL     1       8.042  -3.810  27.195  0.00  0.00    -0.228 OA
BRANCH  23  25
ATOM     25  O   UNL     1       8.789  -5.933  25.892  0.00  0.00    -0.303 OA
ATOM     26  H   UNL     1       9.412  -5.305  25.479  0.00  0.00    +0.222 HD
ENDBRANCH  23  25
BRANCH  23  27
ATOM     27  O   UNL     1       7.454  -6.191  27.990  0.00  0.00    -0.303 OA
ATOM     28  H   UNL     1       7.194  -5.709  28.795  0.00  0.00    +0.222 HD
ENDBRANCH  23  27
ENDBRANCH  22  23
ENDBRANCH  21  22
ENDBRANCH   4  21
TORSDOF 8
ENDMDL
MODEL 4
REMARK VINA RESULT:      -6.4      2.207      2.829
REMARK  Name = 
REMARK  10 active torsions:
REMARK  status: ('A' for Active; 'I' for Inactive)
REMARK    1  A    between atoms: C_1  and  C_2
REMARK    2  A    between atoms: C_7  and  C_8
REMARK    3  A    between atoms: N_9  and  C_12
REMARK    4  A    between atoms: C_15  and  C_17
REMARK    5  A    between atoms: C_17  and  O_18
REMARK    6  A    between atoms: O_18  and  P_19
REMARK    7  A    between atoms: P_19  and  O_20
REMARK    8  A    between atoms: P_19  and  O_21
REMARK    9  A    between atoms: C_23  and  O_25
REMARK   10  A    between atoms: C_26  and  O_28
REMARK                            x       y       z     vdW  Elec       q    Type
REMARK                         _______ _______ _______ _____ _____    ______ ____
ROOT
ATOM      1  C   UNL     1       7.592  -3.480  24.484  0.00  0.00    +0.252 C 
ATOM      2  C   UNL     1       8.369  -4.788  24.700  0.00  0.00    +0.195 C 
ATOM      3  C   UNL     1       7.572  -5.564  25.753  0.00  0.00    +0.178 C 
ATOM      4  C   UNL     1       6.449  -4.604  26.141  0.00  0.00    +0.178 C 
ATOM      5  O   UNL     1       6.271  -3.724  25.021  0.00  0.00    -0.346 OA
ENDROOT
BRANCH   1  12
ATOM      6  C   UNL     1      10.319   2.658  23.513  0.00  0.00    +0.044 C 
ATOM      7  C   UNL     1       9.714   1.315  23.818  0.00  0.00    -0.045 A 
ATOM      8  C   UNL     1       9.213   0.478  22.798  0.00  0.00    -0.045 A 
ATOM      9  C   UNL     1       9.253   0.918  21.356  0.00  0.00    +0.044 C 
ATOM     10  C   UNL     1       8.662  -0.784  23.106  0.00  0.00    +0.031 A 
ATOM     11  C   UNL     1       8.621  -1.169  24.453  0.00  0.00    +0.071 A 
ATOM     12  N   UNL     1       8.180  -2.300  25.107  0.00  0.00    -0.301 N 
ATOM     13  C   UNL     1       8.316  -2.074  26.451  0.00  0.00    +0.202 A 
ATOM     14  N   UNL     1       8.897  -0.926  26.702  0.00  0.00    -0.236 NA
ATOM     15  C   UNL     1       9.087  -0.348  25.474  0.00  0.00    +0.089 A 
ATOM     16  C   UNL     1       9.645   0.897  25.162  0.00  0.00    +0.033 A 
ENDBRANCH   1  12
BRANCH   2  17
ATOM     17  O   UNL     1       8.413  -5.544  23.471  0.00  0.00    -0.385 OA
ATOM     18  H   UNL     1       8.761  -4.968  22.762  0.00  0.00    +0.210 HD
ENDBRANCH   2  17
BRANCH   3  19
ATOM     19  O   UNL     1       8.394  -5.887  26.869  0.00  0.00    -0.386 OA
ATOM     20  H   UNL     1       8.210  -6.812  27.119  0.00  0.00    +0.210 HD
ENDBRANCH   3  19
BRANCH   4  21
ATOM     21  C   UNL     1       5.138  -5.302  26.474  0.00  0.00    +0.206 C 
BRANCH  21  22
ATOM     22  O   UNL     1       5.429  -6.515  27.137  0.00  0.00    -0.284 OA
BRANCH  22  23
ATOM     23  P   UNL     1       5.371  -6.518  28.732  0.00  0.00    +0.472 P 
ATOM     24  O   UNL     1       5.182  -5.195  29.386  0.00  0.00    -0.228 OA
BRANCH  23  25
ATOM     25  O   UNL     1       6.685  -7.307  29.166  0.00  0.00    -0.303 OA
ATOM     26  H   UNL     1       6.477  -8.105  29.687  0.00  0.00    +0.222 HD
ENDBRANCH  23  25
BRANCH  23  27
ATOM     27  O   UNL     1       4.201  -7.555  29.045  0.00  0.00    -0.303 OA
ATOM     28  H   UNL     1       4.556  -8.446  29.208  0.00  0.00    +0.222 HD
ENDBRANCH  23  27
ENDBRANCH  22  23
ENDBRANCH  21  22
ENDBRANCH   4  21
TORSDOF 8
ENDMDL
MODEL 5
REMARK VINA RESULT:      -6.4      1.798      2.785
REMARK  Name = 
REMARK  10 active torsions:
REMARK  status: ('A' for Active; 'I' for Inactive)
REMARK    1  A    between atoms: C_1  and  C_2
REMARK    2  A    between atoms: C_7  and  C_8
REMARK    3  A    between atoms: N_9  and  C_12
REMARK    4  A    between atoms: C_15  and  C_17
REMARK    5  A    between atoms: C_17  and  O_18
REMARK    6  A    between atoms: O_18  and  P_19
REMARK    7  A    between atoms: P_19  and  O_20
REMARK    8  A    between atoms: P_19  and  O_21
REMARK    9  A    between atoms: C_23  and  O_25
REMARK   10  A    between atoms: C_26  and  O_28
REMARK                            x       y       z     vdW  Elec       q    Type
REMARK                         _______ _______ _______ _____ _____    ______ ____
ROOT
ATOM      1  C   UNL     1       9.277  -2.000  24.292  0.00  0.00    +0.252 C 
ATOM      2  C   UNL     1       8.107  -1.990  25.288  0.00  0.00    +0.195 C 
ATOM      3  C   UNL     1       7.206  -3.155  24.865  0.00  0.00    +0.178 C 
ATOM      4  C   UNL     1       7.869  -3.689  23.597  0.00  0.00    +0.178 C 
ATOM      5  O   UNL     1       9.251  -3.312  23.680  0.00  0.00    -0.346 OA
ENDROOT
BRANCH   1  12
ATOM      6  C   UNL     1       7.967   4.510  22.894  0.00  0.00    +0.044 C 
ATOM      7  C   UNL     1       8.291   3.058  23.120  0.00  0.00    -0.045 A 
ATOM      8  C   UNL     1       8.216   2.471  24.401  0.00  0.00    -0.045 A 
ATOM      9  C   UNL     1       7.823   3.296  25.601  0.00  0.00    +0.044 C 
ATOM     10  C   UNL     1       8.512   1.104  24.587  0.00  0.00    +0.031 A 
ATOM     11  C   UNL     1       8.889   0.358  23.463  0.00  0.00    +0.071 A 
ATOM     12  N   UNL     1       9.227  -0.965  23.267  0.00  0.00    -0.301 N 
ATOM     13  C   UNL     1       9.591  -1.104  21.954  0.00  0.00    +0.202 A 
ATOM     14  N   UNL     1       9.420   0.005  21.274  0.00  0.00    -0.236 NA
ATOM     15  C   UNL     1       8.992   0.924  22.196  0.00  0.00    +0.089 A 
ATOM     16  C   UNL     1       8.684   2.278  22.015  0.00  0.00    +0.033 A 
ENDBRANCH   1  12
BRANCH   2  17
ATOM     17  O   UNL     1       8.597  -2.217  26.627  0.00  0.00    -0.385 OA
ATOM     18  H   UNL     1       9.572  -2.274  26.597  0.00  0.00    +0.210 HD
ENDBRANCH   2  17
BRANCH   3  19
ATOM     19  O   UNL     1       5.881  -2.699  24.612  0.00  0.00    -0.386 OA
ATOM     20  H   UNL     1       5.883  -2.230  23.757  0.00  0.00    +0.210 HD
ENDBRANCH   3  19
BRANCH   4  21
ATOM     21  C   UNL     1       7.745  -5.196  23.433  0.00  0.00    +0.206 C 
BRANCH  21  22
ATOM     22  O   UNL     1       6.523  -5.614  24.006  0.00  0.00    -0.284 OA
BRANCH  22  23
ATOM     23  P   UNL     1       5.309  -5.920  23.017  0.00  0.00    +0.472 P 
ATOM     24  O   UNL     1       4.387  -4.788  22.736  0.00  0.00    -0.228 OA
BRANCH  23  25
ATOM     25  O   UNL     1       4.620  -7.216  23.638  0.00  0.00    -0.303 OA
ATOM     26  H   UNL     1       3.699  -7.323  23.332  0.00  0.00    +0.222 HD
ENDBRANCH  23  25
BRANCH  23  27
ATOM     27  O   UNL     1       6.041  -6.482  21.717  0.00  0.00    -0.303 OA
ATOM     28  H   UNL     1       7.008  -6.469  21.825  0.00  0.00    +0.222 HD
ENDBRANCH  23  27
ENDBRANCH  22  23
ENDBRANCH  21  22
ENDBRANCH   4  21
TORSDOF 8
ENDMDL
MODEL 6
REMARK VINA RESULT:      -6.3      4.302      7.478
REMARK  Name = 
REMARK  10 active torsions:
REMARK  status: ('A' for Active; 'I' for Inactive)
REMARK    1  A    between atoms: C_1  and  C_2
REMARK    2  A    between atoms: C_7  and  C_8
REMARK    3  A    between atoms: N_9  and  C_12
REMARK    4  A    between atoms: C_15  and  C_17
REMARK    5  A    between atoms: C_17  and  O_18
REMARK    6  A    between atoms: O_18  and  P_19
REMARK    7  A    between atoms: P_19  and  O_20
REMARK    8  A    between atoms: P_19  and  O_21
REMARK    9  A    between atoms: C_23  and  O_25
REMARK   10  A    between atoms: C_26  and  O_28
REMARK                            x       y       z     vdW  Elec       q    Type
REMARK                         _______ _______ _______ _____ _____    ______ ____
ROOT
ATOM      1  C   UNL     1       9.172  -2.251  23.363  0.00  0.00    +0.252 C 
ATOM      2  C   UNL     1       9.635  -1.472  22.122  0.00  0.00    +0.195 C 
ATOM      3  C   UNL     1       9.403   0.003  22.459  0.00  0.00    +0.178 C 
ATOM      4  C   UNL     1       8.730  -0.037  23.830  0.00  0.00    +0.178 C 
ATOM      5  O   UNL     1       9.126  -1.278  24.433  0.00  0.00    -0.346 OA
ENDROOT
BRANCH   1  12
ATOM      6  C   UNL     1       4.678  -6.478  26.189  0.00  0.00    +0.044 C 
ATOM      7  C   UNL     1       5.612  -5.522  25.498  0.00  0.00    -0.045 A 
ATOM      8  C   UNL     1       6.829  -5.118  26.088  0.00  0.00    -0.045 A 
ATOM      9  C   UNL     1       7.227  -5.625  27.451  0.00  0.00    +0.044 C 
ATOM     10  C   UNL     1       7.696  -4.231  25.416  0.00  0.00    +0.031 A 
ATOM     11  C   UNL     1       7.303  -3.759  24.156  0.00  0.00    +0.071 A 
ATOM     12  N   UNL     1       7.883  -2.917  23.231  0.00  0.00    -0.301 N 
ATOM     13  C   UNL     1       6.986  -2.754  22.208  0.00  0.00    +0.202 A 
ATOM     14  N   UNL     1       5.919  -3.501  22.363  0.00  0.00    -0.236 NA
ATOM     15  C   UNL     1       6.096  -4.126  23.570  0.00  0.00    +0.089 A 
ATOM     16  C   UNL     1       5.246  -5.019  24.235  0.00  0.00    +0.033 A 
ENDBRANCH   1  12
BRANCH   2  17
ATOM     17  O   UNL     1      11.042  -1.702  21.892  0.00  0.00    -0.385 OA
ATOM     18  H   UNL     1      11.524  -0.865  22.043  0.00  0.00    +0.210 HD
ENDBRANCH   2  17
BRANCH   3  19
ATOM     19  O   UNL     1       8.568   0.617  21.483  0.00  0.00    -0.386 OA
ATOM     20  H   UNL     1       9.108   1.263  20.990  0.00  0.00    +0.210 HD
ENDBRANCH   3  19
BRANCH   4  21
ATOM     21  C   UNL     1       9.111   1.129  24.730  0.00  0.00    +0.206 C 
BRANCH  21  22
ATOM     22  O   UNL     1       9.897   2.037  23.986  0.00  0.00    -0.284 OA
BRANCH  22  23
ATOM     23  P   UNL     1       9.339   3.520  23.799  0.00  0.00    +0.472 P 
ATOM     24  O   UNL     1       8.615   4.102  24.962  0.00  0.00    -0.228 OA
BRANCH  23  25
ATOM     25  O   UNL     1       8.501   3.451  22.446  0.00  0.00    -0.303 OA
ATOM     26  H   UNL     1       8.891   4.009  21.746  0.00  0.00    +0.222 HD
ENDBRANCH  23  25
BRANCH  23  27
ATOM     27  O   UNL     1      10.640   4.342  23.384  0.00  0.00    -0.303 OA
ATOM     28  H   UNL     1      10.611   4.593  22.444  0.00  0.00    +0.222 HD
ENDBRANCH  23  27
ENDBRANCH  22  23
ENDBRANCH  21  22
ENDBRANCH   4  21
TORSDOF 8
ENDMDL
MODEL 7
REMARK VINA RESULT:      -6.3      5.516      8.471
REMARK  Name = 
REMARK  10 active torsions:
REMARK  status: ('A' for Active; 'I' for Inactive)
REMARK    1  A    between atoms: C_1  and  C_2
REMARK    2  A    between atoms: C_7  and  C_8
REMARK    3  A    between atoms: N_9  and  C_12
REMARK    4  A    between atoms: C_15  and  C_17
REMARK    5  A    between atoms: C_17  and  O_18
REMARK    6  A    between atoms: O_18  and  P_19
REMARK    7  A    between atoms: P_19  and  O_20
REMARK    8  A    between atoms: P_19  and  O_21
REMARK    9  A    between atoms: C_23  and  O_25
REMARK   10  A    between atoms: C_26  and  O_28
REMARK                            x       y       z     vdW  Elec       q    Type
REMARK                         _______ _______ _______ _____ _____    ______ ____
ROOT
ATOM      1  C   UNL     1       8.541   1.098  22.550  0.00  0.00    +0.252 C 
ATOM      2  C   UNL     1       7.584   1.567  23.658  0.00  0.00    +0.195 C 
ATOM      3  C   UNL     1       8.349   2.652  24.422  0.00  0.00    +0.178 C 
ATOM      4  C   UNL     1       9.727   2.660  23.763  0.00  0.00    +0.178 C 
ATOM      5  O   UNL     1       9.540   2.140  22.439  0.00  0.00    -0.346 OA
ENDROOT
BRANCH   1  12
ATOM      6  C   UNL     1       8.684  -4.524  26.348  0.00  0.00    +0.044 C 
ATOM      7  C   UNL     1       8.712  -3.317  25.449  0.00  0.00    -0.045 A 
ATOM      8  C   UNL     1       7.796  -2.255  25.605  0.00  0.00    -0.045 A 
ATOM      9  C   UNL     1       6.737  -2.306  26.678  0.00  0.00    +0.044 C 
ATOM     10  C   UNL     1       7.849  -1.127  24.759  0.00  0.00    +0.031 A 
ATOM     11  C   UNL     1       8.831  -1.104  23.759  0.00  0.00    +0.071 A 
ATOM     12  N   UNL     1       9.180  -0.190  22.788  0.00  0.00    -0.301 N 
ATOM     13  C   UNL     1      10.176  -0.753  22.035  0.00  0.00    +0.202 A 
ATOM     14  N   UNL     1      10.555  -1.916  22.509  0.00  0.00    -0.236 NA
ATOM     15  C   UNL     1       9.726  -2.152  23.574  0.00  0.00    +0.089 A 
ATOM     16  C   UNL     1       9.678  -3.263  24.426  0.00  0.00    +0.033 A 
ENDBRANCH   1  12
BRANCH   2  17
ATOM     17  O   UNL     1       6.393   2.135  23.072  0.00  0.00    -0.385 OA
ATOM     18  H   UNL     1       5.793   1.407  22.816  0.00  0.00    +0.210 HD
ENDBRANCH   2  17
BRANCH   3  19
ATOM     19  O   UNL     1       8.431   2.330  25.806  0.00  0.00    -0.386 OA
ATOM     20  H   UNL     1       8.753   3.120  26.279  0.00  0.00    +0.210 HD
ENDBRANCH   3  19
BRANCH   4  21
ATOM     21  C   UNL     1      10.365   4.041  23.700  0.00  0.00    +0.206 C 
BRANCH  21  22
ATOM     22  O   UNL     1      11.726   3.893  23.351  0.00  0.00    -0.284 OA
BRANCH  22  23
ATOM     23  P   UNL     1      12.596   5.222  23.193  0.00  0.00    +0.472 P 
ATOM     24  O   UNL     1      12.255   6.345  24.107  0.00  0.00    -0.228 OA
BRANCH  23  25
ATOM     25  O   UNL     1      12.507   5.562  21.639  0.00  0.00    -0.303 OA
ATOM     26  H   UNL     1      13.388   5.705  21.245  0.00  0.00    +0.222 HD
ENDBRANCH  23  25
BRANCH  23  27
ATOM     27  O   UNL     1      14.090   4.692  23.367  0.00  0.00    -0.303 OA
ATOM     28  H   UNL     1      14.735   5.345  23.040  0.00  0.00    +0.222 HD
ENDBRANCH  23  27
ENDBRANCH  22  23
ENDBRANCH  21  22
ENDBRANCH   4  21
TORSDOF 8
ENDMDL
MODEL 8
REMARK VINA RESULT:      -6.2      2.663      4.463
REMARK  Name = 
REMARK  10 active torsions:
REMARK  status: ('A' for Active; 'I' for Inactive)
REMARK    1  A    between atoms: C_1  and  C_2
REMARK    2  A    between atoms: C_7  and  C_8
REMARK    3  A    between atoms: N_9  and  C_12
REMARK    4  A    between atoms: C_15  and  C_17
REMARK    5  A    between atoms: C_17  and  O_18
REMARK    6  A    between atoms: O_18  and  P_19
REMARK    7  A    between atoms: P_19  and  O_20
REMARK    8  A    between atoms: P_19  and  O_21
REMARK    9  A    between atoms: C_23  and  O_25
REMARK   10  A    between atoms: C_26  and  O_28
REMARK                            x       y       z     vdW  Elec       q    Type
REMARK                         _______ _______ _______ _____ _____    ______ ____
ROOT
ATOM      1  C   UNL     1       7.551   0.510  25.198  0.00  0.00    +0.252 C 
ATOM      2  C   UNL     1       6.562  -0.180  24.245  0.00  0.00    +0.195 C 
ATOM      3  C   UNL     1       6.699  -1.678  24.535  0.00  0.00    +0.178 C 
ATOM      4  C   UNL     1       7.827  -1.750  25.562  0.00  0.00    +0.178 C 
ATOM      5  O   UNL     1       7.853  -0.473  26.216  0.00  0.00    -0.346 OA
ENDROOT
BRANCH   1  12
ATOM      6  C   UNL     1      11.268   5.909  23.444  0.00  0.00    +0.044 C 
ATOM      7  C   UNL     1      10.514   4.660  23.811  0.00  0.00    -0.045 A 
ATOM      8  C   UNL     1       9.279   4.710  24.492  0.00  0.00    -0.045 A 
ATOM      9  C   UNL     1       8.679   6.034  24.893  0.00  0.00    +0.044 C 
ATOM     10  C   UNL     1       8.584   3.526  24.813  0.00  0.00    +0.031 A 
ATOM     11  C   UNL     1       9.165   2.305  24.444  0.00  0.00    +0.071 A 
ATOM     12  N   UNL     1       8.779   0.988  24.577  0.00  0.00    -0.301 N 
ATOM     13  C   UNL     1       9.801   0.212  24.097  0.00  0.00    +0.202 A 
ATOM     14  N   UNL     1      10.768   0.933  23.582  0.00  0.00    -0.236 NA
ATOM     15  C   UNL     1      10.393   2.234  23.794  0.00  0.00    +0.089 A 
ATOM     16  C   UNL     1      11.072   3.413  23.465  0.00  0.00    +0.033 A 
ENDBRANCH   1  12
BRANCH   2  17
ATOM     17  O   UNL     1       5.215   0.249  24.537  0.00  0.00    -0.385 OA
ATOM     18  H   UNL     1       5.018   1.045  24.005  0.00  0.00    +0.210 HD
ENDBRANCH   2  17
BRANCH   3  19
ATOM     19  O   UNL     1       7.024  -2.393  23.347  0.00  0.00    -0.386 OA
ATOM     20  H   UNL     1       7.969  -2.628  23.389  0.00  0.00    +0.210 HD
ENDBRANCH   3  19
BRANCH   4  21
ATOM     21  C   UNL     1       7.649  -2.861  26.586  0.00  0.00    +0.206 C 
BRANCH  21  22
ATOM     22  O   UNL     1       8.802  -3.678  26.572  0.00  0.00    -0.284 OA
BRANCH  22  23
ATOM     23  P   UNL     1       8.709  -5.075  25.806  0.00  0.00    +0.472 P 
ATOM     24  O   UNL     1       8.061  -5.050  24.468  0.00  0.00    -0.228 OA
BRANCH  23  25
ATOM     25  O   UNL     1       8.035  -6.054  26.867  0.00  0.00    -0.303 OA
ATOM     26  H   UNL     1       8.350  -5.882  27.775  0.00  0.00    +0.222 HD
ENDBRANCH  23  25
BRANCH  23  27
ATOM     27  O   UNL     1      10.226  -5.563  25.769  0.00  0.00    -0.303 OA
ATOM     28  H   UNL     1      10.654  -5.450  26.636  0.00  0.00    +0.222 HD
ENDBRANCH  23  27
ENDBRANCH  22  23
ENDBRANCH  21  22
ENDBRANCH   4  21
TORSDOF 8
ENDMDL
MODEL 9
REMARK VINA RESULT:      -6.1      4.929      7.663
REMARK  Name = 
REMARK  10 active torsions:
REMARK  status: ('A' for Active; 'I' for Inactive)
REMARK    1  A    between atoms: C_1  and  C_2
REMARK    2  A    between atoms: C_7  and  C_8
REMARK    3  A    between atoms: N_9  and  C_12
REMARK    4  A    between atoms: C_15  and  C_17
REMARK    5  A    between atoms: C_17  and  O_18
REMARK    6  A    between atoms: O_18  and  P_19
REMARK    7  A    between atoms: P_19  and  O_20
REMARK    8  A    between atoms: P_19  and  O_21
REMARK    9  A    between atoms: C_23  and  O_25
REMARK   10  A    between atoms: C_26  and  O_28
REMARK                            x       y       z     vdW  Elec       q    Type
REMARK                         _______ _______ _______ _____ _____    ______ ____
ROOT
ATOM      1  C   UNL     1       9.432  -0.117  24.400  0.00  0.00    +0.252 C 
ATOM      2  C   UNL     1      10.545   0.604  23.621  0.00  0.00    +0.195 C 
ATOM      3  C   UNL     1       9.927   1.928  23.163  0.00  0.00    +0.178 C 
ATOM      4  C   UNL     1       8.474   1.832  23.624  0.00  0.00    +0.178 C 
ATOM      5  O   UNL     1       8.463   0.909  24.723  0.00  0.00    -0.346 OA
ENDROOT
BRANCH   1  12
ATOM      6  C   UNL     1       5.585  -5.685  24.887  0.00  0.00    +0.044 C 
ATOM      7  C   UNL     1       6.430  -4.456  24.689  0.00  0.00    -0.045 A 
ATOM      8  C   UNL     1       6.799  -3.627  25.769  0.00  0.00    -0.045 A 
ATOM      9  C   UNL     1       6.337  -3.942  27.170  0.00  0.00    +0.044 C 
ATOM     10  C   UNL     1       7.603  -2.486  25.561  0.00  0.00    +0.031 A 
ATOM     11  C   UNL     1       8.010  -2.203  24.251  0.00  0.00    +0.071 A 
ATOM     12  N   UNL     1       8.788  -1.213  23.688  0.00  0.00    -0.301 N 
ATOM     13  C   UNL     1       8.769  -1.400  22.331  0.00  0.00    +0.202 A 
ATOM     14  N   UNL     1       8.119  -2.487  21.991  0.00  0.00    -0.236 NA
ATOM     15  C   UNL     1       7.636  -2.994  23.169  0.00  0.00    +0.089 A 
ATOM     16  C   UNL     1       6.849  -4.133  23.383  0.00  0.00    +0.033 A 
ENDBRANCH   1  12
BRANCH   2  17
ATOM     17  O   UNL     1      11.665   0.867  24.493  0.00  0.00    -0.385 OA
ATOM     18  H   UNL     1      12.457   0.427  24.126  0.00  0.00    +0.210 HD
ENDBRANCH   2  17
BRANCH   3  19
ATOM     19  O   UNL     1      10.021   2.064  21.749  0.00  0.00    -0.386 OA
ATOM     20  H   UNL     1       9.244   2.568  21.444  0.00  0.00    +0.210 HD
ENDBRANCH   3  19
BRANCH   4  21
ATOM     21  C   UNL     1       7.881   3.166  24.053  0.00  0.00    +0.206 C 
BRANCH  21  22
ATOM     22  O   UNL     1       8.146   4.123  23.047  0.00  0.00    -0.284 OA
BRANCH  22  23
ATOM     23  P   UNL     1       6.940   5.057  22.579  0.00  0.00    +0.472 P 
ATOM     24  O   UNL     1       6.276   5.856  23.643  0.00  0.00    -0.228 OA
BRANCH  23  25
ATOM     25  O   UNL     1       5.981   4.076  21.770  0.00  0.00    -0.303 OA
ATOM     26  H   UNL     1       5.284   3.696  22.338  0.00  0.00    +0.222 HD
ENDBRANCH  23  25
BRANCH  23  27
ATOM     27  O   UNL     1       7.603   5.948  21.434  0.00  0.00    -0.303 OA
ATOM     28  H   UNL     1       7.208   6.838  21.409  0.00  0.00    +0.222 HD
ENDBRANCH  23  27
ENDBRANCH  22  23
ENDBRANCH  21  22
ENDBRANCH   4  21
TORSDOF 8
ENDMDL
