MODEL 1
REMARK VINA RESULT:      -6.8      0.000      0.000
REMARK  Name = 
REMARK  4 active torsions:
REMARK  status: ('A' for Active; 'I' for Inactive)
REMARK    1  A    between atoms: N_9  and  C_12
REMARK    2  A    between atoms: C_15  and  O_17
REMARK    3  A    between atoms: C_18  and  C_20
REMARK    4  A    between atoms: C_20  and  O_21
REMARK                            x       y       z     vdW  Elec       q    Type
REMARK                         _______ _______ _______ _____ _____    ______ ____
ROOT
ATOM      1  N   UNL     1       8.774   1.155  20.954  0.00  0.00    -0.329 N 
ATOM      2  H   UNL     1       7.790   1.215  20.729  0.00  0.00    +0.145 HD
ATOM      3  H   UNL     1       9.180   2.080  21.078  0.00  0.00    +0.145 HD
ATOM      4  C   UNL     1       9.058   0.369  22.023  0.00  0.00    +0.195 A 
ATOM      5  N   UNL     1       8.354  -0.808  22.021  0.00  0.00    -0.312 N 
ATOM      6  H   UNL     1       7.822  -1.065  21.195  0.00  0.00    +0.170 HD
ATOM      7  C   UNL     1       8.615  -1.657  23.025  0.00  0.00    +0.147 A 
ATOM      8  N   UNL     1       8.129  -2.902  23.268  0.00  0.00    -0.309 N 
ATOM      9  C   UNL     1       8.750  -3.325  24.424  0.00  0.00    +0.202 A 
ATOM     10  N   UNL     1       9.577  -2.420  24.909  0.00  0.00    -0.229 NA
ATOM     11  C   UNL     1       9.501  -1.363  24.029  0.00  0.00    +0.172 A 
ATOM     12  C   UNL     1      10.206  -0.072  24.018  0.00  0.00    +0.302 A 
ATOM     13  O   UNL     1      10.990   0.262  24.902  0.00  0.00    -0.263 OA
ATOM     14  N   UNL     1       9.916   0.757  22.921  0.00  0.00    -0.176 NA
ENDROOT
BRANCH   8  15
ATOM     15  C   UNL     1       7.136  -3.665  22.538  0.00  0.00    +0.118 C 
ATOM     16  C   UNL     1       5.757  -3.751  23.164  0.00  0.00    -0.046 C 
ATOM     17  C   UNL     1       5.186  -2.850  23.980  0.00  0.00    +0.010 C 
ATOM     18  C   UNL     1       5.114  -5.075  22.751  0.00  0.00    +0.070 C 
ATOM     19  C   UNL     1       6.198  -5.760  21.890  0.00  0.00    +0.126 C 
ATOM     20  C   UNL     1       7.515  -5.135  22.328  0.00  0.00    +0.061 C 
BRANCH  19  21
ATOM     21  O   UNL     1       5.979  -5.445  20.512  0.00  0.00    -0.391 OA
ATOM     22  H   UNL     1       5.082  -5.073  20.434  0.00  0.00    +0.210 HD
ENDBRANCH  19  21
BRANCH  18  23
ATOM     23  C   UNL     1       4.706  -5.945  23.947  0.00  0.00    +0.166 C 
BRANCH  23  24
ATOM     24  O   UNL     1       4.659  -7.327  23.587  0.00  0.00    -0.394 OA
ATOM     25  H   UNL     1       5.093  -7.807  24.316  0.00  0.00    +0.209 HD
ENDBRANCH  23  24
ENDBRANCH  18  23
ENDBRANCH   8  15
TORSDOF 4
ENDMDL
MODEL 2
REMARK VINA RESULT:      -6.6      2.385      2.942
REMARK  Name = 
REMARK  4 active torsions:
REMARK  status: ('A' for Active; 'I' for Inactive)
REMARK    1  A    between atoms: N_9  and  C_12
REMARK    2  A    between atoms: C_15  and  O_17
REMARK    3  A    between atoms: C_18  and  C_20
REMARK    4  A    between atoms: C_20  and  O_21
REMARK                            x       y       z     vdW  Elec       q    Type
REMARK                         _______ _______ _______ _____ _____    ______ ____
ROOT
ATOM      1  N   UNL     1       5.664   1.914  22.595  0.00  0.00    -0.329 N 
ATOM      2  H   UNL     1       5.132   1.764  23.443  0.00  0.00    +0.145 HD
ATOM      3  H   UNL     1       5.763   2.907  22.395  0.00  0.00    +0.145 HD
ATOM      4  C   UNL     1       6.878   1.307  22.581  0.00  0.00    +0.195 A 
ATOM      5  N   UNL     1       6.839   0.024  23.064  0.00  0.00    -0.312 N 
ATOM      6  H   UNL     1       5.938  -0.411  23.240  0.00  0.00    +0.170 HD
ATOM      7  C   UNL     1       7.994  -0.654  23.039  0.00  0.00    +0.147 A 
ATOM      8  N   UNL     1       8.264  -1.937  23.393  0.00  0.00    -0.309 N 
ATOM      9  C   UNL     1       9.609  -2.117  23.148  0.00  0.00    +0.202 A 
ATOM     10  N   UNL     1      10.182  -1.028  22.675  0.00  0.00    -0.229 NA
ATOM     11  C   UNL     1       9.168  -0.098  22.599  0.00  0.00    +0.172 A 
ATOM     12  C   UNL     1       9.177   1.295  22.128  0.00  0.00    +0.302 A 
ATOM     13  O   UNL     1      10.200   1.859  21.748  0.00  0.00    -0.263 OA
ATOM     14  N   UNL     1       7.928   1.939  22.145  0.00  0.00    -0.176 NA
ENDROOT
BRANCH   8  15
ATOM     15  C   UNL     1       7.387  -2.944  23.957  0.00  0.00    +0.118 C 
ATOM     16  C   UNL     1       7.404  -3.084  25.467  0.00  0.00    -0.046 C 
ATOM     17  C   UNL     1       7.694  -2.125  26.362  0.00  0.00    +0.010 C 
ATOM     18  C   UNL     1       7.076  -4.534  25.828  0.00  0.00    +0.070 C 
ATOM     19  C   UNL     1       6.904  -5.226  24.458  0.00  0.00    +0.126 C 
ATOM     20  C   UNL     1       7.684  -4.367  23.473  0.00  0.00    +0.061 C 
BRANCH  19  21
ATOM     21  O   UNL     1       5.522  -5.206  24.087  0.00  0.00    -0.391 OA
ATOM     22  H   UNL     1       5.342  -6.019  23.582  0.00  0.00    +0.210 HD
ENDBRANCH  19  21
BRANCH  18  23
ATOM     23  C   UNL     1       8.166  -5.206  26.671  0.00  0.00    +0.166 C 
BRANCH  23  24
ATOM     24  O   UNL     1       7.599  -5.948  27.752  0.00  0.00    -0.394 OA
ATOM     25  H   UNL     1       7.425  -6.840  27.401  0.00  0.00    +0.209 HD
ENDBRANCH  23  24
ENDBRANCH  18  23
ENDBRANCH   8  15
TORSDOF 4
ENDMDL
MODEL 3
REMARK VINA RESULT:      -6.4      3.463      6.346
REMARK  Name = 
REMARK  4 active torsions:
REMARK  status: ('A' for Active; 'I' for Inactive)
REMARK    1  A    between atoms: N_9  and  C_12
REMARK    2  A    between atoms: C_15  and  O_17
REMARK    3  A    between atoms: C_18  and  C_20
REMARK    4  A    between atoms: C_20  and  O_21
REMARK                            x       y       z     vdW  Elec       q    Type
REMARK                         _______ _______ _______ _____ _____    ______ ____
ROOT
ATOM      1  N   UNL     1       9.845  -5.987  25.522  0.00  0.00    -0.329 N 
ATOM      2  H   UNL     1      10.782  -5.636  25.367  0.00  0.00    +0.145 HD
ATOM      3  H   UNL     1       9.842  -6.726  26.220  0.00  0.00    +0.145 HD
ATOM      4  C   UNL     1       8.935  -5.032  25.841  0.00  0.00    +0.195 A 
ATOM      5  N   UNL     1       9.049  -3.906  25.067  0.00  0.00    -0.312 N 
ATOM      6  H   UNL     1       9.662  -3.922  24.257  0.00  0.00    +0.170 HD
ATOM      7  C   UNL     1       8.153  -2.936  25.295  0.00  0.00    +0.147 A 
ATOM      8  N   UNL     1       7.975  -1.743  24.670  0.00  0.00    -0.309 N 
ATOM      9  C   UNL     1       6.899  -1.151  25.296  0.00  0.00    +0.202 A 
ATOM     10  N   UNL     1       6.411  -1.897  26.268  0.00  0.00    -0.229 NA
ATOM     11  C   UNL     1       7.196  -3.030  26.273  0.00  0.00    +0.172 A 
ATOM     12  C   UNL     1       7.132  -4.238  27.110  0.00  0.00    +0.302 A 
ATOM     13  O   UNL     1       6.317  -4.371  28.019  0.00  0.00    -0.263 OA
ATOM     14  N   UNL     1       8.075  -5.232  26.796  0.00  0.00    -0.176 NA
ENDROOT
BRANCH   8  15
ATOM     15  C   UNL     1       8.741  -1.138  23.599  0.00  0.00    +0.118 C 
ATOM     16  C   UNL     1       9.719  -0.050  24.000  0.00  0.00    -0.046 C 
ATOM     17  C   UNL     1      10.340   0.077  25.184  0.00  0.00    +0.010 C 
ATOM     18  C   UNL     1       9.863   0.932  22.837  0.00  0.00    +0.070 C 
ATOM     19  C   UNL     1       8.898   0.379  21.765  0.00  0.00    +0.126 C 
ATOM     20  C   UNL     1       7.881  -0.455  22.531  0.00  0.00    +0.061 C 
BRANCH  19  21
ATOM     21  O   UNL     1       9.618  -0.481  20.877  0.00  0.00    -0.391 OA
ATOM     22  H   UNL     1       9.278  -1.385  21.003  0.00  0.00    +0.210 HD
ENDBRANCH  19  21
BRANCH  18  23
ATOM     23  C   UNL     1       9.516   2.375  23.221  0.00  0.00    +0.166 C 
BRANCH  23  24
ATOM     24  O   UNL     1      10.541   3.280  22.806  0.00  0.00    -0.394 OA
ATOM     25  H   UNL     1      11.203   2.737  22.340  0.00  0.00    +0.209 HD
ENDBRANCH  23  24
ENDBRANCH  18  23
ENDBRANCH   8  15
TORSDOF 4
ENDMDL
MODEL 4
REMARK VINA RESULT:      -6.3      2.220      6.503
REMARK  Name = 
REMARK  4 active torsions:
REMARK  status: ('A' for Active; 'I' for Inactive)
REMARK    1  A    between atoms: N_9  and  C_12
REMARK    2  A    between atoms: C_15  and  O_17
REMARK    3  A    between atoms: C_18  and  C_20
REMARK    4  A    between atoms: C_20  and  O_21
REMARK                            x       y       z     vdW  Elec       q    Type
REMARK                         _______ _______ _______ _____ _____    ______ ____
ROOT
ATOM      1  N   UNL     1       6.706  -4.660  27.424  0.00  0.00    -0.329 N 
ATOM      2  H   UNL     1       6.462  -3.804  27.906  0.00  0.00    +0.145 HD
ATOM      3  H   UNL     1       6.089  -5.422  27.694  0.00  0.00    +0.145 HD
ATOM      4  C   UNL     1       6.754  -4.547  26.073  0.00  0.00    +0.195 A 
ATOM      5  N   UNL     1       7.386  -3.404  25.654  0.00  0.00    -0.312 N 
ATOM      6  H   UNL     1       7.881  -2.835  26.335  0.00  0.00    +0.170 HD
ATOM      7  C   UNL     1       7.511  -3.246  24.330  0.00  0.00    +0.147 A 
ATOM      8  N   UNL     1       8.122  -2.264  23.618  0.00  0.00    -0.309 N 
ATOM      9  C   UNL     1       7.965  -2.610  22.293  0.00  0.00    +0.202 A 
ATOM     10  N   UNL     1       7.292  -3.734  22.145  0.00  0.00    -0.229 NA
ATOM     11  C   UNL     1       7.004  -4.146  23.428  0.00  0.00    +0.172 A 
ATOM     12  C   UNL     1       6.296  -5.340  23.915  0.00  0.00    +0.302 A 
ATOM     13  O   UNL     1       5.796  -6.168  23.159  0.00  0.00    -0.263 OA
ATOM     14  N   UNL     1       6.231  -5.465  25.313  0.00  0.00    -0.176 NA
ENDROOT
BRANCH   8  15
ATOM     15  C   UNL     1       8.778  -1.058  24.083  0.00  0.00    +0.118 C 
ATOM     16  C   UNL     1       8.034   0.245  23.859  0.00  0.00    -0.046 C 
ATOM     17  C   UNL     1       6.703   0.407  23.775  0.00  0.00    +0.010 C 
ATOM     18  C   UNL     1       9.056   1.370  23.694  0.00  0.00    +0.070 C 
ATOM     19  C   UNL     1      10.418   0.651  23.798  0.00  0.00    +0.126 C 
ATOM     20  C   UNL     1      10.138  -0.799  23.427  0.00  0.00    +0.061 C 
BRANCH  19  21
ATOM     21  O   UNL     1      10.875   0.694  25.154  0.00  0.00    -0.391 OA
ATOM     22  H   UNL     1      10.429   1.441  25.591  0.00  0.00    +0.210 HD
ENDBRANCH  19  21
BRANCH  18  23
ATOM     23  C   UNL     1       8.913   2.123  22.365  0.00  0.00    +0.166 C 
BRANCH  23  24
ATOM     24  O   UNL     1      10.149   2.147  21.650  0.00  0.00    -0.394 OA
ATOM     25  H   UNL     1      10.338   1.221  21.412  0.00  0.00    +0.209 HD
ENDBRANCH  23  24
ENDBRANCH  18  23
ENDBRANCH   8  15
TORSDOF 4
ENDMDL
MODEL 5
REMARK VINA RESULT:      -6.2      3.533      6.865
REMARK  Name = 
REMARK  4 active torsions:
REMARK  status: ('A' for Active; 'I' for Inactive)
REMARK    1  A    between atoms: N_9  and  C_12
REMARK    2  A    between atoms: C_15  and  O_17
REMARK    3  A    between atoms: C_18  and  C_20
REMARK    4  A    between atoms: C_20  and  O_21
REMARK                            x       y       z     vdW  Elec       q    Type
REMARK                         _______ _______ _______ _____ _____    ______ ____
ROOT
ATOM      1  N   UNL     1       8.588  -0.361  27.114  0.00  0.00    -0.329 N 
ATOM      2  H   UNL     1       7.792   0.254  27.219  0.00  0.00    +0.145 HD
ATOM      3  H   UNL     1       8.509  -1.171  27.725  0.00  0.00    +0.145 HD
ATOM      4  C   UNL     1       8.826  -0.756  25.838  0.00  0.00    +0.195 A 
ATOM      5  N   UNL     1       8.718   0.268  24.933  0.00  0.00    -0.312 N 
ATOM      6  H   UNL     1       8.627   1.222  25.273  0.00  0.00    +0.170 HD
ATOM      7  C   UNL     1       8.984  -0.037  23.655  0.00  0.00    +0.147 A 
ATOM      8  N   UNL     1       9.012   0.755  22.553  0.00  0.00    -0.309 N 
ATOM      9  C   UNL     1       9.360  -0.072  21.507  0.00  0.00    +0.202 A 
ATOM     10  N   UNL     1       9.539  -1.321  21.894  0.00  0.00    -0.229 NA
ATOM     11  C   UNL     1       9.306  -1.307  23.252  0.00  0.00    +0.172 A 
ATOM     12  C   UNL     1       9.372  -2.389  24.247  0.00  0.00    +0.302 A 
ATOM     13  O   UNL     1       9.628  -3.551  23.945  0.00  0.00    -0.263 OA
ATOM     14  N   UNL     1       9.118  -1.996  25.572  0.00  0.00    -0.176 NA
ENDROOT
BRANCH   8  15
ATOM     15  C   UNL     1       8.710   2.167  22.421  0.00  0.00    +0.118 C 
ATOM     16  C   UNL     1       9.564   3.119  23.236  0.00  0.00    -0.046 C 
ATOM     17  C   UNL     1      10.830   2.921  23.639  0.00  0.00    +0.010 C 
ATOM     18  C   UNL     1       8.730   4.354  23.579  0.00  0.00    +0.070 C 
ATOM     19  C   UNL     1       7.350   4.053  22.955  0.00  0.00    +0.126 C 
ATOM     20  C   UNL     1       7.282   2.536  22.839  0.00  0.00    +0.061 C 
BRANCH  19  21
ATOM     21  O   UNL     1       7.291   4.614  21.640  0.00  0.00    -0.391 OA
ATOM     22  H   UNL     1       6.351   4.695  21.397  0.00  0.00    +0.210 HD
ENDBRANCH  19  21
BRANCH  18  23
ATOM     23  C   UNL     1       8.627   4.611  25.088  0.00  0.00    +0.166 C 
BRANCH  23  24
ATOM     24  O   UNL     1       8.295   3.413  25.793  0.00  0.00    -0.394 OA
ATOM     25  H   UNL     1       8.880   2.722  25.434  0.00  0.00    +0.209 HD
ENDBRANCH  23  24
ENDBRANCH  18  23
ENDBRANCH   8  15
TORSDOF 4
ENDMDL
MODEL 6
REMARK VINA RESULT:      -6.1      1.508      2.348
REMARK  Name = 
REMARK  4 active torsions:
REMARK  status: ('A' for Active; 'I' for Inactive)
REMARK    1  A    between atoms: N_9  and  C_12
REMARK    2  A    between atoms: C_15  and  O_17
REMARK    3  A    between atoms: C_18  and  C_20
REMARK    4  A    between atoms: C_20  and  O_21
REMARK                            x       y       z     vdW  Elec       q    Type
REMARK                         _______ _______ _______ _____ _____    ______ ____
ROOT
ATOM      1  N   UNL     1       9.722  -0.964  21.098  0.00  0.00    -0.329 N 
ATOM      2  H   UNL     1       8.850  -0.963  20.584  0.00  0.00    +0.145 HD
ATOM      3  H   UNL     1      10.338  -0.221  20.776  0.00  0.00    +0.145 HD
ATOM      4  C   UNL     1       9.577  -0.905  22.446  0.00  0.00    +0.195 A 
ATOM      5  N   UNL     1       8.588  -1.731  22.913  0.00  0.00    -0.312 N 
ATOM      6  H   UNL     1       8.164  -2.403  22.279  0.00  0.00    +0.170 HD
ATOM      7  C   UNL     1       8.417  -1.761  24.242  0.00  0.00    +0.147 A 
ATOM      8  N   UNL     1       7.569  -2.503  25.000  0.00  0.00    -0.309 N 
ATOM      9  C   UNL     1       7.828  -2.147  26.306  0.00  0.00    +0.202 A 
ATOM     10  N   UNL     1       8.772  -1.230  26.399  0.00  0.00    -0.229 NA
ATOM     11  C   UNL     1       9.153  -0.982  25.098  0.00  0.00    +0.172 A 
ATOM     12  C   UNL     1      10.177  -0.077  24.555  0.00  0.00    +0.302 A 
ATOM     13  O   UNL     1      10.850   0.664  25.266  0.00  0.00    -0.263 OA
ATOM     14  N   UNL     1      10.332  -0.121  23.159  0.00  0.00    -0.176 NA
ENDROOT
BRANCH   8  15
ATOM     15  C   UNL     1       6.553  -3.452  24.590  0.00  0.00    +0.118 C 
ATOM     16  C   UNL     1       7.048  -4.747  23.975  0.00  0.00    -0.046 C 
ATOM     17  C   UNL     1       8.223  -5.353  24.213  0.00  0.00    +0.010 C 
ATOM     18  C   UNL     1       5.999  -5.250  22.982  0.00  0.00    +0.070 C 
ATOM     19  C   UNL     1       4.897  -4.170  23.029  0.00  0.00    +0.126 C 
ATOM     20  C   UNL     1       5.590  -2.909  23.528  0.00  0.00    +0.061 C 
BRANCH  19  21
ATOM     21  O   UNL     1       3.900  -4.549  23.982  0.00  0.00    -0.391 OA
ATOM     22  H   UNL     1       3.113  -4.000  23.819  0.00  0.00    +0.210 HD
ENDBRANCH  19  21
BRANCH  18  23
ATOM     23  C   UNL     1       6.553  -5.436  21.564  0.00  0.00    +0.166 C 
BRANCH  23  24
ATOM     24  O   UNL     1       5.733  -4.773  20.600  0.00  0.00    -0.394 OA
ATOM     25  H   UNL     1       5.781  -3.824  20.816  0.00  0.00    +0.209 HD
ENDBRANCH  23  24
ENDBRANCH  18  23
ENDBRANCH   8  15
TORSDOF 4
ENDMDL
MODEL 7
REMARK VINA RESULT:      -6.1      3.159      5.628
REMARK  Name = 
REMARK  4 active torsions:
REMARK  status: ('A' for Active; 'I' for Inactive)
REMARK    1  A    between atoms: N_9  and  C_12
REMARK    2  A    between atoms: C_15  and  O_17
REMARK    3  A    between atoms: C_18  and  C_20
REMARK    4  A    between atoms: C_20  and  O_21
REMARK                            x       y       z     vdW  Elec       q    Type
REMARK                         _______ _______ _______ _____ _____    ______ ____
ROOT
ATOM      1  N   UNL     1       3.725  -3.436  24.599  0.00  0.00    -0.329 N 
ATOM      2  H   UNL     1       3.757  -3.202  23.615  0.00  0.00    +0.145 HD
ATOM      3  H   UNL     1       2.873  -3.943  24.828  0.00  0.00    +0.145 HD
ATOM      4  C   UNL     1       4.812  -4.110  25.051  0.00  0.00    +0.195 A 
ATOM      5  N   UNL     1       5.993  -3.597  24.580  0.00  0.00    -0.312 N 
ATOM      6  H   UNL     1       5.984  -2.710  24.084  0.00  0.00    +0.170 HD
ATOM      7  C   UNL     1       7.113  -4.185  25.019  0.00  0.00    +0.147 A 
ATOM      8  N   UNL     1       8.415  -3.880  24.780  0.00  0.00    -0.309 N 
ATOM      9  C   UNL     1       9.152  -4.798  25.498  0.00  0.00    +0.202 A 
ATOM     10  N   UNL     1       8.388  -5.650  26.154  0.00  0.00    -0.229 NA
ATOM     11  C   UNL     1       7.097  -5.268  25.860  0.00  0.00    +0.172 A 
ATOM     12  C   UNL     1       5.809  -5.816  26.311  0.00  0.00    +0.302 A 
ATOM     13  O   UNL     1       5.727  -6.800  27.042  0.00  0.00    -0.263 OA
ATOM     14  N   UNL     1       4.674  -5.133  25.844  0.00  0.00    -0.176 NA
ENDROOT
BRANCH   8  15
ATOM     15  C   UNL     1       8.982  -2.853  23.929  0.00  0.00    +0.118 C 
ATOM     16  C   UNL     1       8.819  -1.421  24.400  0.00  0.00    -0.046 C 
ATOM     17  C   UNL     1       8.702  -1.000  25.670  0.00  0.00    +0.010 C 
ATOM     18  C   UNL     1       8.764  -0.506  23.176  0.00  0.00    +0.070 C 
ATOM     19  C   UNL     1       8.866  -1.479  21.982  0.00  0.00    +0.126 C 
ATOM     20  C   UNL     1       8.390  -2.823  22.516  0.00  0.00    +0.061 C 
BRANCH  19  21
ATOM     21  O   UNL     1      10.236  -1.604  21.588  0.00  0.00    -0.391 OA
ATOM     22  H   UNL     1      10.266  -1.572  20.615  0.00  0.00    +0.210 HD
ENDBRANCH  19  21
BRANCH  18  23
ATOM     23  C   UNL     1       7.485   0.338  23.113  0.00  0.00    +0.166 C 
BRANCH  23  24
ATOM     24  O   UNL     1       6.323  -0.472  23.303  0.00  0.00    -0.394 OA
ATOM     25  H   UNL     1       5.575   0.052  22.963  0.00  0.00    +0.209 HD
ENDBRANCH  23  24
ENDBRANCH  18  23
ENDBRANCH   8  15
TORSDOF 4
ENDMDL
MODEL 8
REMARK VINA RESULT:      -6.1      2.718      3.644
REMARK  Name = 
REMARK  4 active torsions:
REMARK  status: ('A' for Active; 'I' for Inactive)
REMARK    1  A    between atoms: N_9  and  C_12
REMARK    2  A    between atoms: C_15  and  O_17
REMARK    3  A    between atoms: C_18  and  C_20
REMARK    4  A    between atoms: C_20  and  O_21
REMARK                            x       y       z     vdW  Elec       q    Type
REMARK                         _______ _______ _______ _____ _____    ______ ____
ROOT
ATOM      1  N   UNL     1       5.376   0.338  25.244  0.00  0.00    -0.329 N 
ATOM      2  H   UNL     1       5.701  -0.053  26.119  0.00  0.00    +0.145 HD
ATOM      3  H   UNL     1       4.956   1.254  25.387  0.00  0.00    +0.145 HD
ATOM      4  C   UNL     1       6.320   0.398  24.272  0.00  0.00    +0.195 A 
ATOM      5  N   UNL     1       7.077  -0.742  24.191  0.00  0.00    -0.312 N 
ATOM      6  H   UNL     1       6.795  -1.561  24.723  0.00  0.00    +0.170 HD
ATOM      7  C   UNL     1       8.002  -0.774  23.222  0.00  0.00    +0.147 A 
ATOM      8  N   UNL     1       8.857  -1.764  22.859  0.00  0.00    -0.309 N 
ATOM      9  C   UNL     1       9.572  -1.267  21.791  0.00  0.00    +0.202 A 
ATOM     10  N   UNL     1       9.218  -0.035  21.480  0.00  0.00    -0.229 NA
ATOM     11  C   UNL     1       8.222   0.284  22.378  0.00  0.00    +0.172 A 
ATOM     12  C   UNL     1       7.419   1.507  22.524  0.00  0.00    +0.302 A 
ATOM     13  O   UNL     1       7.586   2.498  21.817  0.00  0.00    -0.263 OA
ATOM     14  N   UNL     1       6.442   1.462  23.533  0.00  0.00    -0.176 NA
ENDROOT
BRANCH   8  15
ATOM     15  C   UNL     1       9.061  -3.072  23.451  0.00  0.00    +0.118 C 
ATOM     16  C   UNL     1       7.921  -4.062  23.307  0.00  0.00    -0.046 C 
ATOM     17  C   UNL     1       7.009  -4.103  22.322  0.00  0.00    +0.010 C 
ATOM     18  C   UNL     1       7.940  -5.007  24.510  0.00  0.00    +0.070 C 
ATOM     19  C   UNL     1       9.118  -4.494  25.365  0.00  0.00    +0.126 C 
ATOM     20  C   UNL     1       9.303  -3.037  24.963  0.00  0.00    +0.061 C 
BRANCH  19  21
ATOM     21  O   UNL     1      10.304  -5.216  25.022  0.00  0.00    -0.391 OA
ATOM     22  H   UNL     1      10.215  -5.505  24.096  0.00  0.00    +0.210 HD
ENDBRANCH  19  21
BRANCH  18  23
ATOM     23  C   UNL     1       6.623  -5.006  25.297  0.00  0.00    +0.166 C 
BRANCH  23  24
ATOM     24  O   UNL     1       6.687  -5.899  26.410  0.00  0.00    -0.394 OA
ATOM     25  H   UNL     1       7.321  -6.595  26.157  0.00  0.00    +0.209 HD
ENDBRANCH  23  24
ENDBRANCH  18  23
ENDBRANCH   8  15
TORSDOF 4
ENDMDL
MODEL 9
REMARK VINA RESULT:      -6.1      4.259      8.190
REMARK  Name = 
REMARK  4 active torsions:
REMARK  status: ('A' for Active; 'I' for Inactive)
REMARK    1  A    between atoms: N_9  and  C_12
REMARK    2  A    between atoms: C_15  and  O_17
REMARK    3  A    between atoms: C_18  and  C_20
REMARK    4  A    between atoms: C_20  and  O_21
REMARK                            x       y       z     vdW  Elec       q    Type
REMARK                         _______ _______ _______ _____ _____    ______ ____
ROOT
ATOM      1  N   UNL     1       9.045  -0.614  26.964  0.00  0.00    -0.329 N 
ATOM      2  H   UNL     1       8.259  -0.116  27.364  0.00  0.00    +0.145 HD
ATOM      3  H   UNL     1       8.935  -1.619  27.073  0.00  0.00    +0.145 HD
ATOM      4  C   UNL     1       9.302  -0.305  25.668  0.00  0.00    +0.195 A 
ATOM      5  N   UNL     1       9.235   1.041  25.417  0.00  0.00    -0.312 N 
ATOM      6  H   UNL     1       9.158   1.687  26.197  0.00  0.00    +0.170 HD
ATOM      7  C   UNL     1       9.522   1.427  24.166  0.00  0.00    +0.147 A 
ATOM      8  N   UNL     1       9.592   2.671  23.626  0.00  0.00    -0.309 N 
ATOM      9  C   UNL     1       9.945   2.487  22.307  0.00  0.00    +0.202 A 
ATOM     10  N   UNL     1      10.088   1.212  21.999  0.00  0.00    -0.229 NA
ATOM     11  C   UNL     1       9.826   0.534  23.170  0.00  0.00    +0.172 A 
ATOM     12  C   UNL     1       9.847  -0.906  23.470  0.00  0.00    +0.302 A 
ATOM     13  O   UNL     1      10.084  -1.757  22.616  0.00  0.00    -0.263 OA
ATOM     14  N   UNL     1       9.573  -1.241  24.806  0.00  0.00    -0.176 NA
ENDROOT
BRANCH   8  15
ATOM     15  C   UNL     1       9.323   3.958  24.236  0.00  0.00    +0.118 C 
ATOM     16  C   UNL     1       7.934   4.529  24.021  0.00  0.00    -0.046 C 
ATOM     17  C   UNL     1       6.803   3.837  23.810  0.00  0.00    +0.010 C 
ATOM     18  C   UNL     1       8.024   6.056  24.037  0.00  0.00    +0.070 C 
ATOM     19  C   UNL     1       9.530   6.335  24.236  0.00  0.00    +0.126 C 
ATOM     20  C   UNL     1      10.241   5.082  23.743  0.00  0.00    +0.061 C 
BRANCH  19  21
ATOM     21  O   UNL     1       9.803   6.495  25.631  0.00  0.00    -0.391 OA
ATOM     22  H   UNL     1      10.559   5.922  25.850  0.00  0.00    +0.210 HD
ENDBRANCH  19  21
BRANCH  18  23
ATOM     23  C   UNL     1       7.491   6.704  22.754  0.00  0.00    +0.166 C 
BRANCH  23  24
ATOM     24  O   UNL     1       7.943   6.001  21.595  0.00  0.00    -0.394 OA
ATOM     25  H   UNL     1       7.614   6.508  20.831  0.00  0.00    +0.209 HD
ENDBRANCH  23  24
ENDBRANCH  18  23
ENDBRANCH   8  15
TORSDOF 4
ENDMDL
