MODEL 1
REMARK VINA RESULT:      -5.3      0.000      0.000
REMARK  Name = 
REMARK  5 active torsions:
REMARK  status: ('A' for Active; 'I' for Inactive)
REMARK    1  A    between atoms: O_1  and  C_2
REMARK    2  A    between atoms: C_2  and  C_4
REMARK    3  A    between atoms: C_4  and  C_5
REMARK    4  A    between atoms: C_7  and  N_12
REMARK    5  A    between atoms: C_8  and  O_9
REMARK                            x       y       z     vdW  Elec       q    Type
REMARK                         _______ _______ _______ _____ _____    ______ ____
ROOT
ATOM      1  C   UNL     1      10.989   4.781  23.663  0.00  0.00    -0.030 A 
ATOM      2  C   UNL     1       9.706   5.299  23.889  0.00  0.00    +0.008 A 
ATOM      3  C   UNL     1       8.576   4.494  23.728  0.00  0.00    +0.053 A 
ATOM      4  C   UNL     1       8.705   3.159  23.350  0.00  0.00    +0.195 A 
ATOM      5  C   UNL     1       9.983   2.618  23.164  0.00  0.00    +0.314 A 
ATOM      6  C   UNL     1      11.124   3.425  23.325  0.00  0.00    +0.092 A 
ENDROOT
BRANCH   5   7
ATOM      7  N   UNL     1      10.160   1.216  22.777  0.00  0.00    +0.083 N 
ATOM      8  O   UNL     1       9.770   0.881  21.645  0.00  0.00    +0.042 OA
ATOM      9  O   UNL     1      10.699   0.449  23.586  0.00  0.00    -0.576 OA
ENDBRANCH   5   7
BRANCH   4  10
ATOM     10  O   UNL     1       7.526   2.485  23.182  0.00  0.00    -0.501 OA
ATOM     11  H   UNL     1       7.697   1.612  22.767  0.00  0.00    +0.292 HD
ENDBRANCH   4  10
BRANCH   1  12
ATOM     12  C   UNL     1      12.207   5.670  23.775  0.00  0.00    +0.155 C 
BRANCH  12  13
ATOM     13  C   UNL     1      13.271   5.428  22.727  0.00  0.00    +0.309 C 
ATOM     14  O   UNL     1      13.138   5.591  21.524  0.00  0.00    -0.251 OA
BRANCH  13  15
ATOM     15  O   UNL     1      14.437   4.999  23.268  0.00  0.00    -0.480 OA
ATOM     16  H   UNL     1      14.543   5.194  24.218  0.00  0.00    +0.295 HD
ENDBRANCH  13  15
ENDBRANCH  12  13
ENDBRANCH   1  12
TORSDOF 5
ENDMDL
MODEL 2
REMARK VINA RESULT:      -5.2      9.494     10.709
REMARK  Name = 
REMARK  5 active torsions:
REMARK  status: ('A' for Active; 'I' for Inactive)
REMARK    1  A    between atoms: O_1  and  C_2
REMARK    2  A    between atoms: C_2  and  C_4
REMARK    3  A    between atoms: C_4  and  C_5
REMARK    4  A    between atoms: C_7  and  N_12
REMARK    5  A    between atoms: C_8  and  O_9
REMARK                            x       y       z     vdW  Elec       q    Type
REMARK                         _______ _______ _______ _____ _____    ______ ____
ROOT
ATOM      1  C   UNL     1       6.566  -4.937  24.055  0.00  0.00    -0.030 A 
ATOM      2  C   UNL     1       7.927  -4.732  23.791  0.00  0.00    +0.008 A 
ATOM      3  C   UNL     1       8.860  -4.725  24.831  0.00  0.00    +0.053 A 
ATOM      4  C   UNL     1       8.454  -4.930  26.148  0.00  0.00    +0.195 A 
ATOM      5  C   UNL     1       7.103  -5.179  26.420  0.00  0.00    +0.314 A 
ATOM      6  C   UNL     1       6.160  -5.188  25.376  0.00  0.00    +0.092 A 
ENDROOT
BRANCH   5   7
ATOM      7  N   UNL     1       6.639  -5.411  27.791  0.00  0.00    +0.083 N 
ATOM      8  O   UNL     1       5.752  -4.659  28.229  0.00  0.00    +0.042 OA
ATOM      9  O   UNL     1       7.140  -6.347  28.428  0.00  0.00    -0.576 OA
ENDBRANCH   5   7
BRANCH   4  10
ATOM     10  O   UNL     1       9.451  -4.856  27.083  0.00  0.00    -0.501 OA
ATOM     11  H   UNL     1      10.324  -4.957  26.648  0.00  0.00    +0.292 HD
ENDBRANCH   4  10
BRANCH   1  12
ATOM     12  C   UNL     1       5.550  -4.882  22.937  0.00  0.00    +0.155 C 
BRANCH  12  13
ATOM     13  C   UNL     1       5.910  -5.686  21.707  0.00  0.00    +0.309 C 
ATOM     14  O   UNL     1       5.977  -5.255  20.567  0.00  0.00    -0.251 OA
BRANCH  13  15
ATOM     15  O   UNL     1       6.164  -6.986  21.999  0.00  0.00    -0.480 OA
ATOM     16  H   UNL     1       6.007  -7.607  21.264  0.00  0.00    +0.295 HD
ENDBRANCH  13  15
ENDBRANCH  12  13
ENDBRANCH   1  12
TORSDOF 5
ENDMDL
MODEL 3
REMARK VINA RESULT:      -5.2      3.937      6.644
REMARK  Name = 
REMARK  5 active torsions:
REMARK  status: ('A' for Active; 'I' for Inactive)
REMARK    1  A    between atoms: O_1  and  C_2
REMARK    2  A    between atoms: C_2  and  C_4
REMARK    3  A    between atoms: C_4  and  C_5
REMARK    4  A    between atoms: C_7  and  N_12
REMARK    5  A    between atoms: C_8  and  O_9
REMARK                            x       y       z     vdW  Elec       q    Type
REMARK                         _______ _______ _______ _____ _____    ______ ____
ROOT
ATOM      1  C   UNL     1       9.763  -1.602  23.381  0.00  0.00    -0.030 A 
ATOM      2  C   UNL     1       9.530  -1.580  21.999  0.00  0.00    +0.008 A 
ATOM      3  C   UNL     1       9.403  -0.366  21.319  0.00  0.00    +0.053 A 
ATOM      4  C   UNL     1       9.515   0.844  22.002  0.00  0.00    +0.195 A 
ATOM      5  C   UNL     1       9.791   0.835  23.375  0.00  0.00    +0.314 A 
ATOM      6  C   UNL     1       9.920  -0.385  24.064  0.00  0.00    +0.092 A 
ENDROOT
BRANCH   5   7
ATOM      7  N   UNL     1       9.927   2.085  24.126  0.00  0.00    +0.083 N 
ATOM      8  O   UNL     1      10.886   2.823  23.841  0.00  0.00    +0.042 OA
ATOM      9  O   UNL     1       9.077   2.346  24.988  0.00  0.00    -0.576 OA
ENDBRANCH   5   7
BRANCH   4  10
ATOM     10  O   UNL     1       9.328   1.964  21.238  0.00  0.00    -0.501 OA
ATOM     11  H   UNL     1      10.138   2.151  20.717  0.00  0.00    +0.292 HD
ENDBRANCH   4  10
BRANCH   1  12
ATOM     12  C   UNL     1       9.837  -2.916  24.126  0.00  0.00    +0.155 C 
BRANCH  12  13
ATOM     13  C   UNL     1       8.560  -3.728  24.116  0.00  0.00    +0.309 C 
ATOM     14  O   UNL     1       7.426  -3.275  24.142  0.00  0.00    -0.251 OA
BRANCH  13  15
ATOM     15  O   UNL     1       8.799  -5.061  24.072  0.00  0.00    -0.480 OA
ATOM     16  H   UNL     1       8.091  -5.616  24.448  0.00  0.00    +0.295 HD
ENDBRANCH  13  15
ENDBRANCH  12  13
ENDBRANCH   1  12
TORSDOF 5
ENDMDL
MODEL 4
REMARK VINA RESULT:      -5.2      5.382      7.882
REMARK  Name = 
REMARK  5 active torsions:
REMARK  status: ('A' for Active; 'I' for Inactive)
REMARK    1  A    between atoms: O_1  and  C_2
REMARK    2  A    between atoms: C_2  and  C_4
REMARK    3  A    between atoms: C_4  and  C_5
REMARK    4  A    between atoms: C_7  and  N_12
REMARK    5  A    between atoms: C_8  and  O_9
REMARK                            x       y       z     vdW  Elec       q    Type
REMARK                         _______ _______ _______ _____ _____    ______ ____
ROOT
ATOM      1  C   UNL     1       8.247  -2.818  25.476  0.00  0.00    -0.030 A 
ATOM      2  C   UNL     1       8.236  -1.901  26.536  0.00  0.00    +0.008 A 
ATOM      3  C   UNL     1       8.891  -0.672  26.419  0.00  0.00    +0.053 A 
ATOM      4  C   UNL     1       9.558  -0.334  25.243  0.00  0.00    +0.195 A 
ATOM      5  C   UNL     1       9.539  -1.224  24.162  0.00  0.00    +0.314 A 
ATOM      6  C   UNL     1       8.880  -2.462  24.275  0.00  0.00    +0.092 A 
ENDROOT
BRANCH   5   7
ATOM      7  N   UNL     1      10.219  -0.899  22.905  0.00  0.00    +0.083 N 
ATOM      8  O   UNL     1      10.747  -1.836  22.282  0.00  0.00    +0.042 OA
ATOM      9  O   UNL     1      10.218   0.280  22.527  0.00  0.00    -0.576 OA
ENDBRANCH   5   7
BRANCH   4  10
ATOM     10  O   UNL     1      10.199   0.875  25.265  0.00  0.00    -0.501 OA
ATOM     11  H   UNL     1      11.160   0.746  25.116  0.00  0.00    +0.292 HD
ENDBRANCH   4  10
BRANCH   1  12
ATOM     12  C   UNL     1       7.592  -4.173  25.627  0.00  0.00    +0.155 C 
BRANCH  12  13
ATOM     13  C   UNL     1       8.208  -5.066  26.682  0.00  0.00    +0.309 C 
ATOM     14  O   UNL     1       7.598  -5.667  27.552  0.00  0.00    -0.251 OA
BRANCH  13  15
ATOM     15  O   UNL     1       9.557  -5.143  26.566  0.00  0.00    -0.480 OA
ATOM     16  H   UNL     1       9.874  -5.793  25.912  0.00  0.00    +0.295 HD
ENDBRANCH  13  15
ENDBRANCH  12  13
ENDBRANCH   1  12
TORSDOF 5
ENDMDL
MODEL 5
REMARK VINA RESULT:      -5.1      2.765      3.926
REMARK  Name = 
REMARK  5 active torsions:
REMARK  status: ('A' for Active; 'I' for Inactive)
REMARK    1  A    between atoms: O_1  and  C_2
REMARK    2  A    between atoms: C_2  and  C_4
REMARK    3  A    between atoms: C_4  and  C_5
REMARK    4  A    between atoms: C_7  and  N_12
REMARK    5  A    between atoms: C_8  and  O_9
REMARK                            x       y       z     vdW  Elec       q    Type
REMARK                         _______ _______ _______ _____ _____    ______ ____
ROOT
ATOM      1  C   UNL     1       9.458   1.775  23.425  0.00  0.00    -0.030 A 
ATOM      2  C   UNL     1       9.401   1.705  22.027  0.00  0.00    +0.008 A 
ATOM      3  C   UNL     1       9.438   0.470  21.374  0.00  0.00    +0.053 A 
ATOM      4  C   UNL     1       9.523  -0.714  22.104  0.00  0.00    +0.195 A 
ATOM      5  C   UNL     1       9.537  -0.660  23.503  0.00  0.00    +0.314 A 
ATOM      6  C   UNL     1       9.499   0.581  24.164  0.00  0.00    +0.092 A 
ENDROOT
BRANCH   5   7
ATOM      7  N   UNL     1       9.615  -1.883  24.306  0.00  0.00    +0.083 N 
ATOM      8  O   UNL     1       9.041  -1.882  25.408  0.00  0.00    +0.042 OA
ATOM      9  O   UNL     1      10.231  -2.851  23.839  0.00  0.00    -0.576 OA
ENDBRANCH   5   7
BRANCH   4  10
ATOM     10  O   UNL     1       9.597  -1.857  21.354  0.00  0.00    -0.501 OA
ATOM     11  H   UNL     1       8.886  -1.858  20.677  0.00  0.00    +0.292 HD
ENDBRANCH   4  10
BRANCH   1  12
ATOM     12  C   UNL     1       9.482   3.114  24.127  0.00  0.00    +0.155 C 
BRANCH  12  13
ATOM     13  C   UNL     1      10.497   4.099  23.588  0.00  0.00    +0.309 C 
ATOM     14  O   UNL     1      11.695   3.896  23.472  0.00  0.00    -0.251 OA
BRANCH  13  15
ATOM     15  O   UNL     1       9.929   5.276  23.228  0.00  0.00    -0.480 OA
ATOM     16  H   UNL     1       9.029   5.418  23.575  0.00  0.00    +0.295 HD
ENDBRANCH  13  15
ENDBRANCH  12  13
ENDBRANCH   1  12
TORSDOF 5
ENDMDL
MODEL 6
REMARK VINA RESULT:      -5.1      4.490      6.033
REMARK  Name = 
REMARK  5 active torsions:
REMARK  status: ('A' for Active; 'I' for Inactive)
REMARK    1  A    between atoms: O_1  and  C_2
REMARK    2  A    between atoms: C_2  and  C_4
REMARK    3  A    between atoms: C_4  and  C_5
REMARK    4  A    between atoms: C_7  and  N_12
REMARK    5  A    between atoms: C_8  and  O_9
REMARK                            x       y       z     vdW  Elec       q    Type
REMARK                         _______ _______ _______ _____ _____    ______ ____
ROOT
ATOM      1  C   UNL     1       9.280  -0.888  22.691  0.00  0.00    -0.030 A 
ATOM      2  C   UNL     1       9.475  -0.305  23.950  0.00  0.00    +0.008 A 
ATOM      3  C   UNL     1       9.238  -1.036  25.117  0.00  0.00    +0.053 A 
ATOM      4  C   UNL     1       8.812  -2.361  25.048  0.00  0.00    +0.195 A 
ATOM      5  C   UNL     1       8.655  -2.969  23.796  0.00  0.00    +0.314 A 
ATOM      6  C   UNL     1       8.893  -2.236  22.619  0.00  0.00    +0.092 A 
ENDROOT
BRANCH   5   7
ATOM      7  N   UNL     1       8.219  -4.363  23.683  0.00  0.00    +0.083 N 
ATOM      8  O   UNL     1       7.203  -4.592  23.005  0.00  0.00    +0.042 OA
ATOM      9  O   UNL     1       8.891  -5.234  24.252  0.00  0.00    -0.576 OA
ENDBRANCH   5   7
BRANCH   4  10
ATOM     10  O   UNL     1       8.570  -2.958  26.256  0.00  0.00    -0.501 OA
ATOM     11  H   UNL     1       7.643  -3.277  26.290  0.00  0.00    +0.292 HD
ENDBRANCH   4  10
BRANCH   1  12
ATOM     12  C   UNL     1       9.475  -0.077  21.430  0.00  0.00    +0.155 C 
BRANCH  12  13
ATOM     13  C   UNL     1       9.016   1.362  21.519  0.00  0.00    +0.309 C 
ATOM     14  O   UNL     1       7.855   1.740  21.550  0.00  0.00    -0.251 OA
BRANCH  13  15
ATOM     15  O   UNL     1      10.055   2.231  21.567  0.00  0.00    -0.480 OA
ATOM     16  H   UNL     1       9.961   2.945  22.225  0.00  0.00    +0.295 HD
ENDBRANCH  13  15
ENDBRANCH  12  13
ENDBRANCH   1  12
TORSDOF 5
ENDMDL
MODEL 7
REMARK VINA RESULT:      -5.0      5.103      6.722
REMARK  Name = 
REMARK  5 active torsions:
REMARK  status: ('A' for Active; 'I' for Inactive)
REMARK    1  A    between atoms: O_1  and  C_2
REMARK    2  A    between atoms: C_2  and  C_4
REMARK    3  A    between atoms: C_4  and  C_5
REMARK    4  A    between atoms: C_7  and  N_12
REMARK    5  A    between atoms: C_8  and  O_9
REMARK                            x       y       z     vdW  Elec       q    Type
REMARK                         _______ _______ _______ _____ _____    ______ ____
ROOT
ATOM      1  C   UNL     1       9.343  -1.515  22.484  0.00  0.00    -0.030 A 
ATOM      2  C   UNL     1       9.851  -1.939  23.719  0.00  0.00    +0.008 A 
ATOM      3  C   UNL     1       9.277  -3.022  24.391  0.00  0.00    +0.053 A 
ATOM      4  C   UNL     1       8.194  -3.703  23.839  0.00  0.00    +0.195 A 
ATOM      5  C   UNL     1       7.704  -3.316  22.585  0.00  0.00    +0.314 A 
ATOM      6  C   UNL     1       8.280  -2.227  21.906  0.00  0.00    +0.092 A 
ENDROOT
BRANCH   5   7
ATOM      7  N   UNL     1       6.575  -4.015  21.967  0.00  0.00    +0.083 N 
ATOM      8  O   UNL     1       6.661  -5.249  21.847  0.00  0.00    +0.042 OA
ATOM      9  O   UNL     1       5.595  -3.345  21.613  0.00  0.00    -0.576 OA
ENDBRANCH   5   7
BRANCH   4  10
ATOM     10  O   UNL     1       7.690  -4.716  24.609  0.00  0.00    -0.501 OA
ATOM     11  H   UNL     1       7.623  -4.424  25.543  0.00  0.00    +0.292 HD
ENDBRANCH   4  10
BRANCH   1  12
ATOM     12  C   UNL     1       9.924  -0.304  21.790  0.00  0.00    +0.155 C 
BRANCH  12  13
ATOM     13  C   UNL     1       9.162   0.985  22.009  0.00  0.00    +0.309 C 
ATOM     14  O   UNL     1       8.101   1.094  22.604  0.00  0.00    -0.251 OA
BRANCH  13  15
ATOM     15  O   UNL     1       9.792   2.054  21.463  0.00  0.00    -0.480 OA
ATOM     16  H   UNL     1       9.245   2.583  20.853  0.00  0.00    +0.295 HD
ENDBRANCH  13  15
ENDBRANCH  12  13
ENDBRANCH   1  12
TORSDOF 5
ENDMDL
MODEL 8
REMARK VINA RESULT:      -5.0      7.127      8.805
REMARK  Name = 
REMARK  5 active torsions:
REMARK  status: ('A' for Active; 'I' for Inactive)
REMARK    1  A    between atoms: O_1  and  C_2
REMARK    2  A    between atoms: C_2  and  C_4
REMARK    3  A    between atoms: C_4  and  C_5
REMARK    4  A    between atoms: C_7  and  N_12
REMARK    5  A    between atoms: C_8  and  O_9
REMARK                            x       y       z     vdW  Elec       q    Type
REMARK                         _______ _______ _______ _____ _____    ______ ____
ROOT
ATOM      1  C   UNL     1       8.288  -3.671  24.008  0.00  0.00    -0.030 A 
ATOM      2  C   UNL     1       9.396  -3.932  24.825  0.00  0.00    +0.008 A 
ATOM      3  C   UNL     1       9.260  -4.701  25.984  0.00  0.00    +0.053 A 
ATOM      4  C   UNL     1       8.021  -5.229  26.342  0.00  0.00    +0.195 A 
ATOM      5  C   UNL     1       6.915  -5.012  25.511  0.00  0.00    +0.314 A 
ATOM      6  C   UNL     1       7.048  -4.238  24.343  0.00  0.00    +0.092 A 
ENDROOT
BRANCH   5   7
ATOM      7  N   UNL     1       5.598  -5.559  25.847  0.00  0.00    +0.083 N 
ATOM      8  O   UNL     1       4.603  -4.876  25.555  0.00  0.00    +0.042 OA
ATOM      9  O   UNL     1       5.548  -6.673  26.387  0.00  0.00    -0.576 OA
ENDBRANCH   5   7
BRANCH   4  10
ATOM     10  O   UNL     1       8.003  -5.927  27.519  0.00  0.00    -0.501 OA
ATOM     11  H   UNL     1       8.743  -6.572  27.536  0.00  0.00    +0.292 HD
ENDBRANCH   4  10
BRANCH   1  12
ATOM     12  C   UNL     1       8.424  -2.786  22.790  0.00  0.00    +0.155 C 
BRANCH  12  13
ATOM     13  C   UNL     1       9.445  -1.676  22.918  0.00  0.00    +0.309 C 
ATOM     14  O   UNL     1       9.414  -0.769  23.734  0.00  0.00    -0.251 OA
BRANCH  13  15
ATOM     15  O   UNL     1      10.441  -1.787  22.005  0.00  0.00    -0.480 OA
ATOM     16  H   UNL     1      10.480  -1.064  21.352  0.00  0.00    +0.295 HD
ENDBRANCH  13  15
ENDBRANCH  12  13
ENDBRANCH   1  12
TORSDOF 5
ENDMDL
MODEL 9
REMARK VINA RESULT:      -5.0      8.478     10.033
REMARK  Name = 
REMARK  5 active torsions:
REMARK  status: ('A' for Active; 'I' for Inactive)
REMARK    1  A    between atoms: O_1  and  C_2
REMARK    2  A    between atoms: C_2  and  C_4
REMARK    3  A    between atoms: C_4  and  C_5
REMARK    4  A    between atoms: C_7  and  N_12
REMARK    5  A    between atoms: C_8  and  O_9
REMARK                            x       y       z     vdW  Elec       q    Type
REMARK                         _______ _______ _______ _____ _____    ______ ____
ROOT
ATOM      1  C   UNL     1       7.608  -4.315  23.840  0.00  0.00    -0.030 A 
ATOM      2  C   UNL     1       8.803  -4.359  24.571  0.00  0.00    +0.008 A 
ATOM      3  C   UNL     1       8.832  -4.911  25.855  0.00  0.00    +0.053 A 
ATOM      4  C   UNL     1       7.673  -5.434  26.426  0.00  0.00    +0.195 A 
ATOM      5  C   UNL     1       6.482  -5.435  25.689  0.00  0.00    +0.314 A 
ATOM      6  C   UNL     1       6.450  -4.881  24.397  0.00  0.00    +0.092 A 
ENDROOT
BRANCH   5   7
ATOM      7  N   UNL     1       5.247  -5.986  26.252  0.00  0.00    +0.083 N 
ATOM      8  O   UNL     1       5.344  -7.001  26.963  0.00  0.00    +0.042 OA
ATOM      9  O   UNL     1       4.181  -5.406  26.003  0.00  0.00    -0.576 OA
ENDBRANCH   5   7
BRANCH   4  10
ATOM     10  O   UNL     1       7.816  -5.905  27.703  0.00  0.00    -0.501 OA
ATOM     11  H   UNL     1       8.587  -6.511  27.751  0.00  0.00    +0.292 HD
ENDBRANCH   4  10
BRANCH   1  12
ATOM     12  C   UNL     1       7.565  -3.661  22.478  0.00  0.00    +0.155 C 
BRANCH  12  13
ATOM     13  C   UNL     1       6.223  -3.079  22.091  0.00  0.00    +0.309 C 
ATOM     14  O   UNL     1       5.417  -3.589  21.329  0.00  0.00    -0.251 OA
BRANCH  13  15
ATOM     15  O   UNL     1       5.984  -1.889  22.696  0.00  0.00    -0.480 OA
ATOM     16  H   UNL     1       5.613  -1.202  22.113  0.00  0.00    +0.295 HD
ENDBRANCH  13  15
ENDBRANCH  12  13
ENDBRANCH   1  12
TORSDOF 5
ENDMDL
