MODEL 1
REMARK VINA RESULT:      -7.3      0.000      0.000
REMARK  Name = 
REMARK  11 active torsions:
REMARK  status: ('A' for Active; 'I' for Inactive)
REMARK    1  A    between atoms: C_1  and  C_2
REMARK    2  A    between atoms: C_2  and  N_3
REMARK    3  A    between atoms: N_3  and  C_4
REMARK    4  A    between atoms: N_3  and  C_6
REMARK    5  A    between atoms: C_4  and  C_5
REMARK    6  A    between atoms: C_6  and  C_7
REMARK    7  A    between atoms: C_7  and  N_8
REMARK    8  A    between atoms: C_9  and  C_11
REMARK    9  A    between atoms: C_12  and  C_13
REMARK   10  A    between atoms: C_15  and  C_16
REMARK   11  A    between atoms: C_28  and  C_29
REMARK                            x       y       z     vdW  Elec       q    Type
REMARK                         _______ _______ _______ _____ _____    ______ ____
ROOT
ATOM      1  C   UNL     1       8.905  -2.463  24.199  0.00  0.00    +0.060 A 
ATOM      2  C   UNL     1       9.616  -1.413  23.515  0.00  0.00    -0.013 A 
ATOM      3  C   UNL     1      10.172  -1.484  22.130  0.00  0.00    +0.047 C 
ATOM      4  C   UNL     1       9.632  -0.300  24.348  0.00  0.00    +0.044 A 
ATOM      5  N   UNL     1       8.979  -0.643  25.505  0.00  0.00    -0.358 N 
ATOM      6  H   UNL     1       8.820  -0.024  26.296  0.00  0.00    +0.166 HD
ATOM      7  C   UNL     1       8.534  -1.943  25.434  0.00  0.00    +0.026 A 
ATOM      8  C   UNL     1       7.784  -2.540  26.572  0.00  0.00    +0.064 C 
ENDROOT
BRANCH   4   9
ATOM      9  C   UNL     1      10.163   0.995  24.120  0.00  0.00    +0.039 C 
ATOM     10  C   UNL     1       9.601   2.205  24.221  0.00  0.00    +0.048 C 
ATOM     11  C   UNL     1      10.363   3.426  23.901  0.00  0.00    +0.011 A 
ATOM     12  C   UNL     1      11.658   3.638  23.456  0.00  0.00    +0.048 A 
ATOM     13  C   UNL     1      12.064   4.952  23.252  0.00  0.00    +0.124 A 
ATOM     14  C   UNL     1      11.202   6.032  23.486  0.00  0.00    +0.040 A 
ATOM     15  C   UNL     1       9.892   5.813  23.928  0.00  0.00    +0.027 A 
ATOM     16  F   UNL     1      13.311   5.187  22.824  0.00  0.00    -0.205 F 
ATOM     17  C   UNL     1       9.501   4.500  24.125  0.00  0.00    +0.042 A 
ATOM     18  N   UNL     1       8.256   4.040  24.551  0.00  0.00    -0.281 N 
ATOM     19  H   UNL     1       7.461   4.621  24.773  0.00  0.00    +0.155 HD
ATOM     20  C   UNL     1       8.225   2.652  24.635  0.00  0.00    +0.249 C 
ATOM     21  O   UNL     1       7.285   1.965  24.972  0.00  0.00    -0.270 OA
ENDBRANCH   4   9
BRANCH   1  24
ATOM     22  N   UNL     1       7.595  -3.811  22.705  0.00  0.00    -0.310 N 
ATOM     23  H   UNL     1       7.467  -2.971  22.154  0.00  0.00    +0.149 HD
ATOM     24  C   UNL     1       8.550  -3.796  23.700  0.00  0.00    +0.246 C 
ATOM     25  O   UNL     1       9.062  -4.826  24.133  0.00  0.00    -0.270 OA
BRANCH  22  26
ATOM     26  C   UNL     1       7.156  -5.066  22.135  0.00  0.00    +0.120 C 
BRANCH  26  27
ATOM     27  C   UNL     1       5.651  -5.330  22.336  0.00  0.00    +0.103 C 
BRANCH  27  28
ATOM     28  N   UNL     1       5.180  -5.271  23.742  0.00  0.00    -0.301 NA
BRANCH  28  30
ATOM     29  C   UNL     1       4.581  -3.044  24.778  0.00  0.00    +0.020 C 
ATOM     30  C   UNL     1       4.151  -4.228  23.918  0.00  0.00    +0.081 C 
ENDBRANCH  28  30
BRANCH  28  31
ATOM     31  C   UNL     1       4.757  -6.604  24.214  0.00  0.00    +0.081 C 
ATOM     32  C   UNL     1       4.573  -6.773  25.722  0.00  0.00    +0.020 C 
ENDBRANCH  28  31
ENDBRANCH  27  28
ENDBRANCH  26  27
ENDBRANCH  22  26
ENDBRANCH   1  24
TORSDOF 7
ENDMDL
MODEL 2
REMARK VINA RESULT:      -7.3      3.960      9.660
REMARK  Name = 
REMARK  11 active torsions:
REMARK  status: ('A' for Active; 'I' for Inactive)
REMARK    1  A    between atoms: C_1  and  C_2
REMARK    2  A    between atoms: C_2  and  N_3
REMARK    3  A    between atoms: N_3  and  C_4
REMARK    4  A    between atoms: N_3  and  C_6
REMARK    5  A    between atoms: C_4  and  C_5
REMARK    6  A    between atoms: C_6  and  C_7
REMARK    7  A    between atoms: C_7  and  N_8
REMARK    8  A    between atoms: C_9  and  C_11
REMARK    9  A    between atoms: C_12  and  C_13
REMARK   10  A    between atoms: C_15  and  C_16
REMARK   11  A    between atoms: C_28  and  C_29
REMARK                            x       y       z     vdW  Elec       q    Type
REMARK                         _______ _______ _______ _____ _____    ______ ____
ROOT
ATOM      1  C   UNL     1       8.580  -3.331  24.155  0.00  0.00    +0.060 A 
ATOM      2  C   UNL     1       7.216  -3.381  23.696  0.00  0.00    -0.013 A 
ATOM      3  C   UNL     1       6.529  -2.348  22.861  0.00  0.00    +0.047 C 
ATOM      4  C   UNL     1       6.674  -4.592  24.110  0.00  0.00    +0.044 A 
ATOM      5  N   UNL     1       7.646  -5.259  24.810  0.00  0.00    -0.358 N 
ATOM      6  H   UNL     1       7.543  -6.183  25.223  0.00  0.00    +0.166 HD
ATOM      7  C   UNL     1       8.802  -4.515  24.849  0.00  0.00    +0.026 A 
ATOM      8  C   UNL     1      10.006  -5.040  25.548  0.00  0.00    +0.064 C 
ENDROOT
BRANCH   4   9
ATOM      9  C   UNL     1       5.387  -5.138  23.870  0.00  0.00    +0.039 C 
ATOM     10  C   UNL     1       4.645  -5.987  24.590  0.00  0.00    +0.048 C 
ATOM     11  C   UNL     1       3.324  -6.436  24.113  0.00  0.00    +0.011 A 
ATOM     12  C   UNL     1       2.599  -6.170  22.962  0.00  0.00    +0.048 A 
ATOM     13  C   UNL     1       1.353  -6.773  22.829  0.00  0.00    +0.124 A 
ATOM     14  C   UNL     1       0.839  -7.623  23.818  0.00  0.00    +0.040 A 
ATOM     15  C   UNL     1       1.579  -7.895  24.975  0.00  0.00    +0.027 A 
ATOM     16  F   UNL     1       0.629  -6.533  21.729  0.00  0.00    -0.205 F 
ATOM     17  C   UNL     1       2.817  -7.288  25.093  0.00  0.00    +0.042 A 
ATOM     18  N   UNL     1       3.727  -7.413  26.142  0.00  0.00    -0.281 N 
ATOM     19  H   UNL     1       3.596  -7.978  26.968  0.00  0.00    +0.155 HD
ATOM     20  C   UNL     1       4.872  -6.657  25.918  0.00  0.00    +0.249 C 
ATOM     21  O   UNL     1       5.838  -6.565  26.646  0.00  0.00    -0.270 OA
ENDBRANCH   4   9
BRANCH   1  24
ATOM     22  N   UNL     1       9.492  -1.176  24.691  0.00  0.00    -0.310 N 
ATOM     23  H   UNL     1       9.015  -1.260  25.579  0.00  0.00    +0.149 HD
ATOM     24  C   UNL     1       9.591  -2.299  23.897  0.00  0.00    +0.246 C 
ATOM     25  O   UNL     1      10.462  -2.422  23.039  0.00  0.00    -0.270 OA
BRANCH  22  26
ATOM     26  C   UNL     1      10.428  -0.084  24.527  0.00  0.00    +0.120 C 
BRANCH  26  27
ATOM     27  C   UNL     1       9.753   1.301  24.543  0.00  0.00    +0.103 C 
BRANCH  27  28
ATOM     28  N   UNL     1       9.066   1.684  23.285  0.00  0.00    -0.301 NA
BRANCH  28  30
ATOM     29  C   UNL     1       7.580   3.499  22.339  0.00  0.00    +0.020 C 
ATOM     30  C   UNL     1       8.718   3.118  23.281  0.00  0.00    +0.081 C 
ENDBRANCH  28  30
BRANCH  28  31
ATOM     31  C   UNL     1       9.845   1.262  22.105  0.00  0.00    +0.081 C 
ATOM     32  C   UNL     1       9.192   0.234  21.181  0.00  0.00    +0.020 C 
ENDBRANCH  28  31
ENDBRANCH  27  28
ENDBRANCH  26  27
ENDBRANCH  22  26
ENDBRANCH   1  24
TORSDOF 7
ENDMDL
MODEL 3
REMARK VINA RESULT:      -7.0      3.519      9.740
REMARK  Name = 
REMARK  11 active torsions:
REMARK  status: ('A' for Active; 'I' for Inactive)
REMARK    1  A    between atoms: C_1  and  C_2
REMARK    2  A    between atoms: C_2  and  N_3
REMARK    3  A    between atoms: N_3  and  C_4
REMARK    4  A    between atoms: N_3  and  C_6
REMARK    5  A    between atoms: C_4  and  C_5
REMARK    6  A    between atoms: C_6  and  C_7
REMARK    7  A    between atoms: C_7  and  N_8
REMARK    8  A    between atoms: C_9  and  C_11
REMARK    9  A    between atoms: C_12  and  C_13
REMARK   10  A    between atoms: C_15  and  C_16
REMARK   11  A    between atoms: C_28  and  C_29
REMARK                            x       y       z     vdW  Elec       q    Type
REMARK                         _______ _______ _______ _____ _____    ______ ____
ROOT
ATOM      1  C   UNL     1       8.371   0.522  23.177  0.00  0.00    +0.060 A 
ATOM      2  C   UNL     1       8.469  -0.790  23.765  0.00  0.00    -0.013 A 
ATOM      3  C   UNL     1       9.730  -1.479  24.175  0.00  0.00    +0.047 C 
ATOM      4  C   UNL     1       7.177  -1.271  23.945  0.00  0.00    +0.044 A 
ATOM      5  N   UNL     1       6.314  -0.314  23.476  0.00  0.00    -0.358 N 
ATOM      6  H   UNL     1       5.299  -0.380  23.491  0.00  0.00    +0.166 HD
ATOM      7  C   UNL     1       7.014   0.773  23.009  0.00  0.00    +0.026 A 
ATOM      8  C   UNL     1       6.289   1.949  22.456  0.00  0.00    +0.064 C 
ENDROOT
BRANCH   4   9
ATOM      9  C   UNL     1       6.736  -2.486  24.527  0.00  0.00    +0.039 C 
ATOM     10  C   UNL     1       5.989  -3.478  24.030  0.00  0.00    +0.048 C 
ATOM     11  C   UNL     1       5.636  -4.650  24.852  0.00  0.00    +0.011 A 
ATOM     12  C   UNL     1       5.910  -4.996  26.165  0.00  0.00    +0.048 A 
ATOM     13  C   UNL     1       5.412  -6.207  26.633  0.00  0.00    +0.124 A 
ATOM     14  C   UNL     1       4.657  -7.056  25.812  0.00  0.00    +0.040 A 
ATOM     15  C   UNL     1       4.376  -6.699  24.489  0.00  0.00    +0.027 A 
ATOM     16  F   UNL     1       5.664  -6.568  27.897  0.00  0.00    -0.205 F 
ATOM     17  C   UNL     1       4.877  -5.491  24.038  0.00  0.00    +0.042 A 
ATOM     18  N   UNL     1       4.721  -4.927  22.772  0.00  0.00    -0.281 N 
ATOM     19  H   UNL     1       4.209  -5.337  22.006  0.00  0.00    +0.155 HD
ATOM     20  C   UNL     1       5.363  -3.697  22.679  0.00  0.00    +0.249 C 
ATOM     21  O   UNL     1       5.404  -2.969  21.710  0.00  0.00    -0.270 OA
ENDBRANCH   4   9
BRANCH   1  24
ATOM     22  N   UNL     1       9.688   2.411  23.855  0.00  0.00    -0.310 N 
ATOM     23  H   UNL     1       9.394   2.202  24.801  0.00  0.00    +0.149 HD
ATOM     24  C   UNL     1       9.452   1.468  22.878  0.00  0.00    +0.246 C 
ATOM     25  O   UNL     1      10.102   1.426  21.835  0.00  0.00    -0.270 OA
BRANCH  22  26
ATOM     26  C   UNL     1      10.725   3.404  23.674  0.00  0.00    +0.120 C 
BRANCH  26  27
ATOM     27  C   UNL     1      10.183   4.845  23.622  0.00  0.00    +0.103 C 
BRANCH  27  28
ATOM     28  N   UNL     1      11.211   5.911  23.718  0.00  0.00    -0.301 NA
BRANCH  28  30
ATOM     29  C   UNL     1      12.356   7.107  25.630  0.00  0.00    +0.020 C 
ATOM     30  C   UNL     1      11.050   6.699  24.955  0.00  0.00    +0.081 C 
ENDBRANCH  28  30
BRANCH  28  31
ATOM     31  C   UNL     1      12.567   5.357  23.542  0.00  0.00    +0.081 C 
ATOM     32  C   UNL     1      13.248   5.617  22.199  0.00  0.00    +0.020 C 
ENDBRANCH  28  31
ENDBRANCH  27  28
ENDBRANCH  26  27
ENDBRANCH  22  26
ENDBRANCH   1  24
TORSDOF 7
ENDMDL
MODEL 4
REMARK VINA RESULT:      -6.8      3.448      9.558
REMARK  Name = 
REMARK  11 active torsions:
REMARK  status: ('A' for Active; 'I' for Inactive)
REMARK    1  A    between atoms: C_1  and  C_2
REMARK    2  A    between atoms: C_2  and  N_3
REMARK    3  A    between atoms: N_3  and  C_4
REMARK    4  A    between atoms: N_3  and  C_6
REMARK    5  A    between atoms: C_4  and  C_5
REMARK    6  A    between atoms: C_6  and  C_7
REMARK    7  A    between atoms: C_7  and  N_8
REMARK    8  A    between atoms: C_9  and  C_11
REMARK    9  A    between atoms: C_12  and  C_13
REMARK   10  A    between atoms: C_15  and  C_16
REMARK   11  A    between atoms: C_28  and  C_29
REMARK                            x       y       z     vdW  Elec       q    Type
REMARK                         _______ _______ _______ _____ _____    ______ ____
ROOT
ATOM      1  C   UNL     1       9.497  -0.638  24.007  0.00  0.00    +0.060 A 
ATOM      2  C   UNL     1       8.797  -1.435  24.982  0.00  0.00    -0.013 A 
ATOM      3  C   UNL     1       8.689  -1.143  26.444  0.00  0.00    +0.047 C 
ATOM      4  C   UNL     1       8.183  -2.485  24.309  0.00  0.00    +0.044 A 
ATOM      5  N   UNL     1       8.499  -2.362  22.980  0.00  0.00    -0.358 N 
ATOM      6  H   UNL     1       8.178  -2.981  22.240  0.00  0.00    +0.166 HD
ATOM      7  C   UNL     1       9.291  -1.255  22.779  0.00  0.00    +0.026 A 
ATOM      8  C   UNL     1       9.755  -0.907  21.408  0.00  0.00    +0.064 C 
ENDROOT
BRANCH   4   9
ATOM      9  C   UNL     1       7.342  -3.512  24.808  0.00  0.00    +0.039 C 
ATOM     10  C   UNL     1       6.177  -3.989  24.358  0.00  0.00    +0.048 C 
ATOM     11  C   UNL     1       5.467  -5.064  25.075  0.00  0.00    +0.011 A 
ATOM     12  C   UNL     1       5.743  -5.761  26.241  0.00  0.00    +0.048 A 
ATOM     13  C   UNL     1       4.838  -6.737  26.641  0.00  0.00    +0.124 A 
ATOM     14  C   UNL     1       3.683  -7.016  25.899  0.00  0.00    +0.040 A 
ATOM     15  C   UNL     1       3.403  -6.305  24.725  0.00  0.00    +0.027 A 
ATOM     16  F   UNL     1       5.081  -7.427  27.763  0.00  0.00    -0.205 F 
ATOM     17  C   UNL     1       4.312  -5.336  24.340  0.00  0.00    +0.042 A 
ATOM     18  N   UNL     1       4.244  -4.504  23.224  0.00  0.00    -0.281 N 
ATOM     19  H   UNL     1       3.502  -4.501  22.539  0.00  0.00    +0.155 HD
ATOM     20  C   UNL     1       5.337  -3.647  23.156  0.00  0.00    +0.249 C 
ATOM     21  O   UNL     1       5.555  -2.811  22.305  0.00  0.00    -0.270 OA
ENDBRANCH   4   9
BRANCH   1  24
ATOM     22  N   UNL     1       9.614   1.737  23.680  0.00  0.00    -0.310 N 
ATOM     23  H   UNL     1       8.615   1.705  23.518  0.00  0.00    +0.149 HD
ATOM     24  C   UNL     1      10.223   0.621  24.212  0.00  0.00    +0.246 C 
ATOM     25  O   UNL     1      11.293   0.680  24.813  0.00  0.00    -0.270 OA
BRANCH  22  26
ATOM     26  C   UNL     1      10.235   3.037  23.811  0.00  0.00    +0.120 C 
BRANCH  26  27
ATOM     27  C   UNL     1       9.217   4.190  23.905  0.00  0.00    +0.103 C 
BRANCH  27  28
ATOM     28  N   UNL     1       9.806   5.543  24.061  0.00  0.00    -0.301 NA
BRANCH  28  30
ATOM     29  C   UNL     1      12.146   6.371  24.541  0.00  0.00    +0.020 C 
ATOM     30  C   UNL     1      11.219   5.564  23.638  0.00  0.00    +0.081 C 
ENDBRANCH  28  30
BRANCH  28  31
ATOM     31  C   UNL     1       8.973   6.563  23.393  0.00  0.00    +0.081 C 
ATOM     32  C   UNL     1       7.818   6.051  22.532  0.00  0.00    +0.020 C 
ENDBRANCH  28  31
ENDBRANCH  27  28
ENDBRANCH  26  27
ENDBRANCH  22  26
ENDBRANCH   1  24
TORSDOF 7
ENDMDL
MODEL 5
REMARK VINA RESULT:      -6.5      3.507      9.868
REMARK  Name = 
REMARK  11 active torsions:
REMARK  status: ('A' for Active; 'I' for Inactive)
REMARK    1  A    between atoms: C_1  and  C_2
REMARK    2  A    between atoms: C_2  and  N_3
REMARK    3  A    between atoms: N_3  and  C_4
REMARK    4  A    between atoms: N_3  and  C_6
REMARK    5  A    between atoms: C_4  and  C_5
REMARK    6  A    between atoms: C_6  and  C_7
REMARK    7  A    between atoms: C_7  and  N_8
REMARK    8  A    between atoms: C_9  and  C_11
REMARK    9  A    between atoms: C_12  and  C_13
REMARK   10  A    between atoms: C_15  and  C_16
REMARK   11  A    between atoms: C_28  and  C_29
REMARK                            x       y       z     vdW  Elec       q    Type
REMARK                         _______ _______ _______ _____ _____    ______ ____
ROOT
ATOM      1  C   UNL     1       8.577  -0.756  23.847  0.00  0.00    +0.060 A 
ATOM      2  C   UNL     1       7.476  -1.508  24.394  0.00  0.00    -0.013 A 
ATOM      3  C   UNL     1       6.788  -1.243  25.694  0.00  0.00    +0.047 C 
ATOM      4  C   UNL     1       7.124  -2.480  23.464  0.00  0.00    +0.044 A 
ATOM      5  N   UNL     1       7.976  -2.354  22.397  0.00  0.00    -0.358 N 
ATOM      6  H   UNL     1       7.949  -2.922  21.553  0.00  0.00    +0.166 HD
ATOM      7  C   UNL     1       8.858  -1.321  22.609  0.00  0.00    +0.026 A 
ATOM      8  C   UNL     1       9.878  -0.985  21.579  0.00  0.00    +0.064 C 
ENDROOT
BRANCH   4   9
ATOM      9  C   UNL     1       6.078  -3.437  23.506  0.00  0.00    +0.039 C 
ATOM     10  C   UNL     1       5.892  -4.501  24.295  0.00  0.00    +0.048 C 
ATOM     11  C   UNL     1       4.717  -5.376  24.127  0.00  0.00    +0.011 A 
ATOM     12  C   UNL     1       3.655  -5.365  23.237  0.00  0.00    +0.048 A 
ATOM     13  C   UNL     1       2.695  -6.364  23.363  0.00  0.00    +0.124 A 
ATOM     14  C   UNL     1       2.789  -7.351  24.353  0.00  0.00    +0.040 A 
ATOM     15  C   UNL     1       3.868  -7.362  25.245  0.00  0.00    +0.027 A 
ATOM     16  F   UNL     1       1.657  -6.377  22.518  0.00  0.00    -0.205 F 
ATOM     17  C   UNL     1       4.816  -6.364  25.107  0.00  0.00    +0.042 A 
ATOM     18  N   UNL     1       5.969  -6.177  25.867  0.00  0.00    -0.281 N 
ATOM     19  H   UNL     1       6.268  -6.762  26.633  0.00  0.00    +0.155 HD
ATOM     20  C   UNL     1       6.689  -5.066  25.440  0.00  0.00    +0.249 C 
ATOM     21  O   UNL     1       7.731  -4.652  25.902  0.00  0.00    -0.270 OA
ENDBRANCH   4   9
BRANCH   1  24
ATOM     22  N   UNL     1       8.809   1.633  23.907  0.00  0.00    -0.310 N 
ATOM     23  H   UNL     1       7.887   1.674  23.491  0.00  0.00    +0.149 HD
ATOM     24  C   UNL     1       9.241   0.424  24.411  0.00  0.00    +0.246 C 
ATOM     25  O   UNL     1      10.118   0.347  25.269  0.00  0.00    -0.270 OA
BRANCH  22  26
ATOM     26  C   UNL     1       9.392   2.870  24.379  0.00  0.00    +0.120 C 
BRANCH  26  27
ATOM     27  C   UNL     1      10.532   3.385  23.480  0.00  0.00    +0.103 C 
BRANCH  27  28
ATOM     28  N   UNL     1      10.704   4.859  23.459  0.00  0.00    -0.301 NA
BRANCH  28  30
ATOM     29  C   UNL     1      10.336   6.727  25.123  0.00  0.00    +0.020 C 
ATOM     30  C   UNL     1       9.765   5.521  24.385  0.00  0.00    +0.081 C 
ENDBRANCH  28  30
BRANCH  28  31
ATOM     31  C   UNL     1      12.115   5.231  23.682  0.00  0.00    +0.081 C 
ATOM     32  C   UNL     1      12.980   5.424  22.437  0.00  0.00    +0.020 C 
ENDBRANCH  28  31
ENDBRANCH  27  28
ENDBRANCH  26  27
ENDBRANCH  22  26
ENDBRANCH   1  24
TORSDOF 7
ENDMDL
MODEL 6
REMARK VINA RESULT:      -6.5      2.414      4.496
REMARK  Name = 
REMARK  11 active torsions:
REMARK  status: ('A' for Active; 'I' for Inactive)
REMARK    1  A    between atoms: C_1  and  C_2
REMARK    2  A    between atoms: C_2  and  N_3
REMARK    3  A    between atoms: N_3  and  C_4
REMARK    4  A    between atoms: N_3  and  C_6
REMARK    5  A    between atoms: C_4  and  C_5
REMARK    6  A    between atoms: C_6  and  C_7
REMARK    7  A    between atoms: C_7  and  N_8
REMARK    8  A    between atoms: C_9  and  C_11
REMARK    9  A    between atoms: C_12  and  C_13
REMARK   10  A    between atoms: C_15  and  C_16
REMARK   11  A    between atoms: C_28  and  C_29
REMARK                            x       y       z     vdW  Elec       q    Type
REMARK                         _______ _______ _______ _____ _____    ______ ____
ROOT
ATOM      1  C   UNL     1       5.330  -4.400  23.084  0.00  0.00    +0.060 A 
ATOM      2  C   UNL     1       5.544  -3.072  23.599  0.00  0.00    -0.013 A 
ATOM      3  C   UNL     1       4.874  -2.471  24.792  0.00  0.00    +0.047 C 
ATOM      4  C   UNL     1       6.536  -2.474  22.829  0.00  0.00    +0.044 A 
ATOM      5  N   UNL     1       6.909  -3.378  21.867  0.00  0.00    -0.358 N 
ATOM      6  H   UNL     1       7.630  -3.226  21.166  0.00  0.00    +0.166 HD
ATOM      7  C   UNL     1       6.194  -4.544  22.004  0.00  0.00    +0.026 A 
ATOM      8  C   UNL     1       6.433  -5.683  21.076  0.00  0.00    +0.064 C 
ENDROOT
BRANCH   4   9
ATOM      9  C   UNL     1       7.136  -1.196  22.958  0.00  0.00    +0.039 C 
ATOM     10  C   UNL     1       8.376  -0.840  23.312  0.00  0.00    +0.048 C 
ATOM     11  C   UNL     1       8.764   0.580  23.400  0.00  0.00    +0.011 A 
ATOM     12  C   UNL     1       8.067   1.760  23.197  0.00  0.00    +0.048 A 
ATOM     13  C   UNL     1       8.757   2.956  23.368  0.00  0.00    +0.124 A 
ATOM     14  C   UNL     1      10.110   2.977  23.732  0.00  0.00    +0.040 A 
ATOM     15  C   UNL     1      10.808   1.782  23.943  0.00  0.00    +0.027 A 
ATOM     16  F   UNL     1       8.109   4.111  23.176  0.00  0.00    -0.205 F 
ATOM     17  C   UNL     1      10.108   0.601  23.771  0.00  0.00    +0.042 A 
ATOM     18  N   UNL     1      10.586  -0.699  23.931  0.00  0.00    -0.281 N 
ATOM     19  H   UNL     1      11.525  -0.950  24.202  0.00  0.00    +0.155 HD
ATOM     20  C   UNL     1       9.597  -1.643  23.676  0.00  0.00    +0.249 C 
ATOM     21  O   UNL     1       9.708  -2.848  23.734  0.00  0.00    -0.270 OA
ENDBRANCH   4   9
BRANCH   1  24
ATOM     22  N   UNL     1       4.946  -6.134  24.700  0.00  0.00    -0.310 N 
ATOM     23  H   UNL     1       5.654  -5.682  25.265  0.00  0.00    +0.149 HD
ATOM     24  C   UNL     1       4.449  -5.449  23.611  0.00  0.00    +0.246 C 
ATOM     25  O   UNL     1       3.350  -5.702  23.122  0.00  0.00    -0.270 OA
BRANCH  22  26
ATOM     26  C   UNL     1       4.174  -7.197  25.306  0.00  0.00    +0.120 C 
BRANCH  26  27
ATOM     27  C   UNL     1       3.457  -6.764  26.599  0.00  0.00    +0.103 C 
BRANCH  27  28
ATOM     28  N   UNL     1       3.716  -5.368  27.030  0.00  0.00    -0.301 NA
BRANCH  28  30
ATOM     29  C   UNL     1       1.734  -4.202  25.978  0.00  0.00    +0.020 C 
ATOM     30  C   UNL     1       2.455  -4.634  27.250  0.00  0.00    +0.081 C 
ENDBRANCH  28  30
BRANCH  28  31
ATOM     31  C   UNL     1       4.631  -5.331  28.187  0.00  0.00    +0.081 C 
ATOM     32  C   UNL     1       6.100  -5.030  27.892  0.00  0.00    +0.020 C 
ENDBRANCH  28  31
ENDBRANCH  27  28
ENDBRANCH  26  27
ENDBRANCH  22  26
ENDBRANCH   1  24
TORSDOF 7
ENDMDL
MODEL 7
REMARK VINA RESULT:      -6.4      3.707      9.558
REMARK  Name = 
REMARK  11 active torsions:
REMARK  status: ('A' for Active; 'I' for Inactive)
REMARK    1  A    between atoms: C_1  and  C_2
REMARK    2  A    between atoms: C_2  and  N_3
REMARK    3  A    between atoms: N_3  and  C_4
REMARK    4  A    between atoms: N_3  and  C_6
REMARK    5  A    between atoms: C_4  and  C_5
REMARK    6  A    between atoms: C_6  and  C_7
REMARK    7  A    between atoms: C_7  and  N_8
REMARK    8  A    between atoms: C_9  and  C_11
REMARK    9  A    between atoms: C_12  and  C_13
REMARK   10  A    between atoms: C_15  and  C_16
REMARK   11  A    between atoms: C_28  and  C_29
REMARK                            x       y       z     vdW  Elec       q    Type
REMARK                         _______ _______ _______ _____ _____    ______ ____
ROOT
ATOM      1  C   UNL     1       9.247  -0.549  24.392  0.00  0.00    +0.060 A 
ATOM      2  C   UNL     1       8.353  -1.037  25.411  0.00  0.00    -0.013 A 
ATOM      3  C   UNL     1       8.079  -0.387  26.728  0.00  0.00    +0.047 C 
ATOM      4  C   UNL     1       7.740  -2.185  24.921  0.00  0.00    +0.044 A 
ATOM      5  N   UNL     1       8.240  -2.414  23.665  0.00  0.00    -0.358 N 
ATOM      6  H   UNL     1       7.964  -3.177  23.052  0.00  0.00    +0.166 HD
ATOM      7  C   UNL     1       9.150  -1.438  23.329  0.00  0.00    +0.026 A 
ATOM      8  C   UNL     1       9.823  -1.468  22.001  0.00  0.00    +0.064 C 
ENDROOT
BRANCH   4   9
ATOM      9  C   UNL     1       6.749  -3.007  25.516  0.00  0.00    +0.039 C 
ATOM     10  C   UNL     1       6.856  -4.117  26.255  0.00  0.00    +0.048 C 
ATOM     11  C   UNL     1       5.658  -4.821  26.748  0.00  0.00    +0.011 A 
ATOM     12  C   UNL     1       4.300  -4.589  26.596  0.00  0.00    +0.048 A 
ATOM     13  C   UNL     1       3.420  -5.471  27.212  0.00  0.00    +0.124 A 
ATOM     14  C   UNL     1       3.880  -6.561  27.965  0.00  0.00    +0.040 A 
ATOM     15  C   UNL     1       5.252  -6.795  28.110  0.00  0.00    +0.027 A 
ATOM     16  F   UNL     1       2.103  -5.270  27.084  0.00  0.00    -0.205 F 
ATOM     17  C   UNL     1       6.116  -5.910  27.489  0.00  0.00    +0.042 A 
ATOM     18  N   UNL     1       7.510  -5.944  27.487  0.00  0.00    -0.281 N 
ATOM     19  H   UNL     1       8.080  -6.638  27.947  0.00  0.00    +0.155 HD
ATOM     20  C   UNL     1       8.046  -4.891  26.755  0.00  0.00    +0.249 C 
ATOM     21  O   UNL     1       9.221  -4.656  26.571  0.00  0.00    -0.270 OA
ENDBRANCH   4   9
BRANCH   1  24
ATOM     22  N   UNL     1       9.433   1.785  23.859  0.00  0.00    -0.310 N 
ATOM     23  H   UNL     1       8.421   1.797  23.826  0.00  0.00    +0.149 HD
ATOM     24  C   UNL     1      10.052   0.678  24.400  0.00  0.00    +0.246 C 
ATOM     25  O   UNL     1      11.193   0.721  24.856  0.00  0.00    -0.270 OA
BRANCH  22  26
ATOM     26  C   UNL     1      10.127   3.053  23.803  0.00  0.00    +0.120 C 
BRANCH  26  27
ATOM     27  C   UNL     1       9.288   4.228  24.341  0.00  0.00    +0.103 C 
BRANCH  27  28
ATOM     28  N   UNL     1       9.012   5.309  23.362  0.00  0.00    -0.301 NA
BRANCH  28  30
ATOM     29  C   UNL     1       7.267   6.263  21.802  0.00  0.00    +0.020 C 
ATOM     30  C   UNL     1       7.603   5.291  22.927  0.00  0.00    +0.081 C 
ENDBRANCH  28  30
BRANCH  28  31
ATOM     31  C   UNL     1       9.454   6.618  23.881  0.00  0.00    +0.081 C 
ATOM     32  C   UNL     1      10.288   6.604  25.162  0.00  0.00    +0.020 C 
ENDBRANCH  28  31
ENDBRANCH  27  28
ENDBRANCH  26  27
ENDBRANCH  22  26
ENDBRANCH   1  24
TORSDOF 7
ENDMDL
MODEL 8
REMARK VINA RESULT:      -6.4      2.204      3.057
REMARK  Name = 
REMARK  11 active torsions:
REMARK  status: ('A' for Active; 'I' for Inactive)
REMARK    1  A    between atoms: C_1  and  C_2
REMARK    2  A    between atoms: C_2  and  N_3
REMARK    3  A    between atoms: N_3  and  C_4
REMARK    4  A    between atoms: N_3  and  C_6
REMARK    5  A    between atoms: C_4  and  C_5
REMARK    6  A    between atoms: C_6  and  C_7
REMARK    7  A    between atoms: C_7  and  N_8
REMARK    8  A    between atoms: C_9  and  C_11
REMARK    9  A    between atoms: C_12  and  C_13
REMARK   10  A    between atoms: C_15  and  C_16
REMARK   11  A    between atoms: C_28  and  C_29
REMARK                            x       y       z     vdW  Elec       q    Type
REMARK                         _______ _______ _______ _____ _____    ______ ____
ROOT
ATOM      1  C   UNL     1       7.961  -2.096  24.792  0.00  0.00    +0.060 A 
ATOM      2  C   UNL     1       8.163  -0.859  25.501  0.00  0.00    -0.013 A 
ATOM      3  C   UNL     1       8.486  -0.718  26.954  0.00  0.00    +0.047 C 
ATOM      4  C   UNL     1       8.070   0.178  24.579  0.00  0.00    +0.044 A 
ATOM      5  N   UNL     1       7.805  -0.383  23.356  0.00  0.00    -0.358 N 
ATOM      6  H   UNL     1       7.699   0.130  22.485  0.00  0.00    +0.166 HD
ATOM      7  C   UNL     1       7.735  -1.753  23.464  0.00  0.00    +0.026 A 
ATOM      8  C   UNL     1       7.467  -2.585  22.260  0.00  0.00    +0.064 C 
ENDROOT
BRANCH   4   9
ATOM      9  C   UNL     1       8.239   1.573  24.765  0.00  0.00    +0.039 C 
ATOM     10  C   UNL     1       9.063   2.445  24.172  0.00  0.00    +0.048 C 
ATOM     11  C   UNL     1       9.072   3.867  24.560  0.00  0.00    +0.011 A 
ATOM     12  C   UNL     1       8.363   4.590  25.507  0.00  0.00    +0.048 A 
ATOM     13  C   UNL     1       8.624   5.952  25.610  0.00  0.00    +0.124 A 
ATOM     14  C   UNL     1       9.568   6.582  24.788  0.00  0.00    +0.040 A 
ATOM     15  C   UNL     1      10.286   5.848  23.838  0.00  0.00    +0.027 A 
ATOM     16  F   UNL     1       7.953   6.674  26.515  0.00  0.00    -0.205 F 
ATOM     17  C   UNL     1      10.018   4.493  23.748  0.00  0.00    +0.042 A 
ATOM     18  N   UNL     1      10.607   3.566  22.890  0.00  0.00    -0.281 N 
ATOM     19  H   UNL     1      11.325   3.769  22.210  0.00  0.00    +0.155 HD
ATOM     20  C   UNL     1      10.088   2.290  23.082  0.00  0.00    +0.249 C 
ATOM     21  O   UNL     1      10.402   1.280  22.489  0.00  0.00    -0.270 OA
ENDBRANCH   4   9
BRANCH   1  24
ATOM     22  N   UNL     1       6.863  -3.992  25.775  0.00  0.00    -0.310 N 
ATOM     23  H   UNL     1       5.998  -3.595  25.429  0.00  0.00    +0.149 HD
ATOM     24  C   UNL     1       8.050  -3.467  25.310  0.00  0.00    +0.246 C 
ATOM     25  O   UNL     1       9.101  -4.103  25.328  0.00  0.00    -0.270 OA
BRANCH  22  26
ATOM     26  C   UNL     1       6.822  -5.333  26.316  0.00  0.00    +0.120 C 
BRANCH  26  27
ATOM     27  C   UNL     1       5.586  -6.133  25.864  0.00  0.00    +0.103 C 
BRANCH  27  28
ATOM     28  N   UNL     1       4.729  -5.458  24.857  0.00  0.00    -0.301 NA
BRANCH  28  30
ATOM     29  C   UNL     1       5.934  -5.982  22.697  0.00  0.00    +0.020 C 
ATOM     30  C   UNL     1       4.713  -6.203  23.583  0.00  0.00    +0.081 C 
ENDBRANCH  28  30
BRANCH  28  31
ATOM     31  C   UNL     1       3.383  -5.189  25.402  0.00  0.00    +0.081 C 
ATOM     32  C   UNL     1       2.297  -4.809  24.396  0.00  0.00    +0.020 C 
ENDBRANCH  28  31
ENDBRANCH  27  28
ENDBRANCH  26  27
ENDBRANCH  22  26
ENDBRANCH   1  24
TORSDOF 7
ENDMDL
MODEL 9
REMARK VINA RESULT:      -6.3      3.514      9.110
REMARK  Name = 
REMARK  11 active torsions:
REMARK  status: ('A' for Active; 'I' for Inactive)
REMARK    1  A    between atoms: C_1  and  C_2
REMARK    2  A    between atoms: C_2  and  N_3
REMARK    3  A    between atoms: N_3  and  C_4
REMARK    4  A    between atoms: N_3  and  C_6
REMARK    5  A    between atoms: C_4  and  C_5
REMARK    6  A    between atoms: C_6  and  C_7
REMARK    7  A    between atoms: C_7  and  N_8
REMARK    8  A    between atoms: C_9  and  C_11
REMARK    9  A    between atoms: C_12  and  C_13
REMARK   10  A    between atoms: C_15  and  C_16
REMARK   11  A    between atoms: C_28  and  C_29
REMARK                            x       y       z     vdW  Elec       q    Type
REMARK                         _______ _______ _______ _____ _____    ______ ____
ROOT
ATOM      1  C   UNL     1       9.295  -0.489  23.918  0.00  0.00    +0.060 A 
ATOM      2  C   UNL     1       8.656  -1.342  24.887  0.00  0.00    -0.013 A 
ATOM      3  C   UNL     1       8.591  -1.106  26.362  0.00  0.00    +0.047 C 
ATOM      4  C   UNL     1       8.054  -2.389  24.199  0.00  0.00    +0.044 A 
ATOM      5  N   UNL     1       8.318  -2.209  22.865  0.00  0.00    -0.358 N 
ATOM      6  H   UNL     1       7.991  -2.812  22.114  0.00  0.00    +0.166 HD
ATOM      7  C   UNL     1       9.065  -1.069  22.676  0.00  0.00    +0.026 A 
ATOM      8  C   UNL     1       9.469  -0.658  21.304  0.00  0.00    +0.064 C 
ENDROOT
BRANCH   4   9
ATOM      9  C   UNL     1       7.266  -3.461  24.688  0.00  0.00    +0.039 C 
ATOM     10  C   UNL     1       6.155  -4.027  24.204  0.00  0.00    +0.048 C 
ATOM     11  C   UNL     1       5.491  -5.133  24.919  0.00  0.00    +0.011 A 
ATOM     12  C   UNL     1       5.767  -5.783  26.111  0.00  0.00    +0.048 A 
ATOM     13  C   UNL     1       4.915  -6.811  26.499  0.00  0.00    +0.124 A 
ATOM     14  C   UNL     1       3.813  -7.186  25.718  0.00  0.00    +0.040 A 
ATOM     15  C   UNL     1       3.534  -6.522  24.518  0.00  0.00    +0.027 A 
ATOM     16  F   UNL     1       5.158  -7.458  27.646  0.00  0.00    -0.205 F 
ATOM     17  C   UNL     1       4.390  -5.500  24.146  0.00  0.00    +0.042 A 
ATOM     18  N   UNL     1       4.310  -4.699  23.007  0.00  0.00    -0.281 N 
ATOM     19  H   UNL     1       3.599  -4.762  22.294  0.00  0.00    +0.155 HD
ATOM     20  C   UNL     1       5.344  -3.770  22.962  0.00  0.00    +0.249 C 
ATOM     21  O   UNL     1       5.540  -2.940  22.101  0.00  0.00    -0.270 OA
ENDBRANCH   4   9
BRANCH   1  24
ATOM     22  N   UNL     1       9.256   1.910  23.816  0.00  0.00    -0.310 N 
ATOM     23  H   UNL     1       8.247   1.834  23.794  0.00  0.00    +0.149 HD
ATOM     24  C   UNL     1       9.986   0.786  24.143  0.00  0.00    +0.246 C 
ATOM     25  O   UNL     1      11.128   0.853  24.590  0.00  0.00    -0.270 OA
BRANCH  22  26
ATOM     26  C   UNL     1       9.831   3.226  23.987  0.00  0.00    +0.120 C 
BRANCH  26  27
ATOM     27  C   UNL     1       8.776   4.324  24.221  0.00  0.00    +0.103 C 
BRANCH  27  28
ATOM     28  N   UNL     1       7.462   4.087  23.572  0.00  0.00    -0.301 NA
BRANCH  28  30
ATOM     29  C   UNL     1       5.588   3.107  24.959  0.00  0.00    +0.020 C 
ATOM     30  C   UNL     1       6.350   4.348  24.506  0.00  0.00    +0.081 C 
ENDBRANCH  28  30
BRANCH  28  31
ATOM     31  C   UNL     1       7.356   4.832  22.303  0.00  0.00    +0.081 C 
ATOM     32  C   UNL     1       7.764   6.305  22.333  0.00  0.00    +0.020 C 
ENDBRANCH  28  31
ENDBRANCH  27  28
ENDBRANCH  26  27
ENDBRANCH  22  26
ENDBRANCH   1  24
TORSDOF 7
ENDMDL
