MODEL 1
REMARK VINA RESULT:      -7.8      0.000      0.000
REMARK  Name = 
REMARK  10 active torsions:
REMARK  status: ('A' for Active; 'I' for Inactive)
REMARK    1  A    between atoms: C_5  and  O_6
REMARK    2  A    between atoms: N_14  and  C_15
REMARK    3  A    between atoms: C_22  and  O_23
REMARK    4  A    between atoms: O_23  and  C_24
REMARK    5  A    between atoms: C_25  and  C_28
REMARK    6  A    between atoms: C_28  and  C_29
REMARK    7  A    between atoms: C_28  and  O_30
REMARK    8  A    between atoms: C_28  and  C_31
REMARK    9  A    between atoms: C_31  and  C_32
REMARK   10  A    between atoms: C_32  and  C_33
REMARK                            x       y       z     vdW  Elec       q    Type
REMARK                         _______ _______ _______ _____ _____    ______ ____
ROOT
ATOM      1  C   UNL     1       6.990  -0.693  24.987  0.00  0.00    +0.217 C 
ATOM      2  C   UNL     1       6.734  -2.179  24.412  0.00  0.00    +0.112 C 
ATOM      3  C   UNL     1       8.078  -3.000  24.746  0.00  0.00    +0.057 C 
ATOM      4  C   UNL     1       9.343  -2.295  24.067  0.00  0.00    +0.018 C 
ATOM      5  C   UNL     1       8.919  -1.026  23.297  0.00  0.00    +0.000 C 
ATOM      6  C   UNL     1       7.874  -1.610  22.241  0.00  0.00    +0.012 C 
ATOM      7  C   UNL     1      10.037   0.024  22.679  0.00  0.00    +0.068 C 
ATOM      8  C   UNL     1       9.364   0.865  21.595  0.00  0.00    +0.055 C 
ATOM      9  C   UNL     1       8.138   1.471  22.234  0.00  0.00    -0.038 A 
ATOM     10  C   UNL     1       7.648   0.959  23.477  0.00  0.00    +0.012 A 
ATOM     11  C   UNL     1       6.381   1.233  23.868  0.00  0.00    +0.166 A 
ATOM     12  C   UNL     1       5.680   2.265  23.228  0.00  0.00    +0.159 A 
ATOM     13  C   UNL     1       6.239   2.918  22.119  0.00  0.00    +0.049 A 
ATOM     14  C   UNL     1       7.439   2.481  21.576  0.00  0.00    +0.008 A 
ATOM     15  N   UNL     1      10.741   1.021  23.621  0.00  0.00    -0.302 NA
ATOM     16  C   UNL     1      10.179   2.378  23.937  0.00  0.00    +0.105 C 
ATOM     17  C   UNL     1      10.876   0.370  24.901  0.00  0.00    +0.085 C 
ATOM     18  C   UNL     1       9.441   0.124  25.466  0.00  0.00    +0.031 C 
ATOM     19  C   UNL     1       6.570  -2.087  22.896  0.00  0.00    +0.040 C 
ATOM     20  C   UNL     1       8.278  -0.127  24.338  0.00  0.00    +0.047 C 
ATOM     21  O   UNL     1       5.905   0.311  24.768  0.00  0.00    -0.481 OA
ENDROOT
BRANCH   3  22
ATOM     22  C   UNL     1       8.332  -4.562  24.683  0.00  0.00    +0.069 C 
ATOM     23  C   UNL     1       7.902  -5.379  25.910  0.00  0.00    +0.041 C 
BRANCH  22  24
ATOM     24  O   UNL     1       9.790  -4.601  24.713  0.00  0.00    -0.388 OA
ATOM     25  H   UNL     1      10.090  -4.683  25.630  0.00  0.00    +0.210 HD
ENDBRANCH  22  24
BRANCH  22  26
ATOM     26  C   UNL     1       7.894  -5.274  23.366  0.00  0.00    +0.034 C 
BRANCH  26  27
ATOM     27  C   UNL     1       6.407  -5.692  23.318  0.00  0.00    -0.001 C 
ATOM     28  C   UNL     1       5.853  -5.698  21.900  0.00  0.00    +0.004 C 
ENDBRANCH  26  27
ENDBRANCH  22  26
ENDBRANCH   3  22
BRANCH  12  29
ATOM     29  O   UNL     1       4.449   2.678  23.623  0.00  0.00    -0.503 OA
ATOM     30  H   UNL     1       4.550   3.593  23.859  0.00  0.00    +0.292 HD
ENDBRANCH  12  29
BRANCH   2  31
ATOM     31  O   UNL     1       5.610  -2.821  25.038  0.00  0.00    -0.373 OA
ATOM     32  C   UNL     1       5.472  -2.676  26.456  0.00  0.00    +0.194 C 
ENDBRANCH   2  31
TORSDOF 6
ENDMDL
MODEL 2
REMARK VINA RESULT:      -7.4      2.112      6.177
REMARK  Name = 
REMARK  10 active torsions:
REMARK  status: ('A' for Active; 'I' for Inactive)
REMARK    1  A    between atoms: C_5  and  O_6
REMARK    2  A    between atoms: N_14  and  C_15
REMARK    3  A    between atoms: C_22  and  O_23
REMARK    4  A    between atoms: O_23  and  C_24
REMARK    5  A    between atoms: C_25  and  C_28
REMARK    6  A    between atoms: C_28  and  C_29
REMARK    7  A    between atoms: C_28  and  O_30
REMARK    8  A    between atoms: C_28  and  C_31
REMARK    9  A    between atoms: C_31  and  C_32
REMARK   10  A    between atoms: C_32  and  C_33
REMARK                            x       y       z     vdW  Elec       q    Type
REMARK                         _______ _______ _______ _____ _____    ______ ____
ROOT
ATOM      1  C   UNL     1       6.092  -1.415  24.443  0.00  0.00    +0.217 C 
ATOM      2  C   UNL     1       7.383  -0.448  24.399  0.00  0.00    +0.112 C 
ATOM      3  C   UNL     1       7.903  -0.502  22.876  0.00  0.00    +0.057 C 
ATOM      4  C   UNL     1       8.257  -2.006  22.464  0.00  0.00    +0.018 C 
ATOM      5  C   UNL     1       7.989  -2.976  23.633  0.00  0.00    +0.000 C 
ATOM      6  C   UNL     1       8.938  -2.391  24.776  0.00  0.00    +0.012 C 
ATOM      7  C   UNL     1       8.057  -4.616  23.430  0.00  0.00    +0.068 C 
ATOM      8  C   UNL     1       8.239  -5.267  24.800  0.00  0.00    +0.055 C 
ATOM      9  C   UNL     1       7.127  -4.732  25.670  0.00  0.00    -0.038 A 
ATOM     10  C   UNL     1       6.383  -3.581  25.259  0.00  0.00    +0.012 A 
ATOM     11  C   UNL     1       5.656  -2.888  26.167  0.00  0.00    +0.166 A 
ATOM     12  C   UNL     1       5.376  -3.479  27.407  0.00  0.00    +0.159 A 
ATOM     13  C   UNL     1       5.945  -4.714  27.747  0.00  0.00    +0.049 A 
ATOM     14  C   UNL     1       6.874  -5.315  26.910  0.00  0.00    +0.008 A 
ATOM     15  N   UNL     1       6.873  -5.345  22.761  0.00  0.00    -0.302 NA
ATOM     16  C   UNL     1       5.691  -5.856  23.534  0.00  0.00    +0.105 C 
ATOM     17  C   UNL     1       6.315  -4.439  21.788  0.00  0.00    +0.085 C 
ATOM     18  C   UNL     1       5.735  -3.209  22.556  0.00  0.00    +0.031 C 
ATOM     19  C   UNL     1       8.456  -1.036  25.313  0.00  0.00    +0.040 C 
ATOM     20  C   UNL     1       6.513  -2.822  23.946  0.00  0.00    +0.047 C 
ATOM     21  O   UNL     1       5.427  -1.593  25.768  0.00  0.00    -0.481 OA
ENDROOT
BRANCH   3  22
ATOM     22  C   UNL     1       8.952   0.435  22.150  0.00  0.00    +0.069 C 
ATOM     23  C   UNL     1       8.385   1.637  21.380  0.00  0.00    +0.041 C 
BRANCH  22  24
ATOM     24  O   UNL     1       9.443  -0.463  21.110  0.00  0.00    -0.388 OA
ATOM     25  H   UNL     1       9.775  -1.276  21.519  0.00  0.00    +0.210 HD
ENDBRANCH  22  24
BRANCH  22  26
ATOM     26  C   UNL     1      10.193   0.858  22.995  0.00  0.00    +0.034 C 
BRANCH  26  27
ATOM     27  C   UNL     1      10.015   2.167  23.799  0.00  0.00    -0.001 C 
ATOM     28  C   UNL     1      10.988   3.252  23.360  0.00  0.00    +0.004 C 
ENDBRANCH  26  27
ENDBRANCH  22  26
ENDBRANCH   3  22
BRANCH  12  29
ATOM     29  O   UNL     1       4.568  -2.903  28.334  0.00  0.00    -0.503 OA
ATOM     30  H   UNL     1       3.917  -3.561  28.550  0.00  0.00    +0.292 HD
ENDBRANCH  12  29
BRANCH   2  31
ATOM     31  O   UNL     1       7.062   0.909  24.750  0.00  0.00    -0.373 OA
ATOM     32  C   UNL     1       5.906   1.494  24.137  0.00  0.00    +0.194 C 
ENDBRANCH   2  31
TORSDOF 6
ENDMDL
MODEL 3
REMARK VINA RESULT:      -7.3      2.897      4.856
REMARK  Name = 
REMARK  10 active torsions:
REMARK  status: ('A' for Active; 'I' for Inactive)
REMARK    1  A    between atoms: C_5  and  O_6
REMARK    2  A    between atoms: N_14  and  C_15
REMARK    3  A    between atoms: C_22  and  O_23
REMARK    4  A    between atoms: O_23  and  C_24
REMARK    5  A    between atoms: C_25  and  C_28
REMARK    6  A    between atoms: C_28  and  C_29
REMARK    7  A    between atoms: C_28  and  O_30
REMARK    8  A    between atoms: C_28  and  C_31
REMARK    9  A    between atoms: C_31  and  C_32
REMARK   10  A    between atoms: C_32  and  C_33
REMARK                            x       y       z     vdW  Elec       q    Type
REMARK                         _______ _______ _______ _____ _____    ______ ____
ROOT
ATOM      1  C   UNL     1       5.842  -3.125  22.973  0.00  0.00    +0.217 C 
ATOM      2  C   UNL     1       5.766  -4.737  22.981  0.00  0.00    +0.112 C 
ATOM      3  C   UNL     1       4.709  -5.105  24.139  0.00  0.00    +0.057 C 
ATOM      4  C   UNL     1       5.193  -4.512  25.543  0.00  0.00    +0.018 C 
ATOM      5  C   UNL     1       6.525  -3.748  25.389  0.00  0.00    +0.000 C 
ATOM      6  C   UNL     1       7.493  -4.877  24.808  0.00  0.00    +0.012 C 
ATOM      7  C   UNL     1       7.153  -2.846  26.624  0.00  0.00    +0.068 C 
ATOM      8  C   UNL     1       8.643  -2.636  26.362  0.00  0.00    +0.055 C 
ATOM      9  C   UNL     1       8.747  -2.056  24.972  0.00  0.00    -0.038 A 
ATOM     10  C   UNL     1       7.628  -2.114  24.083  0.00  0.00    +0.012 A 
ATOM     11  C   UNL     1       7.812  -1.940  22.753  0.00  0.00    +0.166 A 
ATOM     12  C   UNL     1       9.018  -1.387  22.300  0.00  0.00    +0.159 A 
ATOM     13  C   UNL     1      10.063  -1.136  23.202  0.00  0.00    +0.049 A 
ATOM     14  C   UNL     1       9.959  -1.530  24.527  0.00  0.00    +0.008 A 
ATOM     15  N   UNL     1       6.566  -1.449  26.916  0.00  0.00    -0.302 NA
ATOM     16  C   UNL     1       7.062  -0.202  26.239  0.00  0.00    +0.105 C 
ATOM     17  C   UNL     1       5.160  -1.507  26.600  0.00  0.00    +0.085 C 
ATOM     18  C   UNL     1       5.025  -1.762  25.065  0.00  0.00    +0.031 C 
ATOM     19  C   UNL     1       7.140  -5.281  23.370  0.00  0.00    +0.040 C 
ATOM     20  C   UNL     1       6.234  -2.641  24.392  0.00  0.00    +0.047 C 
ATOM     21  O   UNL     1       6.800  -2.501  22.011  0.00  0.00    -0.481 OA
ENDROOT
BRANCH   3  22
ATOM     22  C   UNL     1       4.008  -6.493  24.441  0.00  0.00    +0.069 C 
ATOM     23  C   UNL     1       4.129  -7.026  25.876  0.00  0.00    +0.041 C 
BRANCH  22  24
ATOM     24  O   UNL     1       4.837  -7.393  23.648  0.00  0.00    -0.388 OA
ATOM     25  H   UNL     1       4.670  -8.308  23.920  0.00  0.00    +0.210 HD
ENDBRANCH  22  24
BRANCH  22  26
ATOM     26  C   UNL     1       2.548  -6.652  23.915  0.00  0.00    +0.034 C 
BRANCH  26  27
ATOM     27  C   UNL     1       1.922  -5.362  23.339  0.00  0.00    -0.001 C 
ATOM     28  C   UNL     1       0.572  -5.616  22.683  0.00  0.00    +0.004 C 
ENDBRANCH  26  27
ENDBRANCH  22  26
ENDBRANCH   3  22
BRANCH  12  29
ATOM     29  O   UNL     1       9.247  -1.078  20.999  0.00  0.00    -0.503 OA
ATOM     30  H   UNL     1       9.869  -1.726  20.688  0.00  0.00    +0.292 HD
ENDBRANCH  12  29
BRANCH   2  31
ATOM     31  O   UNL     1       5.311  -5.270  21.727  0.00  0.00    -0.373 OA
ATOM     32  C   UNL     1       6.300  -5.796  20.834  0.00  0.00    +0.194 C 
ENDBRANCH   2  31
TORSDOF 6
ENDMDL
MODEL 4
REMARK VINA RESULT:      -7.2      2.611      6.447
REMARK  Name = 
REMARK  10 active torsions:
REMARK  status: ('A' for Active; 'I' for Inactive)
REMARK    1  A    between atoms: C_5  and  O_6
REMARK    2  A    between atoms: N_14  and  C_15
REMARK    3  A    between atoms: C_22  and  O_23
REMARK    4  A    between atoms: O_23  and  C_24
REMARK    5  A    between atoms: C_25  and  C_28
REMARK    6  A    between atoms: C_28  and  C_29
REMARK    7  A    between atoms: C_28  and  O_30
REMARK    8  A    between atoms: C_28  and  C_31
REMARK    9  A    between atoms: C_31  and  C_32
REMARK   10  A    between atoms: C_32  and  C_33
REMARK                            x       y       z     vdW  Elec       q    Type
REMARK                         _______ _______ _______ _____ _____    ______ ____
ROOT
ATOM      1  C   UNL     1       8.015  -3.889  24.023  0.00  0.00    +0.217 C 
ATOM      2  C   UNL     1       8.151  -2.296  23.802  0.00  0.00    +0.112 C 
ATOM      3  C   UNL     1       8.551  -1.701  25.244  0.00  0.00    +0.057 C 
ATOM      4  C   UNL     1       7.433  -2.071  26.326  0.00  0.00    +0.018 C 
ATOM      5  C   UNL     1       6.299  -2.901  25.687  0.00  0.00    +0.000 C 
ATOM      6  C   UNL     1       5.774  -1.921  24.541  0.00  0.00    +0.012 C 
ATOM      7  C   UNL     1       5.121  -3.608  26.606  0.00  0.00    +0.068 C 
ATOM      8  C   UNL     1       3.924  -3.915  25.707  0.00  0.00    +0.055 C 
ATOM      9  C   UNL     1       4.464  -4.721  24.550  0.00  0.00    -0.038 A 
ATOM     10  C   UNL     1       5.873  -4.769  24.302  0.00  0.00    +0.012 A 
ATOM     11  C   UNL     1       6.332  -5.168  23.094  0.00  0.00    +0.166 A 
ATOM     12  C   UNL     1       5.460  -5.834  22.221  0.00  0.00    +0.159 A 
ATOM     13  C   UNL     1       4.103  -5.971  22.546  0.00  0.00    +0.049 A 
ATOM     14  C   UNL     1       3.584  -5.360  23.678  0.00  0.00    +0.008 A 
ATOM     15  N   UNL     1       5.435  -4.914  27.366  0.00  0.00    -0.302 NA
ATOM     16  C   UNL     1       5.262  -6.274  26.750  0.00  0.00    +0.105 C 
ATOM     17  C   UNL     1       6.824  -4.855  27.749  0.00  0.00    +0.085 C 
ATOM     18  C   UNL     1       7.681  -4.853  26.444  0.00  0.00    +0.031 C 
ATOM     19  C   UNL     1       6.784  -1.747  23.398  0.00  0.00    +0.040 C 
ATOM     20  C   UNL     1       6.977  -4.145  25.145  0.00  0.00    +0.047 C 
ATOM     21  O   UNL     1       7.599  -4.700  22.839  0.00  0.00    -0.481 OA
ENDROOT
BRANCH   3  22
ATOM     22  C   UNL     1       9.087  -0.257  25.610  0.00  0.00    +0.069 C 
ATOM     23  C   UNL     1      10.455   0.136  25.032  0.00  0.00    +0.041 C 
BRANCH  22  24
ATOM     24  O   UNL     1       9.329  -0.412  27.041  0.00  0.00    -0.388 OA
ATOM     25  H   UNL     1       8.542  -0.792  27.459  0.00  0.00    +0.210 HD
ENDBRANCH  22  24
BRANCH  22  26
ATOM     26  C   UNL     1       8.067   0.913  25.456  0.00  0.00    +0.034 C 
BRANCH  26  27
ATOM     27  C   UNL     1       8.288   1.807  24.214  0.00  0.00    -0.001 C 
ATOM     28  C   UNL     1       7.016   1.990  23.399  0.00  0.00    +0.004 C 
ENDBRANCH  26  27
ENDBRANCH  22  26
ENDBRANCH   3  22
BRANCH  12  29
ATOM     29  O   UNL     1       5.860  -6.363  21.037  0.00  0.00    -0.503 OA
ATOM     30  H   UNL     1       6.249  -5.643  20.554  0.00  0.00    +0.292 HD
ENDBRANCH  12  29
BRANCH   2  31
ATOM     31  O   UNL     1       9.171  -1.962  22.845  0.00  0.00    -0.373 OA
ATOM     32  C   UNL     1       8.844  -0.989  21.845  0.00  0.00    +0.194 C 
ENDBRANCH   2  31
TORSDOF 6
ENDMDL
MODEL 5
REMARK VINA RESULT:      -7.1      2.203      5.975
REMARK  Name = 
REMARK  10 active torsions:
REMARK  status: ('A' for Active; 'I' for Inactive)
REMARK    1  A    between atoms: C_5  and  O_6
REMARK    2  A    between atoms: N_14  and  C_15
REMARK    3  A    between atoms: C_22  and  O_23
REMARK    4  A    between atoms: O_23  and  C_24
REMARK    5  A    between atoms: C_25  and  C_28
REMARK    6  A    between atoms: C_28  and  C_29
REMARK    7  A    between atoms: C_28  and  O_30
REMARK    8  A    between atoms: C_28  and  C_31
REMARK    9  A    between atoms: C_31  and  C_32
REMARK   10  A    between atoms: C_32  and  C_33
REMARK                            x       y       z     vdW  Elec       q    Type
REMARK                         _______ _______ _______ _____ _____    ______ ____
ROOT
ATOM      1  C   UNL     1       5.640  -1.415  24.794  0.00  0.00    +0.217 C 
ATOM      2  C   UNL     1       6.682  -0.439  25.545  0.00  0.00    +0.112 C 
ATOM      3  C   UNL     1       7.889  -0.223  24.501  0.00  0.00    +0.057 C 
ATOM      4  C   UNL     1       8.544  -1.628  24.112  0.00  0.00    +0.018 C 
ATOM      5  C   UNL     1       7.830  -2.790  24.835  0.00  0.00    +0.000 C 
ATOM      6  C   UNL     1       8.029  -2.399  26.370  0.00  0.00    +0.012 C 
ATOM      7  C   UNL     1       8.148  -4.368  24.461  0.00  0.00    +0.068 C 
ATOM      8  C   UNL     1       7.693  -5.244  25.627  0.00  0.00    +0.055 C 
ATOM      9  C   UNL     1       6.250  -4.881  25.886  0.00  0.00    -0.038 A 
ATOM     10  C   UNL     1       5.698  -3.685  25.327  0.00  0.00    +0.012 A 
ATOM     11  C   UNL     1       4.555  -3.168  25.834  0.00  0.00    +0.166 A 
ATOM     12  C   UNL     1       3.757  -3.968  26.665  0.00  0.00    +0.159 A 
ATOM     13  C   UNL     1       4.202  -5.236  27.064  0.00  0.00    +0.049 A 
ATOM     14  C   UNL     1       5.476  -5.672  26.733  0.00  0.00    +0.008 A 
ATOM     15  N   UNL     1       7.527  -4.985  23.191  0.00  0.00    -0.302 NA
ATOM     16  C   UNL     1       6.173  -5.636  23.183  0.00  0.00    +0.105 C 
ATOM     17  C   UNL     1       7.437  -3.931  22.210  0.00  0.00    +0.085 C 
ATOM     18  C   UNL     1       6.436  -2.860  22.750  0.00  0.00    +0.031 C 
ATOM     19  C   UNL     1       7.216  -1.163  26.780  0.00  0.00    +0.040 C 
ATOM     20  C   UNL     1       6.385  -2.710  24.381  0.00  0.00    +0.047 C 
ATOM     21  O   UNL     1       4.427  -1.827  25.564  0.00  0.00    -0.481 OA
ENDROOT
BRANCH   3  22
ATOM     22  C   UNL     1       9.064   0.839  24.544  0.00  0.00    +0.069 C 
ATOM     23  C   UNL     1      10.464   0.302  24.873  0.00  0.00    +0.041 C 
BRANCH  22  24
ATOM     24  O   UNL     1       8.685   1.614  25.720  0.00  0.00    -0.388 OA
ATOM     25  H   UNL     1       8.451   1.010  26.440  0.00  0.00    +0.210 HD
ENDBRANCH  22  24
BRANCH  22  26
ATOM     26  C   UNL     1       9.125   1.841  23.350  0.00  0.00    +0.034 C 
BRANCH  26  27
ATOM     27  C   UNL     1       9.976   1.369  22.149  0.00  0.00    -0.001 C 
ATOM     28  C   UNL     1       9.203   0.445  21.219  0.00  0.00    +0.004 C 
ENDBRANCH  26  27
ENDBRANCH  22  26
ENDBRANCH   3  22
BRANCH  12  29
ATOM     29  O   UNL     1       2.546  -3.571  27.131  0.00  0.00    -0.503 OA
ATOM     30  H   UNL     1       2.153  -3.067  26.427  0.00  0.00    +0.292 HD
ENDBRANCH  12  29
BRANCH   2  31
ATOM     31  O   UNL     1       6.100   0.833  25.877  0.00  0.00    -0.373 OA
ATOM     32  C   UNL     1       5.346   1.500  24.857  0.00  0.00    +0.194 C 
ENDBRANCH   2  31
TORSDOF 6
ENDMDL
MODEL 6
REMARK VINA RESULT:      -7.0      2.272      6.488
REMARK  Name = 
REMARK  10 active torsions:
REMARK  status: ('A' for Active; 'I' for Inactive)
REMARK    1  A    between atoms: C_5  and  O_6
REMARK    2  A    between atoms: N_14  and  C_15
REMARK    3  A    between atoms: C_22  and  O_23
REMARK    4  A    between atoms: O_23  and  C_24
REMARK    5  A    between atoms: C_25  and  C_28
REMARK    6  A    between atoms: C_28  and  C_29
REMARK    7  A    between atoms: C_28  and  O_30
REMARK    8  A    between atoms: C_28  and  C_31
REMARK    9  A    between atoms: C_31  and  C_32
REMARK   10  A    between atoms: C_32  and  C_33
REMARK                            x       y       z     vdW  Elec       q    Type
REMARK                         _______ _______ _______ _____ _____    ______ ____
ROOT
ATOM      1  C   UNL     1       9.146  -0.869  24.845  0.00  0.00    +0.217 C 
ATOM      2  C   UNL     1       9.172  -0.086  23.434  0.00  0.00    +0.112 C 
ATOM      3  C   UNL     1       8.222   1.198  23.645  0.00  0.00    +0.057 C 
ATOM      4  C   UNL     1       6.748   0.736  24.057  0.00  0.00    +0.018 C 
ATOM      5  C   UNL     1       6.656  -0.802  24.148  0.00  0.00    +0.000 C 
ATOM      6  C   UNL     1       7.072  -1.249  22.673  0.00  0.00    +0.012 C 
ATOM      7  C   UNL     1       5.319  -1.554  24.764  0.00  0.00    +0.068 C 
ATOM      8  C   UNL     1       5.313  -3.003  24.281  0.00  0.00    +0.055 C 
ATOM      9  C   UNL     1       6.656  -3.578  24.663  0.00  0.00    -0.038 A 
ATOM     10  C   UNL     1       7.728  -2.710  25.042  0.00  0.00    +0.012 A 
ATOM     11  C   UNL     1       9.002  -3.166  25.030  0.00  0.00    +0.166 A 
ATOM     12  C   UNL     1       9.230  -4.548  24.967  0.00  0.00    +0.159 A 
ATOM     13  C   UNL     1       8.156  -5.434  24.793  0.00  0.00    +0.049 A 
ATOM     14  C   UNL     1       6.874  -4.952  24.574  0.00  0.00    +0.008 A 
ATOM     15  N   UNL     1       5.117  -1.608  26.292  0.00  0.00    -0.302 NA
ATOM     16  C   UNL     1       5.679  -2.708  27.148  0.00  0.00    +0.105 C 
ATOM     17  C   UNL     1       5.675  -0.394  26.835  0.00  0.00    +0.085 C 
ATOM     18  C   UNL     1       7.213  -0.411  26.564  0.00  0.00    +0.031 C 
ATOM     19  C   UNL     1       8.555  -0.992  22.370  0.00  0.00    +0.040 C 
ATOM     20  C   UNL     1       7.674  -1.197  25.202  0.00  0.00    +0.047 C 
ATOM     21  O   UNL     1       9.917  -2.146  24.921  0.00  0.00    -0.481 OA
ENDROOT
BRANCH   3  22
ATOM     22  C   UNL     1       8.065   2.479  22.728  0.00  0.00    +0.069 C 
ATOM     23  C   UNL     1       6.728   2.637  21.989  0.00  0.00    +0.041 C 
BRANCH  22  24
ATOM     24  O   UNL     1       9.029   2.179  21.675  0.00  0.00    -0.388 OA
ATOM     25  H   UNL     1       9.886   2.570  21.902  0.00  0.00    +0.210 HD
ENDBRANCH  22  24
BRANCH  22  26
ATOM     26  C   UNL     1       8.507   3.834  23.362  0.00  0.00    +0.034 C 
BRANCH  26  27
ATOM     27  C   UNL     1       8.828   3.768  24.873  0.00  0.00    -0.001 C 
ATOM     28  C   UNL     1       7.814   4.531  25.714  0.00  0.00    +0.004 C 
ENDBRANCH  26  27
ENDBRANCH  22  26
ENDBRANCH   3  22
BRANCH  12  29
ATOM     29  O   UNL     1      10.467  -5.099  25.056  0.00  0.00    -0.503 OA
ATOM     30  H   UNL     1      10.427  -5.699  25.791  0.00  0.00    +0.292 HD
ENDBRANCH  12  29
BRANCH   2  31
ATOM     31  O   UNL     1      10.494   0.348  23.073  0.00  0.00    -0.373 OA
ATOM     32  C   UNL     1      11.275   0.997  24.083  0.00  0.00    +0.194 C 
ENDBRANCH   2  31
TORSDOF 6
ENDMDL
MODEL 7
REMARK VINA RESULT:      -6.8      3.756      7.694
REMARK  Name = 
REMARK  10 active torsions:
REMARK  status: ('A' for Active; 'I' for Inactive)
REMARK    1  A    between atoms: C_5  and  O_6
REMARK    2  A    between atoms: N_14  and  C_15
REMARK    3  A    between atoms: C_22  and  O_23
REMARK    4  A    between atoms: O_23  and  C_24
REMARK    5  A    between atoms: C_25  and  C_28
REMARK    6  A    between atoms: C_28  and  C_29
REMARK    7  A    between atoms: C_28  and  O_30
REMARK    8  A    between atoms: C_28  and  C_31
REMARK    9  A    between atoms: C_31  and  C_32
REMARK   10  A    between atoms: C_32  and  C_33
REMARK                            x       y       z     vdW  Elec       q    Type
REMARK                         _______ _______ _______ _____ _____    ______ ____
ROOT
ATOM      1  C   UNL     1       5.258  -6.170  24.248  0.00  0.00    +0.217 C 
ATOM      2  C   UNL     1       5.042  -4.917  23.254  0.00  0.00    +0.112 C 
ATOM      3  C   UNL     1       6.120  -3.815  23.721  0.00  0.00    +0.057 C 
ATOM      4  C   UNL     1       5.886  -3.423  25.253  0.00  0.00    +0.018 C 
ATOM      5  C   UNL     1       4.705  -4.216  25.852  0.00  0.00    +0.000 C 
ATOM      6  C   UNL     1       3.499  -3.792  24.895  0.00  0.00    +0.012 C 
ATOM      7  C   UNL     1       4.371  -4.180  27.470  0.00  0.00    +0.068 C 
ATOM      8  C   UNL     1       2.924  -4.627  27.676  0.00  0.00    +0.055 C 
ATOM      9  C   UNL     1       2.795  -5.962  26.982  0.00  0.00    -0.038 A 
ATOM     10  C   UNL     1       3.797  -6.390  26.054  0.00  0.00    +0.012 A 
ATOM     11  C   UNL     1       3.523  -7.380  25.173  0.00  0.00    +0.166 A 
ATOM     12  C   UNL     1       2.398  -8.190  25.389  0.00  0.00    +0.159 A 
ATOM     13  C   UNL     1       1.506  -7.897  26.431  0.00  0.00    +0.049 A 
ATOM     14  C   UNL     1       1.662  -6.747  27.189  0.00  0.00    +0.008 A 
ATOM     15  N   UNL     1       5.225  -5.023  28.439  0.00  0.00    -0.302 NA
ATOM     16  C   UNL     1       4.901  -6.451  28.776  0.00  0.00    +0.105 C 
ATOM     17  C   UNL     1       6.561  -5.064  27.898  0.00  0.00    +0.085 C 
ATOM     18  C   UNL     1       6.502  -5.829  26.537  0.00  0.00    +0.031 C 
ATOM     19  C   UNL     1       3.636  -4.362  23.477  0.00  0.00    +0.040 C 
ATOM     20  C   UNL     1       5.096  -5.675  25.709  0.00  0.00    +0.047 C 
ATOM     21  O   UNL     1       4.342  -7.336  24.071  0.00  0.00    -0.481 OA
ENDROOT
BRANCH   3  22
ATOM     22  C   UNL     1       6.585  -2.498  22.973  0.00  0.00    +0.069 C 
ATOM     23  C   UNL     1       6.419  -1.178  23.738  0.00  0.00    +0.041 C 
BRANCH  22  24
ATOM     24  O   UNL     1       5.591  -2.428  21.907  0.00  0.00    -0.388 OA
ATOM     25  H   UNL     1       5.756  -1.642  21.366  0.00  0.00    +0.210 HD
ENDBRANCH  22  24
BRANCH  22  26
ATOM     26  C   UNL     1       7.979  -2.561  22.277  0.00  0.00    +0.034 C 
BRANCH  26  27
ATOM     27  C   UNL     1       9.126  -1.883  23.061  0.00  0.00    -0.001 C 
ATOM     28  C   UNL     1       9.747  -2.809  24.097  0.00  0.00    +0.004 C 
ENDBRANCH  26  27
ENDBRANCH  22  26
ENDBRANCH   3  22
BRANCH  12  29
ATOM     29  O   UNL     1       2.107  -9.270  24.621  0.00  0.00    -0.503 OA
ATOM     30  H   UNL     1       1.697  -9.897  25.205  0.00  0.00    +0.292 HD
ENDBRANCH  12  29
BRANCH   2  31
ATOM     31  O   UNL     1       5.273  -5.264  21.879  0.00  0.00    -0.373 OA
ATOM     32  C   UNL     1       6.485  -5.962  21.568  0.00  0.00    +0.194 C 
ENDBRANCH   2  31
TORSDOF 6
ENDMDL
MODEL 8
REMARK VINA RESULT:      -6.7      2.477      4.211
REMARK  Name = 
REMARK  10 active torsions:
REMARK  status: ('A' for Active; 'I' for Inactive)
REMARK    1  A    between atoms: C_5  and  O_6
REMARK    2  A    between atoms: N_14  and  C_15
REMARK    3  A    between atoms: C_22  and  O_23
REMARK    4  A    between atoms: O_23  and  C_24
REMARK    5  A    between atoms: C_25  and  C_28
REMARK    6  A    between atoms: C_28  and  C_29
REMARK    7  A    between atoms: C_28  and  O_30
REMARK    8  A    between atoms: C_28  and  C_31
REMARK    9  A    between atoms: C_31  and  C_32
REMARK   10  A    between atoms: C_32  and  C_33
REMARK                            x       y       z     vdW  Elec       q    Type
REMARK                         _______ _______ _______ _____ _____    ______ ____
ROOT
ATOM      1  C   UNL     1       6.655  -2.731  23.868  0.00  0.00    +0.217 C 
ATOM      2  C   UNL     1       6.797  -4.169  24.587  0.00  0.00    +0.112 C 
ATOM      3  C   UNL     1       5.708  -4.160  25.773  0.00  0.00    +0.057 C 
ATOM      4  C   UNL     1       5.992  -2.948  26.778  0.00  0.00    +0.018 C 
ATOM      5  C   UNL     1       7.216  -2.127  26.320  0.00  0.00    +0.000 C 
ATOM      6  C   UNL     1       8.372  -3.229  26.311  0.00  0.00    +0.012 C 
ATOM      7  C   UNL     1       7.613  -0.692  27.039  0.00  0.00    +0.068 C 
ATOM      8  C   UNL     1       9.078  -0.385  26.732  0.00  0.00    +0.055 C 
ATOM      9  C   UNL     1       9.215  -0.458  25.230  0.00  0.00    -0.038 A 
ATOM     10  C   UNL     1       8.190  -1.072  24.442  0.00  0.00    +0.012 A 
ATOM     11  C   UNL     1       8.457  -1.465  23.175  0.00  0.00    +0.166 A 
ATOM     12  C   UNL     1       9.610  -0.981  22.541  0.00  0.00    +0.159 A 
ATOM     13  C   UNL     1      10.534  -0.203  23.253  0.00  0.00    +0.049 A 
ATOM     14  C   UNL     1      10.377   0.007  24.615  0.00  0.00    +0.008 A 
ATOM     15  N   UNL     1       6.821   0.581  26.676  0.00  0.00    -0.302 NA
ATOM     16  C   UNL     1       7.196   1.472  25.526  0.00  0.00    +0.105 C 
ATOM     17  C   UNL     1       5.466   0.170  26.400  0.00  0.00    +0.085 C 
ATOM     18  C   UNL     1       5.492  -0.743  25.133  0.00  0.00    +0.031 C 
ATOM     19  C   UNL     1       8.195  -4.267  25.195  0.00  0.00    +0.040 C 
ATOM     20  C   UNL     1       6.860  -1.624  24.934  0.00  0.00    +0.047 C 
ATOM     21  O   UNL     1       7.594  -2.444  22.743  0.00  0.00    -0.481 OA
ENDROOT
BRANCH   3  22
ATOM     22  C   UNL     1       5.180  -5.370  26.648  0.00  0.00    +0.069 C 
ATOM     23  C   UNL     1       5.299  -5.222  28.172  0.00  0.00    +0.041 C 
BRANCH  22  24
ATOM     24  O   UNL     1       6.156  -6.398  26.306  0.00  0.00    -0.388 OA
ATOM     25  H   UNL     1       5.851  -7.255  26.639  0.00  0.00    +0.210 HD
ENDBRANCH  22  24
BRANCH  22  26
ATOM     26  C   UNL     1       3.780  -5.938  26.257  0.00  0.00    +0.034 C 
BRANCH  26  27
ATOM     27  C   UNL     1       3.816  -7.273  25.479  0.00  0.00    -0.001 C 
ATOM     28  C   UNL     1       2.820  -7.299  24.328  0.00  0.00    +0.004 C 
ENDBRANCH  26  27
ENDBRANCH  22  26
ENDBRANCH   3  22
BRANCH  12  29
ATOM     29  O   UNL     1       9.901  -1.236  21.240  0.00  0.00    -0.503 OA
ATOM     30  H   UNL     1      10.315  -0.447  20.911  0.00  0.00    +0.292 HD
ENDBRANCH  12  29
BRANCH   2  31
ATOM     31  O   UNL     1       6.522  -5.258  23.690  0.00  0.00    -0.373 OA
ATOM     32  C   UNL     1       5.396  -5.124  22.813  0.00  0.00    +0.194 C 
ENDBRANCH   2  31
TORSDOF 6
ENDMDL
MODEL 9
REMARK VINA RESULT:      -6.5      2.315      4.098
REMARK  Name = 
REMARK  10 active torsions:
REMARK  status: ('A' for Active; 'I' for Inactive)
REMARK    1  A    between atoms: C_5  and  O_6
REMARK    2  A    between atoms: N_14  and  C_15
REMARK    3  A    between atoms: C_22  and  O_23
REMARK    4  A    between atoms: O_23  and  C_24
REMARK    5  A    between atoms: C_25  and  C_28
REMARK    6  A    between atoms: C_28  and  C_29
REMARK    7  A    between atoms: C_28  and  O_30
REMARK    8  A    between atoms: C_28  and  C_31
REMARK    9  A    between atoms: C_31  and  C_32
REMARK   10  A    between atoms: C_32  and  C_33
REMARK                            x       y       z     vdW  Elec       q    Type
REMARK                         _______ _______ _______ _____ _____    ______ ____
ROOT
ATOM      1  C   UNL     1       6.356  -1.115  23.279  0.00  0.00    +0.217 C 
ATOM      2  C   UNL     1       6.278  -2.726  23.222  0.00  0.00    +0.112 C 
ATOM      3  C   UNL     1       5.188  -3.138  24.334  0.00  0.00    +0.057 C 
ATOM      4  C   UNL     1       5.633  -2.601  25.773  0.00  0.00    +0.018 C 
ATOM      5  C   UNL     1       6.970  -1.834  25.687  0.00  0.00    +0.000 C 
ATOM      6  C   UNL     1       7.952  -2.942  25.090  0.00  0.00    +0.012 C 
ATOM      7  C   UNL     1       7.563  -0.983  26.974  0.00  0.00    +0.068 C 
ATOM      8  C   UNL     1       9.061  -0.767  26.763  0.00  0.00    +0.055 C 
ATOM      9  C   UNL     1       9.205  -0.133  25.400  0.00  0.00    -0.038 A 
ATOM     10  C   UNL     1       8.111  -0.153  24.478  0.00  0.00    +0.012 A 
ATOM     11  C   UNL     1       8.332   0.073  23.163  0.00  0.00    +0.166 A 
ATOM     12  C   UNL     1       9.552   0.641  22.766  0.00  0.00    +0.159 A 
ATOM     13  C   UNL     1      10.571   0.853  23.706  0.00  0.00    +0.049 A 
ATOM     14  C   UNL     1      10.429   0.408  25.012  0.00  0.00    +0.008 A 
ATOM     15  N   UNL     1       6.970   0.402  27.304  0.00  0.00    -0.302 NA
ATOM     16  C   UNL     1       7.486   1.674  26.692  0.00  0.00    +0.105 C 
ATOM     17  C   UNL     1       5.574   0.359  26.947  0.00  0.00    +0.085 C 
ATOM     18  C   UNL     1       5.481   0.165  25.400  0.00  0.00    +0.031 C 
ATOM     19  C   UNL     1       7.640  -3.289  23.628  0.00  0.00    +0.040 C 
ATOM     20  C   UNL     1       6.708  -0.689  24.728  0.00  0.00    +0.047 C 
ATOM     21  O   UNL     1       7.341  -0.456  22.371  0.00  0.00    -0.481 OA
ENDROOT
BRANCH   3  22
ATOM     22  C   UNL     1       4.478  -4.535  24.561  0.00  0.00    +0.069 C 
ATOM     23  C   UNL     1       3.431  -4.952  23.518  0.00  0.00    +0.041 C 
BRANCH  22  24
ATOM     24  O   UNL     1       3.700  -4.251  25.763  0.00  0.00    -0.388 OA
ATOM     25  H   UNL     1       2.895  -3.770  25.518  0.00  0.00    +0.210 HD
ENDBRANCH  22  24
BRANCH  22  26
ATOM     26  C   UNL     1       5.415  -5.731  24.910  0.00  0.00    +0.034 C 
BRANCH  26  27
ATOM     27  C   UNL     1       5.384  -6.170  26.392  0.00  0.00    -0.001 C 
ATOM     28  C   UNL     1       6.613  -5.706  27.159  0.00  0.00    +0.004 C 
ENDBRANCH  26  27
ENDBRANCH  22  26
ENDBRANCH   3  22
BRANCH  12  29
ATOM     29  O   UNL     1       9.818   1.000  21.485  0.00  0.00    -0.503 OA
ATOM     30  H   UNL     1       9.756   1.948  21.467  0.00  0.00    +0.292 HD
ENDBRANCH  12  29
BRANCH   2  31
ATOM     31  O   UNL     1       5.858  -3.208  21.935  0.00  0.00    -0.373 OA
ATOM     32  C   UNL     1       6.442  -4.428  21.463  0.00  0.00    +0.194 C 
ENDBRANCH   2  31
TORSDOF 6
ENDMDL
