MODEL 1
REMARK VINA RESULT:      -4.6      0.000      0.000
REMARK  Name = 
REMARK  5 active torsions:
REMARK  status: ('A' for Active; 'I' for Inactive)
REMARK    1  A    between atoms: C_1  and  C_2
REMARK    2  A    between atoms: C_5  and  O_7
REMARK    3  A    between atoms: C_8  and  O_10
REMARK    4  A    between atoms: C_11  and  O_13
REMARK    5  A    between atoms: C_14  and  N_16
REMARK                            x       y       z     vdW  Elec       q    Type
REMARK                         _______ _______ _______ _____ _____    ______ ____
ROOT
ATOM      1  C   UNL     1       9.019  -0.847  26.142  0.00  0.00    +0.039 C 
ATOM      2  C   UNL     1       9.688  -0.125  24.978  0.00  0.00    +0.138 C 
ATOM      3  C   UNL     1       9.444  -0.833  23.624  0.00  0.00    +0.111 C 
ATOM      4  C   UNL     1      10.048   0.009  22.485  0.00  0.00    +0.167 C 
ATOM      5  C   UNL     1       9.569   1.459  22.554  0.00  0.00    +0.200 C 
ATOM      6  C   UNL     1       9.793   2.011  23.967  0.00  0.00    +0.279 C 
ATOM      7  O   UNL     1       9.162   1.213  24.949  0.00  0.00    -0.344 OA
ENDROOT
BRANCH   3   8
ATOM      8  N   UNL     1       9.992  -2.205  23.583  0.00  0.00    -0.323 NA
ATOM      9  H   UNL     1      10.622  -2.238  22.772  0.00  0.00    +0.119 HD
ATOM     10  H   UNL     1      10.609  -2.353  24.381  0.00  0.00    +0.119 HD
ENDBRANCH   3   8
BRANCH   4  11
ATOM     11  O   UNL     1       9.707  -0.563  21.213  0.00  0.00    -0.387 OA
ATOM     12  H   UNL     1       8.872  -0.127  20.950  0.00  0.00    +0.210 HD
ENDBRANCH   4  11
BRANCH   5  13
ATOM     13  O   UNL     1      10.306   2.220  21.577  0.00  0.00    -0.384 OA
ATOM     14  H   UNL     1      10.271   1.688  20.756  0.00  0.00    +0.210 HD
ENDBRANCH   5  13
BRANCH   6  15
ATOM     15  O   UNL     1       9.235   3.315  24.022  0.00  0.00    -0.365 OA
ATOM     16  H   UNL     1       9.863   3.863  23.519  0.00  0.00    +0.213 HD
ENDBRANCH   6  15
TORSDOF 4
ENDMDL
MODEL 2
REMARK VINA RESULT:      -4.5      4.836      6.189
REMARK  Name = 
REMARK  5 active torsions:
REMARK  status: ('A' for Active; 'I' for Inactive)
REMARK    1  A    between atoms: C_1  and  C_2
REMARK    2  A    between atoms: C_5  and  O_7
REMARK    3  A    between atoms: C_8  and  O_10
REMARK    4  A    between atoms: C_11  and  O_13
REMARK    5  A    between atoms: C_14  and  N_16
REMARK                            x       y       z     vdW  Elec       q    Type
REMARK                         _______ _______ _______ _____ _____    ______ ____
ROOT
ATOM      1  C   UNL     1       5.281  -2.979  24.914  0.00  0.00    +0.039 C 
ATOM      2  C   UNL     1       6.522  -3.861  24.835  0.00  0.00    +0.138 C 
ATOM      3  C   UNL     1       7.771  -3.081  24.359  0.00  0.00    +0.111 C 
ATOM      4  C   UNL     1       9.004  -4.001  24.413  0.00  0.00    +0.167 C 
ATOM      5  C   UNL     1       9.139  -4.669  25.781  0.00  0.00    +0.200 C 
ATOM      6  C   UNL     1       7.811  -5.331  26.166  0.00  0.00    +0.279 C 
ATOM      7  O   UNL     1       6.739  -4.409  26.146  0.00  0.00    -0.344 OA
ENDROOT
BRANCH   3   8
ATOM      8  N   UNL     1       7.618  -2.519  23.001  0.00  0.00    -0.323 NA
ATOM      9  H   UNL     1       8.371  -1.829  22.890  0.00  0.00    +0.119 HD
ATOM     10  H   UNL     1       7.835  -3.234  22.307  0.00  0.00    +0.119 HD
ENDBRANCH   3   8
BRANCH   4  11
ATOM     11  O   UNL     1      10.192  -3.254  24.109  0.00  0.00    -0.387 OA
ATOM     12  H   UNL     1      10.667  -3.168  24.961  0.00  0.00    +0.210 HD
ENDBRANCH   4  11
BRANCH   5  13
ATOM     13  O   UNL     1      10.200  -5.642  25.701  0.00  0.00    -0.384 OA
ATOM     14  H   UNL     1      10.483  -5.637  24.764  0.00  0.00    +0.210 HD
ENDBRANCH   5  13
BRANCH   6  15
ATOM     15  O   UNL     1       7.940  -5.839  27.485  0.00  0.00    -0.365 OA
ATOM     16  H   UNL     1       7.071  -6.234  27.673  0.00  0.00    +0.213 HD
ENDBRANCH   6  15
TORSDOF 4
ENDMDL
MODEL 3
REMARK VINA RESULT:      -4.5      4.946      6.588
REMARK  Name = 
REMARK  5 active torsions:
REMARK  status: ('A' for Active; 'I' for Inactive)
REMARK    1  A    between atoms: C_1  and  C_2
REMARK    2  A    between atoms: C_5  and  O_7
REMARK    3  A    between atoms: C_8  and  O_10
REMARK    4  A    between atoms: C_11  and  O_13
REMARK    5  A    between atoms: C_14  and  N_16
REMARK                            x       y       z     vdW  Elec       q    Type
REMARK                         _______ _______ _______ _____ _____    ______ ____
ROOT
ATOM      1  C   UNL     1       8.326  -2.541  22.605  0.00  0.00    +0.039 C 
ATOM      2  C   UNL     1       8.266  -3.095  24.024  0.00  0.00    +0.138 C 
ATOM      3  C   UNL     1       6.872  -3.668  24.376  0.00  0.00    +0.111 C 
ATOM      4  C   UNL     1       6.917  -4.310  25.775  0.00  0.00    +0.167 C 
ATOM      5  C   UNL     1       8.075  -5.301  25.893  0.00  0.00    +0.200 C 
ATOM      6  C   UNL     1       9.377  -4.632  25.438  0.00  0.00    +0.279 C 
ATOM      7  O   UNL     1       9.271  -4.117  24.125  0.00  0.00    -0.344 OA
ENDROOT
BRANCH   3   8
ATOM      8  N   UNL     1       5.799  -2.654  24.320  0.00  0.00    -0.323 NA
ATOM      9  H   UNL     1       5.452  -2.550  25.281  0.00  0.00    +0.119 HD
ATOM     10  H   UNL     1       6.200  -1.742  24.103  0.00  0.00    +0.119 HD
ENDBRANCH   3   8
BRANCH   4  11
ATOM     11  O   UNL     1       5.673  -4.969  26.057  0.00  0.00    -0.387 OA
ATOM     12  H   UNL     1       5.265  -4.451  26.779  0.00  0.00    +0.210 HD
ENDBRANCH   4  11
BRANCH   5  13
ATOM     13  O   UNL     1       8.162  -5.724  27.269  0.00  0.00    -0.384 OA
ATOM     14  H   UNL     1       7.257  -5.622  27.627  0.00  0.00    +0.210 HD
ENDBRANCH   5  13
BRANCH   6  15
ATOM     15  O   UNL     1      10.403  -5.612  25.454  0.00  0.00    -0.365 OA
ATOM     16  H   UNL     1       9.957  -6.416  25.774  0.00  0.00    +0.213 HD
ENDBRANCH   6  15
TORSDOF 4
ENDMDL
MODEL 4
REMARK VINA RESULT:      -4.4      4.406      5.461
REMARK  Name = 
REMARK  5 active torsions:
REMARK  status: ('A' for Active; 'I' for Inactive)
REMARK    1  A    between atoms: C_1  and  C_2
REMARK    2  A    between atoms: C_5  and  O_7
REMARK    3  A    between atoms: C_8  and  O_10
REMARK    4  A    between atoms: C_11  and  O_13
REMARK    5  A    between atoms: C_14  and  N_16
REMARK                            x       y       z     vdW  Elec       q    Type
REMARK                         _______ _______ _______ _____ _____    ______ ____
ROOT
ATOM      1  C   UNL     1       5.529  -4.175  26.963  0.00  0.00    +0.039 C 
ATOM      2  C   UNL     1       6.928  -3.830  26.466  0.00  0.00    +0.138 C 
ATOM      3  C   UNL     1       7.787  -5.089  26.198  0.00  0.00    +0.111 C 
ATOM      4  C   UNL     1       9.139  -4.672  25.592  0.00  0.00    +0.167 C 
ATOM      5  C   UNL     1       8.946  -3.750  24.388  0.00  0.00    +0.200 C 
ATOM      6  C   UNL     1       8.013  -2.594  24.766  0.00  0.00    +0.279 C 
ATOM      7  O   UNL     1       6.774  -3.060  25.262  0.00  0.00    -0.344 OA
ENDROOT
BRANCH   3   8
ATOM      8  N   UNL     1       8.007  -5.907  27.409  0.00  0.00    -0.323 NA
ATOM      9  H   UNL     1       8.975  -5.731  27.703  0.00  0.00    +0.119 HD
ATOM     10  H   UNL     1       7.446  -5.540  28.178  0.00  0.00    +0.119 HD
ENDBRANCH   3   8
BRANCH   4  11
ATOM     11  O   UNL     1       9.889  -5.835  25.208  0.00  0.00    -0.387 OA
ATOM     12  H   UNL     1      10.828  -5.563  25.259  0.00  0.00    +0.210 HD
ENDBRANCH   4  11
BRANCH   5  13
ATOM     13  O   UNL     1      10.242  -3.261  23.988  0.00  0.00    -0.384 OA
ATOM     14  H   UNL     1      10.420  -2.497  24.572  0.00  0.00    +0.210 HD
ENDBRANCH   5  13
BRANCH   6  15
ATOM     15  O   UNL     1       7.769  -1.827  23.597  0.00  0.00    -0.365 OA
ATOM     16  H   UNL     1       6.801  -1.730  23.576  0.00  0.00    +0.213 HD
ENDBRANCH   6  15
TORSDOF 4
ENDMDL
MODEL 5
REMARK VINA RESULT:      -4.4      1.939      3.453
REMARK  Name = 
REMARK  5 active torsions:
REMARK  status: ('A' for Active; 'I' for Inactive)
REMARK    1  A    between atoms: C_1  and  C_2
REMARK    2  A    between atoms: C_5  and  O_7
REMARK    3  A    between atoms: C_8  and  O_10
REMARK    4  A    between atoms: C_11  and  O_13
REMARK    5  A    between atoms: C_14  and  N_16
REMARK                            x       y       z     vdW  Elec       q    Type
REMARK                         _______ _______ _______ _____ _____    ______ ____
ROOT
ATOM      1  C   UNL     1      10.030   1.491  21.997  0.00  0.00    +0.039 C 
ATOM      2  C   UNL     1       9.344   0.429  22.848  0.00  0.00    +0.138 C 
ATOM      3  C   UNL     1      10.102  -0.920  22.834  0.00  0.00    +0.111 C 
ATOM      4  C   UNL     1       9.421  -1.905  23.801  0.00  0.00    +0.167 C 
ATOM      5  C   UNL     1       9.231  -1.283  25.184  0.00  0.00    +0.200 C 
ATOM      6  C   UNL     1       8.545   0.082  25.047  0.00  0.00    +0.279 C 
ATOM      7  O   UNL     1       9.262   0.946  24.187  0.00  0.00    -0.344 OA
ENDROOT
BRANCH   3   8
ATOM      8  N   UNL     1      10.193  -1.517  21.485  0.00  0.00    -0.323 NA
ATOM      9  H   UNL     1      11.193  -1.673  21.307  0.00  0.00    +0.119 HD
ATOM     10  H   UNL     1       9.796  -2.455  21.497  0.00  0.00    +0.119 HD
ENDBRANCH   3   8
BRANCH   4  11
ATOM     11  O   UNL     1      10.193  -3.111  23.904  0.00  0.00    -0.387 OA
ATOM     12  H   UNL     1       9.731  -3.656  24.573  0.00  0.00    +0.210 HD
ENDBRANCH   4  11
BRANCH   5  13
ATOM     13  O   UNL     1       8.435  -2.187  25.976  0.00  0.00    -0.384 OA
ATOM     14  H   UNL     1       8.233  -1.698  26.799  0.00  0.00    +0.210 HD
ENDBRANCH   5  13
BRANCH   6  15
ATOM     15  O   UNL     1       8.490   0.676  26.335  0.00  0.00    -0.365 OA
ATOM     16  H   UNL     1       7.616   1.103  26.361  0.00  0.00    +0.213 HD
ENDBRANCH   6  15
TORSDOF 4
ENDMDL
MODEL 6
REMARK VINA RESULT:      -4.4      1.893      2.834
REMARK  Name = 
REMARK  5 active torsions:
REMARK  status: ('A' for Active; 'I' for Inactive)
REMARK    1  A    between atoms: C_1  and  C_2
REMARK    2  A    between atoms: C_5  and  O_7
REMARK    3  A    between atoms: C_8  and  O_10
REMARK    4  A    between atoms: C_11  and  O_13
REMARK    5  A    between atoms: C_14  and  N_16
REMARK                            x       y       z     vdW  Elec       q    Type
REMARK                         _______ _______ _______ _____ _____    ______ ____
ROOT
ATOM      1  C   UNL     1       8.281   2.435  25.162  0.00  0.00    +0.039 C 
ATOM      2  C   UNL     1       9.127   1.472  24.338  0.00  0.00    +0.138 C 
ATOM      3  C   UNL     1       9.020   0.012  24.840  0.00  0.00    +0.111 C 
ATOM      4  C   UNL     1       9.804  -0.917  23.896  0.00  0.00    +0.167 C 
ATOM      5  C   UNL     1       9.396  -0.700  22.439  0.00  0.00    +0.200 C 
ATOM      6  C   UNL     1       9.469   0.793  22.098  0.00  0.00    +0.279 C 
ATOM      7  O   UNL     1       8.679   1.571  22.976  0.00  0.00    -0.344 OA
ENDROOT
BRANCH   3   8
ATOM      8  N   UNL     1       9.496  -0.158  26.228  0.00  0.00    -0.323 NA
ATOM      9  H   UNL     1       9.699  -1.158  26.341  0.00  0.00    +0.119 HD
ATOM     10  H   UNL     1      10.405   0.292  26.337  0.00  0.00    +0.119 HD
ENDBRANCH   3   8
BRANCH   4  11
ATOM     11  O   UNL     1       9.597  -2.288  24.268  0.00  0.00    -0.387 OA
ATOM     12  H   UNL     1       9.127  -2.692  23.511  0.00  0.00    +0.210 HD
ENDBRANCH   4  11
BRANCH   5  13
ATOM     13  O   UNL     1      10.289  -1.467  21.606  0.00  0.00    -0.384 OA
ATOM     14  H   UNL     1      10.532  -0.869  20.871  0.00  0.00    +0.210 HD
ENDBRANCH   5  13
BRANCH   6  15
ATOM     15  O   UNL     1       8.976   0.966  20.778  0.00  0.00    -0.365 OA
ATOM     16  H   UNL     1       9.698   1.425  20.314  0.00  0.00    +0.213 HD
ENDBRANCH   6  15
TORSDOF 4
ENDMDL
MODEL 7
REMARK VINA RESULT:      -4.3      1.723      2.997
REMARK  Name = 
REMARK  5 active torsions:
REMARK  status: ('A' for Active; 'I' for Inactive)
REMARK    1  A    between atoms: C_1  and  C_2
REMARK    2  A    between atoms: C_5  and  O_7
REMARK    3  A    between atoms: C_8  and  O_10
REMARK    4  A    between atoms: C_11  and  O_13
REMARK    5  A    between atoms: C_14  and  N_16
REMARK                            x       y       z     vdW  Elec       q    Type
REMARK                         _______ _______ _______ _____ _____    ______ ____
ROOT
ATOM      1  C   UNL     1       8.313  -1.765  25.343  0.00  0.00    +0.039 C 
ATOM      2  C   UNL     1       8.370  -0.660  24.294  0.00  0.00    +0.138 C 
ATOM      3  C   UNL     1       9.058   0.622  24.823  0.00  0.00    +0.111 C 
ATOM      4  C   UNL     1       9.184   1.648  23.682  0.00  0.00    +0.167 C 
ATOM      5  C   UNL     1       9.833   1.026  22.446  0.00  0.00    +0.200 C 
ATOM      6  C   UNL     1       9.108  -0.275  22.080  0.00  0.00    +0.279 C 
ATOM      7  O   UNL     1       9.084  -1.185  23.162  0.00  0.00    -0.344 OA
ENDROOT
BRANCH   3   8
ATOM      8  N   UNL     1       8.350   1.226  25.970  0.00  0.00    -0.323 NA
ATOM      9  H   UNL     1       8.112   2.185  25.688  0.00  0.00    +0.119 HD
ATOM     10  H   UNL     1       7.445   0.773  26.092  0.00  0.00    +0.119 HD
ENDBRANCH   3   8
BRANCH   4  11
ATOM     11  O   UNL     1       9.944   2.784  24.120  0.00  0.00    -0.387 OA
ATOM     12  H   UNL     1       9.304   3.357  24.590  0.00  0.00    +0.210 HD
ENDBRANCH   4  11
BRANCH   5  13
ATOM     13  O   UNL     1       9.755   1.984  21.371  0.00  0.00    -0.384 OA
ATOM     14  H   UNL     1       9.861   2.858  21.797  0.00  0.00    +0.210 HD
ENDBRANCH   5  13
BRANCH   6  15
ATOM     15  O   UNL     1       9.808  -0.878  21.002  0.00  0.00    -0.365 OA
ATOM     16  H   UNL     1      10.097  -1.736  21.359  0.00  0.00    +0.213 HD
ENDBRANCH   6  15
TORSDOF 4
ENDMDL
MODEL 8
REMARK VINA RESULT:      -4.2      2.186      3.464
REMARK  Name = 
REMARK  5 active torsions:
REMARK  status: ('A' for Active; 'I' for Inactive)
REMARK    1  A    between atoms: C_1  and  C_2
REMARK    2  A    between atoms: C_5  and  O_7
REMARK    3  A    between atoms: C_8  and  O_10
REMARK    4  A    between atoms: C_11  and  O_13
REMARK    5  A    between atoms: C_14  and  N_16
REMARK                            x       y       z     vdW  Elec       q    Type
REMARK                         _______ _______ _______ _____ _____    ______ ____
ROOT
ATOM      1  C   UNL     1       9.184   2.343  24.360  0.00  0.00    +0.039 C 
ATOM      2  C   UNL     1       8.891   0.902  23.957  0.00  0.00    +0.138 C 
ATOM      3  C   UNL     1       9.827   0.401  22.831  0.00  0.00    +0.111 C 
ATOM      4  C   UNL     1       9.553  -1.088  22.557  0.00  0.00    +0.167 C 
ATOM      5  C   UNL     1       9.595  -1.907  23.848  0.00  0.00    +0.200 C 
ATOM      6  C   UNL     1       8.690  -1.257  24.901  0.00  0.00    +0.279 C 
ATOM      7  O   UNL     1       9.042   0.093  25.135  0.00  0.00    -0.344 OA
ENDROOT
BRANCH   3   8
ATOM      8  N   UNL     1       9.694   1.178  21.581  0.00  0.00    -0.323 NA
ATOM      9  H   UNL     1      10.463   0.874  20.971  0.00  0.00    +0.119 HD
ATOM     10  H   UNL     1       8.855   0.886  21.083  0.00  0.00    +0.119 HD
ENDBRANCH   3   8
BRANCH   4  11
ATOM     11  O   UNL     1      10.507  -1.603  21.616  0.00  0.00    -0.387 OA
ATOM     12  H   UNL     1      11.379  -1.297  21.940  0.00  0.00    +0.210 HD
ENDBRANCH   4  11
BRANCH   5  13
ATOM     13  O   UNL     1       9.156  -3.246  23.542  0.00  0.00    -0.384 OA
ATOM     14  H   UNL     1       8.206  -3.265  23.775  0.00  0.00    +0.210 HD
ENDBRANCH   5  13
BRANCH   6  15
ATOM     15  O   UNL     1       8.844  -1.977  26.115  0.00  0.00    -0.365 OA
ATOM     16  H   UNL     1       8.216  -2.717  26.032  0.00  0.00    +0.213 HD
ENDBRANCH   6  15
TORSDOF 4
ENDMDL
MODEL 9
REMARK VINA RESULT:      -4.1      2.409      3.143
REMARK  Name = 
REMARK  5 active torsions:
REMARK  status: ('A' for Active; 'I' for Inactive)
REMARK    1  A    between atoms: C_1  and  C_2
REMARK    2  A    between atoms: C_5  and  O_7
REMARK    3  A    between atoms: C_8  and  O_10
REMARK    4  A    between atoms: C_11  and  O_13
REMARK    5  A    between atoms: C_14  and  N_16
REMARK                            x       y       z     vdW  Elec       q    Type
REMARK                         _______ _______ _______ _____ _____    ______ ____
ROOT
ATOM      1  C   UNL     1       9.196  -2.124  22.991  0.00  0.00    +0.039 C 
ATOM      2  C   UNL     1       8.571  -0.871  22.389  0.00  0.00    +0.138 C 
ATOM      3  C   UNL     1       7.358  -0.365  23.206  0.00  0.00    +0.111 C 
ATOM      4  C   UNL     1       6.851   0.960  22.610  0.00  0.00    +0.167 C 
ATOM      5  C   UNL     1       7.990   1.968  22.448  0.00  0.00    +0.200 C 
ATOM      6  C   UNL     1       9.155   1.314  21.696  0.00  0.00    +0.279 C 
ATOM      7  O   UNL     1       9.598   0.134  22.337  0.00  0.00    -0.344 OA
ENDROOT
BRANCH   3   8
ATOM      8  N   UNL     1       6.255  -1.345  23.270  0.00  0.00    -0.323 NA
ATOM      9  H   UNL     1       5.835  -1.246  24.202  0.00  0.00    +0.119 HD
ATOM     10  H   UNL     1       5.509  -1.066  22.634  0.00  0.00    +0.119 HD
ENDBRANCH   3   8
BRANCH   4  11
ATOM     11  O   UNL     1       5.818   1.514  23.439  0.00  0.00    -0.387 OA
ATOM     12  H   UNL     1       5.046   0.924  23.317  0.00  0.00    +0.210 HD
ENDBRANCH   4  11
BRANCH   5  13
ATOM     13  O   UNL     1       7.480   3.106  21.725  0.00  0.00    -0.384 OA
ATOM     14  H   UNL     1       7.172   2.750  20.868  0.00  0.00    +0.210 HD
ENDBRANCH   5  13
BRANCH   6  15
ATOM     15  O   UNL     1      10.231   2.239  21.665  0.00  0.00    -0.365 OA
ATOM     16  H   UNL     1       9.795   3.109  21.665  0.00  0.00    +0.213 HD
ENDBRANCH   6  15
TORSDOF 4
ENDMDL
