MODEL 1
REMARK VINA RESULT:      -7.0      0.000      0.000
REMARK  Name = 
REMARK  27 active torsions:
REMARK  status: ('A' for Active; 'I' for Inactive)
REMARK    1  A    between atoms: C_1  and  N_2
REMARK    2  A    between atoms: C_3  and  C_5
REMARK    3  A    between atoms: C_5  and  N_7
REMARK    4  A    between atoms: C_5  and  C_58
REMARK    5  A    between atoms: C_8  and  C_10
REMARK    6  A    between atoms: C_10  and  O_12
REMARK    7  A    between atoms: C_10  and  C_25
REMARK    8  A    between atoms: O_12  and  C_13
REMARK    9  A    between atoms: C_13  and  C_14
REMARK   10  A    between atoms: C_17  and  C_20
REMARK   11  A    between atoms: C_25  and  O_27
REMARK   12  A    between atoms: C_25  and  C_28
REMARK   13  A    between atoms: C_28  and  O_30
REMARK   14  A    between atoms: C_28  and  C_31
REMARK   15  A    between atoms: C_31  and  O_33
REMARK   16  A    between atoms: C_31  and  C_46
REMARK   17  A    between atoms: O_33  and  C_34
REMARK   18  A    between atoms: C_34  and  C_35
REMARK   19  A    between atoms: C_38  and  C_41
REMARK   20  A    between atoms: N_48  and  C_49
REMARK   21  A    between atoms: C_49  and  C_51
REMARK   22  A    between atoms: C_49  and  C_54
REMARK   23  A    between atoms: C_51  and  C_52
REMARK   24  A    between atoms: C_51  and  C_53
REMARK   25  A    between atoms: N_56  and  C_57
REMARK   26  A    between atoms: C_58  and  C_59
REMARK   27  A    between atoms: C_58  and  C_60
REMARK                            x       y       z     vdW  Elec       q    Type
REMARK                         _______ _______ _______ _____ _____    ______ ____
ROOT
ATOM      1  C   UNL     1       8.068   1.657  21.931  0.00  0.00    +0.184 C 
ENDROOT
BRANCH   1   2
ATOM      2  O   UNL     1       7.955   1.705  20.489  0.00  0.00    -0.386 OA
ATOM      3  H   UNL     1       8.770   2.087  20.109  0.00  0.00    +0.210 HD
ENDBRANCH   1   2
BRANCH   1   4
ATOM      4  C   UNL     1       7.322   2.923  22.532  0.00  0.00    +0.184 C 
BRANCH   4   5
ATOM      5  O   UNL     1       6.683   3.698  21.498  0.00  0.00    -0.386 OA
ATOM      6  H   UNL     1       7.163   3.580  20.649  0.00  0.00    +0.210 HD
ENDBRANCH   4   5
BRANCH   4   7
ATOM      7  C   UNL     1       6.230   2.723  23.719  0.00  0.00    +0.235 C 
BRANCH   7   8
ATOM      8  C   UNL     1       4.805   3.486  23.492  0.00  0.00    +0.245 C 
ATOM      9  N   UNL     1       3.765   2.864  22.777  0.00  0.00    -0.302 N 
ATOM     10  H   UNL     1       3.973   1.966  22.351  0.00  0.00    +0.150 HD
ATOM     11  O   UNL     1       4.646   4.649  23.877  0.00  0.00    -0.273 OA
BRANCH   9  12
ATOM     12  C   UNL     1       2.598   3.652  22.248  0.00  0.00    +0.161 C 
BRANCH  12  13
ATOM     13  C   UNL     1       2.133   3.186  20.830  0.00  0.00    +0.233 C 
ATOM     14  N   UNL     1       2.269   4.174  19.861  0.00  0.00    -0.317 N 
ATOM     15  H   UNL     1       2.756   5.027  20.108  0.00  0.00    +0.148 HD
ATOM     16  C   UNL     1       1.893   4.017  18.477  0.00  0.00    +0.128 C 
ATOM     17  O   UNL     1       1.599   2.101  20.622  0.00  0.00    -0.274 OA
ENDBRANCH  12  13
BRANCH  12  18
ATOM     18  C   UNL     1       1.278   3.750  23.108  0.00  0.00    +0.012 C 
ATOM     19  C   UNL     1       0.699   5.158  23.221  0.00  0.00    +0.009 C 
ATOM     20  C   UNL     1       1.317   3.057  24.471  0.00  0.00    +0.009 C 
ENDBRANCH  12  18
ENDBRANCH   9  12
ENDBRANCH   7   8
BRANCH   7  21
ATOM     21  O   UNL     1       6.058   1.311  24.062  0.00  0.00    -0.360 OA
BRANCH  21  22
ATOM     22  C   UNL     1       6.713   0.765  25.248  0.00  0.00    +0.196 C 
BRANCH  22  23
ATOM     23  C   UNL     1       6.188  -0.570  25.833  0.00  0.00    -0.022 A 
ATOM     24  C   UNL     1       4.836  -1.006  25.684  0.00  0.00    +0.006 A 
ATOM     25  C   UNL     1       4.393  -2.279  26.138  0.00  0.00    +0.009 A 
ATOM     26  C   UNL     1       5.297  -3.156  26.754  0.00  0.00    -0.017 A 
ATOM     27  C   UNL     1       6.612  -2.710  26.930  0.00  0.00    +0.009 A 
ATOM     28  C   UNL     1       7.038  -1.438  26.472  0.00  0.00    +0.006 A 
BRANCH  26  29
ATOM     29  C   UNL     1       4.954  -4.522  27.199  0.00  0.00    -0.011 A 
ATOM     30  C   UNL     1       5.892  -5.577  27.501  0.00  0.00    +0.016 A 
ATOM     31  C   UNL     1       5.293  -6.729  27.971  0.00  0.00    +0.046 A 
ATOM     32  S   UNL     1       3.598  -6.572  28.033  0.00  0.00    -0.104 S 
ATOM     33  C   UNL     1       3.664  -4.960  27.439  0.00  0.00    +0.053 A 
ENDBRANCH  26  29
ENDBRANCH  22  23
ENDBRANCH  21  22
ENDBRANCH   7  21
ENDBRANCH   4   7
ENDBRANCH   1   4
BRANCH   1  34
ATOM     34  C   UNL     1       9.630   1.329  22.265  0.00  0.00    +0.235 C 
BRANCH  34  37
ATOM     35  N   UNL     1      10.290   3.624  23.125  0.00  0.00    -0.302 N 
ATOM     36  H   UNL     1      10.227   3.864  22.140  0.00  0.00    +0.150 HD
ATOM     37  C   UNL     1      10.222   2.262  23.410  0.00  0.00    +0.245 C 
ATOM     38  O   UNL     1      10.583   1.821  24.505  0.00  0.00    -0.273 OA
BRANCH  35  39
ATOM     39  C   UNL     1      10.713   4.692  24.081  0.00  0.00    +0.161 C 
BRANCH  39  43
ATOM     40  C   UNL     1      13.577   5.789  21.780  0.00  0.00    +0.128 C 
ATOM     41  N   UNL     1      12.373   5.240  22.338  0.00  0.00    -0.317 N 
ATOM     42  H   UNL     1      11.794   4.616  21.782  0.00  0.00    +0.148 HD
ATOM     43  C   UNL     1      12.018   5.426  23.663  0.00  0.00    +0.233 C 
ATOM     44  O   UNL     1      12.757   6.040  24.433  0.00  0.00    -0.274 OA
ENDBRANCH  39  43
BRANCH  39  45
ATOM     45  C   UNL     1       9.596   5.741  24.397  0.00  0.00    +0.012 C 
ATOM     46  C   UNL     1       8.549   5.205  25.379  0.00  0.00    +0.009 C 
ATOM     47  C   UNL     1       8.889   6.296  23.160  0.00  0.00    +0.009 C 
ENDBRANCH  39  45
ENDBRANCH  35  39
ENDBRANCH  34  37
BRANCH  34  48
ATOM     48  O   UNL     1      10.134   0.003  22.539  0.00  0.00    -0.360 OA
BRANCH  48  49
ATOM     49  C   UNL     1       9.594  -0.885  23.527  0.00  0.00    +0.196 C 
BRANCH  49  50
ATOM     50  C   UNL     1       8.509  -1.943  23.251  0.00  0.00    -0.022 A 
ATOM     51  C   UNL     1       8.709  -3.250  23.761  0.00  0.00    +0.006 A 
ATOM     52  C   UNL     1       7.701  -4.241  23.741  0.00  0.00    +0.009 A 
ATOM     53  C   UNL     1       6.437  -3.967  23.215  0.00  0.00    -0.017 A 
ATOM     54  C   UNL     1       6.277  -2.721  22.582  0.00  0.00    +0.009 A 
ATOM     55  C   UNL     1       7.295  -1.724  22.599  0.00  0.00    +0.006 A 
BRANCH  53  56
ATOM     56  C   UNL     1       5.309  -4.897  23.449  0.00  0.00    -0.011 A 
ATOM     57  C   UNL     1       5.398  -6.252  23.940  0.00  0.00    +0.016 A 
ATOM     58  C   UNL     1       4.172  -6.826  24.206  0.00  0.00    +0.046 A 
ATOM     59  S   UNL     1       2.889  -5.770  23.829  0.00  0.00    -0.104 S 
ATOM     60  C   UNL     1       3.976  -4.542  23.317  0.00  0.00    +0.053 A 
ENDBRANCH  53  56
ENDBRANCH  49  50
ENDBRANCH  48  49
ENDBRANCH  34  48
ENDBRANCH   1  34
TORSDOF 21
ENDMDL
MODEL 2
REMARK VINA RESULT:      -6.8      1.889      5.290
REMARK  Name = 
REMARK  27 active torsions:
REMARK  status: ('A' for Active; 'I' for Inactive)
REMARK    1  A    between atoms: C_1  and  N_2
REMARK    2  A    between atoms: C_3  and  C_5
REMARK    3  A    between atoms: C_5  and  N_7
REMARK    4  A    between atoms: C_5  and  C_58
REMARK    5  A    between atoms: C_8  and  C_10
REMARK    6  A    between atoms: C_10  and  O_12
REMARK    7  A    between atoms: C_10  and  C_25
REMARK    8  A    between atoms: O_12  and  C_13
REMARK    9  A    between atoms: C_13  and  C_14
REMARK   10  A    between atoms: C_17  and  C_20
REMARK   11  A    between atoms: C_25  and  O_27
REMARK   12  A    between atoms: C_25  and  C_28
REMARK   13  A    between atoms: C_28  and  O_30
REMARK   14  A    between atoms: C_28  and  C_31
REMARK   15  A    between atoms: C_31  and  O_33
REMARK   16  A    between atoms: C_31  and  C_46
REMARK   17  A    between atoms: O_33  and  C_34
REMARK   18  A    between atoms: C_34  and  C_35
REMARK   19  A    between atoms: C_38  and  C_41
REMARK   20  A    between atoms: N_48  and  C_49
REMARK   21  A    between atoms: C_49  and  C_51
REMARK   22  A    between atoms: C_49  and  C_54
REMARK   23  A    between atoms: C_51  and  C_52
REMARK   24  A    between atoms: C_51  and  C_53
REMARK   25  A    between atoms: N_56  and  C_57
REMARK   26  A    between atoms: C_58  and  C_59
REMARK   27  A    between atoms: C_58  and  C_60
REMARK                            x       y       z     vdW  Elec       q    Type
REMARK                         _______ _______ _______ _____ _____    ______ ____
ROOT
ATOM      1  C   UNL     1       9.305  -0.063  22.044  0.00  0.00    +0.184 C 
ENDROOT
BRANCH   1   2
ATOM      2  O   UNL     1      10.083  -1.193  22.504  0.00  0.00    -0.386 OA
ATOM      3  H   UNL     1       9.737  -1.502  23.362  0.00  0.00    +0.210 HD
ENDBRANCH   1   2
BRANCH   1   4
ATOM      4  C   UNL     1      10.198   1.242  22.170  0.00  0.00    +0.184 C 
BRANCH   4   5
ATOM      5  O   UNL     1       9.649   2.333  21.405  0.00  0.00    -0.386 OA
ATOM      6  H   UNL     1      10.178   2.466  20.588  0.00  0.00    +0.210 HD
ENDBRANCH   4   5
BRANCH   4   7
ATOM      7  C   UNL     1      10.558   1.829  23.643  0.00  0.00    +0.235 C 
BRANCH   7   8
ATOM      8  C   UNL     1      10.802   3.442  23.711  0.00  0.00    +0.245 C 
ATOM      9  N   UNL     1       9.767   4.307  24.115  0.00  0.00    -0.302 N 
ATOM     10  H   UNL     1       8.858   3.888  24.281  0.00  0.00    +0.150 HD
ATOM     11  O   UNL     1      11.871   3.934  23.335  0.00  0.00    -0.273 OA
BRANCH   9  12
ATOM     12  C   UNL     1       9.835   5.786  23.851  0.00  0.00    +0.161 C 
BRANCH  12  13
ATOM     13  C   UNL     1       8.456   6.403  23.449  0.00  0.00    +0.233 C 
ATOM     14  N   UNL     1       8.129   6.183  22.116  0.00  0.00    -0.317 N 
ATOM     15  H   UNL     1       8.714   5.560  21.573  0.00  0.00    +0.148 HD
ATOM     16  C   UNL     1       6.927   6.665  21.480  0.00  0.00    +0.128 C 
ATOM     17  O   UNL     1       7.791   7.106  24.205  0.00  0.00    -0.274 OA
ENDBRANCH  12  13
BRANCH  12  18
ATOM     18  C   UNL     1      10.413   6.743  24.964  0.00  0.00    +0.012 C 
ATOM     19  C   UNL     1      11.933   6.715  25.098  0.00  0.00    +0.009 C 
ATOM     20  C   UNL     1       9.737   6.659  26.334  0.00  0.00    +0.009 C 
ENDBRANCH  12  18
ENDBRANCH   9  12
ENDBRANCH   7   8
BRANCH   7  21
ATOM     21  O   UNL     1       9.609   1.366  24.656  0.00  0.00    -0.360 OA
BRANCH  21  22
ATOM     22  C   UNL     1       9.987   0.291  25.570  0.00  0.00    +0.196 C 
BRANCH  22  23
ATOM     23  C   UNL     1       8.965  -0.842  25.839  0.00  0.00    -0.022 A 
ATOM     24  C   UNL     1       9.240  -2.217  25.572  0.00  0.00    +0.006 A 
ATOM     25  C   UNL     1       8.332  -3.256  25.918  0.00  0.00    +0.009 A 
ATOM     26  C   UNL     1       7.119  -2.944  26.548  0.00  0.00    -0.017 A 
ATOM     27  C   UNL     1       6.837  -1.592  26.775  0.00  0.00    +0.009 A 
ATOM     28  C   UNL     1       7.753  -0.568  26.424  0.00  0.00    +0.006 A 
BRANCH  26  29
ATOM     29  C   UNL     1       6.141  -3.951  27.007  0.00  0.00    -0.011 A 
ATOM     30  C   UNL     1       4.776  -3.691  27.401  0.00  0.00    +0.016 A 
ATOM     31  C   UNL     1       4.065  -4.833  27.711  0.00  0.00    +0.046 A 
ATOM     32  S   UNL     1       5.028  -6.230  27.558  0.00  0.00    -0.104 S 
ATOM     33  C   UNL     1       6.394  -5.309  27.069  0.00  0.00    +0.053 A 
ENDBRANCH  26  29
ENDBRANCH  22  23
ENDBRANCH  21  22
ENDBRANCH   7  21
ENDBRANCH   4   7
ENDBRANCH   1   4
BRANCH   1  34
ATOM     34  C   UNL     1       7.841  -0.187  22.753  0.00  0.00    +0.235 C 
BRANCH  34  37
ATOM     35  N   UNL     1       6.568   1.672  23.922  0.00  0.00    -0.302 N 
ATOM     36  H   UNL     1       6.558   1.002  24.685  0.00  0.00    +0.150 HD
ATOM     37  C   UNL     1       7.016   1.172  22.700  0.00  0.00    +0.245 C 
ATOM     38  O   UNL     1       6.797   1.775  21.646  0.00  0.00    -0.273 OA
BRANCH  35  39
ATOM     39  C   UNL     1       5.867   2.976  24.122  0.00  0.00    +0.161 C 
BRANCH  39  43
ATOM     40  C   UNL     1       3.060   3.808  21.647  0.00  0.00    +0.128 C 
ATOM     41  N   UNL     1       4.319   3.629  22.315  0.00  0.00    -0.317 N 
ATOM     42  H   UNL     1       5.163   4.045  21.927  0.00  0.00    +0.148 HD
ATOM     43  C   UNL     1       4.423   3.006  23.546  0.00  0.00    +0.233 C 
ATOM     44  O   UNL     1       3.419   2.620  24.144  0.00  0.00    -0.274 OA
ENDBRANCH  39  43
BRANCH  39  45
ATOM     45  C   UNL     1       5.852   3.466  25.609  0.00  0.00    +0.012 C 
ATOM     46  C   UNL     1       5.465   4.943  25.734  0.00  0.00    +0.009 C 
ATOM     47  C   UNL     1       7.159   3.221  26.363  0.00  0.00    +0.009 C 
ENDBRANCH  39  45
ENDBRANCH  35  39
ENDBRANCH  34  37
BRANCH  34  48
ATOM     48  O   UNL     1       6.890  -1.235  22.459  0.00  0.00    -0.360 OA
BRANCH  48  49
ATOM     49  C   UNL     1       7.188  -2.637  22.486  0.00  0.00    +0.196 C 
BRANCH  49  50
ATOM     50  C   UNL     1       6.252  -3.719  23.055  0.00  0.00    -0.022 A 
ATOM     51  C   UNL     1       4.964  -3.322  23.494  0.00  0.00    +0.006 A 
ATOM     52  C   UNL     1       3.957  -4.248  23.847  0.00  0.00    +0.009 A 
ATOM     53  C   UNL     1       4.189  -5.623  23.767  0.00  0.00    -0.017 A 
ATOM     54  C   UNL     1       5.503  -6.022  23.468  0.00  0.00    +0.009 A 
ATOM     55  C   UNL     1       6.520  -5.087  23.117  0.00  0.00    +0.006 A 
BRANCH  53  56
ATOM     56  C   UNL     1       3.063  -6.580  23.860  0.00  0.00    -0.011 A 
ATOM     57  C   UNL     1       1.929  -6.665  22.971  0.00  0.00    +0.016 A 
ATOM     58  C   UNL     1       1.117  -7.754  23.211  0.00  0.00    +0.046 A 
ATOM     59  S   UNL     1       1.672  -8.672  24.535  0.00  0.00    -0.104 S 
ATOM     60  C   UNL     1       3.004  -7.614  24.781  0.00  0.00    +0.053 A 
ENDBRANCH  53  56
ENDBRANCH  49  50
ENDBRANCH  48  49
ENDBRANCH  34  48
ENDBRANCH   1  34
TORSDOF 21
ENDMDL
MODEL 3
REMARK VINA RESULT:      -6.8      4.671      9.606
REMARK  Name = 
REMARK  27 active torsions:
REMARK  status: ('A' for Active; 'I' for Inactive)
REMARK    1  A    between atoms: C_1  and  N_2
REMARK    2  A    between atoms: C_3  and  C_5
REMARK    3  A    between atoms: C_5  and  N_7
REMARK    4  A    between atoms: C_5  and  C_58
REMARK    5  A    between atoms: C_8  and  C_10
REMARK    6  A    between atoms: C_10  and  O_12
REMARK    7  A    between atoms: C_10  and  C_25
REMARK    8  A    between atoms: O_12  and  C_13
REMARK    9  A    between atoms: C_13  and  C_14
REMARK   10  A    between atoms: C_17  and  C_20
REMARK   11  A    between atoms: C_25  and  O_27
REMARK   12  A    between atoms: C_25  and  C_28
REMARK   13  A    between atoms: C_28  and  O_30
REMARK   14  A    between atoms: C_28  and  C_31
REMARK   15  A    between atoms: C_31  and  O_33
REMARK   16  A    between atoms: C_31  and  C_46
REMARK   17  A    between atoms: O_33  and  C_34
REMARK   18  A    between atoms: C_34  and  C_35
REMARK   19  A    between atoms: C_38  and  C_41
REMARK   20  A    between atoms: N_48  and  C_49
REMARK   21  A    between atoms: C_49  and  C_51
REMARK   22  A    between atoms: C_49  and  C_54
REMARK   23  A    between atoms: C_51  and  C_52
REMARK   24  A    between atoms: C_51  and  C_53
REMARK   25  A    between atoms: N_56  and  C_57
REMARK   26  A    between atoms: C_58  and  C_59
REMARK   27  A    between atoms: C_58  and  C_60
REMARK                            x       y       z     vdW  Elec       q    Type
REMARK                         _______ _______ _______ _____ _____    ______ ____
ROOT
ATOM      1  C   UNL     1       8.336  -5.309  24.696  0.00  0.00    +0.184 C 
ENDROOT
BRANCH   1   2
ATOM      2  O   UNL     1       9.742  -5.055  24.925  0.00  0.00    -0.386 OA
ATOM      3  H   UNL     1       9.886  -4.833  25.865  0.00  0.00    +0.210 HD
ENDBRANCH   1   2
BRANCH   1   4
ATOM      4  C   UNL     1       8.062  -5.223  23.135  0.00  0.00    +0.184 C 
BRANCH   4   5
ATOM      5  O   UNL     1       7.161  -6.260  22.700  0.00  0.00    -0.386 OA
ATOM      6  H   UNL     1       6.993  -6.886  23.438  0.00  0.00    +0.210 HD
ENDBRANCH   4   5
BRANCH   4   7
ATOM      7  C   UNL     1       7.530  -3.830  22.489  0.00  0.00    +0.235 C 
BRANCH   7   8
ATOM      8  C   UNL     1       5.912  -3.614  22.530  0.00  0.00    +0.245 C 
ATOM      9  N   UNL     1       5.173  -3.952  23.680  0.00  0.00    -0.302 N 
ATOM     10  H   UNL     1       5.681  -4.400  24.436  0.00  0.00    +0.150 HD
ATOM     11  O   UNL     1       5.303  -3.227  21.528  0.00  0.00    -0.273 OA
BRANCH   9  12
ATOM     12  C   UNL     1       3.678  -4.105  23.632  0.00  0.00    +0.161 C 
BRANCH  12  13
ATOM     13  C   UNL     1       3.219  -5.491  23.072  0.00  0.00    +0.233 C 
ATOM     14  N   UNL     1       1.837  -5.639  23.052  0.00  0.00    -0.317 N 
ATOM     15  H   UNL     1       1.263  -4.833  23.265  0.00  0.00    +0.148 HD
ATOM     16  C   UNL     1       1.150  -6.828  22.606  0.00  0.00    +0.128 C 
ATOM     17  O   UNL     1       4.003  -6.392  22.789  0.00  0.00    -0.274 OA
ENDBRANCH  12  13
BRANCH  12  18
ATOM     18  C   UNL     1       2.837  -3.889  24.950  0.00  0.00    +0.012 C 
ATOM     19  C   UNL     1       1.344  -3.668  24.720  0.00  0.00    +0.009 C 
ATOM     20  C   UNL     1       3.400  -2.869  25.942  0.00  0.00    +0.009 C 
ENDBRANCH  12  18
ENDBRANCH   9  12
ENDBRANCH   7   8
BRANCH   7  21
ATOM     21  O   UNL     1       8.259  -2.675  23.017  0.00  0.00    -0.360 OA
BRANCH  21  22
ATOM     22  C   UNL     1       9.037  -1.831  22.113  0.00  0.00    +0.196 C 
BRANCH  22  23
ATOM     23  C   UNL     1       9.396  -0.395  22.572  0.00  0.00    -0.022 A 
ATOM     24  C   UNL     1      10.229  -0.125  23.700  0.00  0.00    +0.006 A 
ATOM     25  C   UNL     1      10.632   1.194  24.048  0.00  0.00    +0.009 A 
ATOM     26  C   UNL     1      10.214   2.283  23.270  0.00  0.00    -0.017 A 
ATOM     27  C   UNL     1       9.368   2.016  22.187  0.00  0.00    +0.009 A 
ATOM     28  C   UNL     1       8.975   0.696  21.853  0.00  0.00    +0.006 A 
BRANCH  26  29
ATOM     29  C   UNL     1      10.630   3.679  23.507  0.00  0.00    -0.011 A 
ATOM     30  C   UNL     1      11.962   4.210  23.331  0.00  0.00    +0.016 A 
ATOM     31  C   UNL     1      12.046   5.570  23.551  0.00  0.00    +0.046 A 
ATOM     32  S   UNL     1      10.538   6.227  23.996  0.00  0.00    -0.104 S 
ATOM     33  C   UNL     1       9.769   4.694  23.886  0.00  0.00    +0.053 A 
ENDBRANCH  26  29
ENDBRANCH  22  23
ENDBRANCH  21  22
ENDBRANCH   7  21
ENDBRANCH   4   7
ENDBRANCH   1   4
BRANCH   1  34
ATOM     34  C   UNL     1       7.517  -4.399  25.774  0.00  0.00    +0.235 C 
BRANCH  34  37
ATOM     35  N   UNL     1       5.572  -5.113  27.240  0.00  0.00    -0.302 N 
ATOM     36  H   UNL     1       5.139  -4.288  26.836  0.00  0.00    +0.150 HD
ATOM     37  C   UNL     1       6.935  -5.255  26.982  0.00  0.00    +0.245 C 
ATOM     38  O   UNL     1       7.633  -6.024  27.648  0.00  0.00    -0.273 OA
BRANCH  35  39
ATOM     39  C   UNL     1       4.795  -5.888  28.254  0.00  0.00    +0.161 C 
BRANCH  39  43
ATOM     40  C   UNL     1       3.801  -2.680  30.103  0.00  0.00    +0.128 C 
ATOM     41  N   UNL     1       4.245  -3.653  29.144  0.00  0.00    -0.317 N 
ATOM     42  H   UNL     1       4.689  -3.349  28.281  0.00  0.00    +0.148 HD
ATOM     43  C   UNL     1       4.205  -5.013  29.395  0.00  0.00    +0.233 C 
ATOM     44  O   UNL     1       3.825  -5.442  30.485  0.00  0.00    -0.274 OA
ENDBRANCH  39  43
BRANCH  39  45
ATOM     45  C   UNL     1       3.668  -6.783  27.640  0.00  0.00    +0.012 C 
ATOM     46  C   UNL     1       3.944  -7.154  26.179  0.00  0.00    +0.009 C 
ATOM     47  C   UNL     1       2.264  -6.188  27.752  0.00  0.00    +0.009 C 
ENDBRANCH  39  45
ENDBRANCH  35  39
ENDBRANCH  34  37
BRANCH  34  48
ATOM     48  O   UNL     1       8.038  -3.188  26.366  0.00  0.00    -0.360 OA
BRANCH  48  49
ATOM     49  C   UNL     1       7.238  -2.063  26.755  0.00  0.00    +0.196 C 
BRANCH  49  50
ATOM     50  C   UNL     1       7.219  -0.709  26.022  0.00  0.00    -0.022 A 
ATOM     51  C   UNL     1       6.458  -0.608  24.830  0.00  0.00    +0.006 A 
ATOM     52  C   UNL     1       6.208   0.624  24.185  0.00  0.00    +0.009 A 
ATOM     53  C   UNL     1       6.702   1.821  24.709  0.00  0.00    -0.017 A 
ATOM     54  C   UNL     1       7.571   1.713  25.809  0.00  0.00    +0.009 A 
ATOM     55  C   UNL     1       7.826   0.470  26.456  0.00  0.00    +0.006 A 
BRANCH  53  56
ATOM     56  C   UNL     1       6.209   3.122  24.202  0.00  0.00    -0.011 A 
ATOM     57  C   UNL     1       5.598   3.370  22.918  0.00  0.00    +0.016 A 
ATOM     58  C   UNL     1       5.097   4.648  22.780  0.00  0.00    +0.046 A 
ATOM     59  S   UNL     1       5.388   5.590  24.171  0.00  0.00    -0.104 S 
ATOM     60  C   UNL     1       6.179   4.283  24.958  0.00  0.00    +0.053 A 
ENDBRANCH  53  56
ENDBRANCH  49  50
ENDBRANCH  48  49
ENDBRANCH  34  48
ENDBRANCH   1  34
TORSDOF 21
ENDMDL
MODEL 4
REMARK VINA RESULT:      -6.7      1.849      5.820
REMARK  Name = 
REMARK  27 active torsions:
REMARK  status: ('A' for Active; 'I' for Inactive)
REMARK    1  A    between atoms: C_1  and  N_2
REMARK    2  A    between atoms: C_3  and  C_5
REMARK    3  A    between atoms: C_5  and  N_7
REMARK    4  A    between atoms: C_5  and  C_58
REMARK    5  A    between atoms: C_8  and  C_10
REMARK    6  A    between atoms: C_10  and  O_12
REMARK    7  A    between atoms: C_10  and  C_25
REMARK    8  A    between atoms: O_12  and  C_13
REMARK    9  A    between atoms: C_13  and  C_14
REMARK   10  A    between atoms: C_17  and  C_20
REMARK   11  A    between atoms: C_25  and  O_27
REMARK   12  A    between atoms: C_25  and  C_28
REMARK   13  A    between atoms: C_28  and  O_30
REMARK   14  A    between atoms: C_28  and  C_31
REMARK   15  A    between atoms: C_31  and  O_33
REMARK   16  A    between atoms: C_31  and  C_46
REMARK   17  A    between atoms: O_33  and  C_34
REMARK   18  A    between atoms: C_34  and  C_35
REMARK   19  A    between atoms: C_38  and  C_41
REMARK   20  A    between atoms: N_48  and  C_49
REMARK   21  A    between atoms: C_49  and  C_51
REMARK   22  A    between atoms: C_49  and  C_54
REMARK   23  A    between atoms: C_51  and  C_52
REMARK   24  A    between atoms: C_51  and  C_53
REMARK   25  A    between atoms: N_56  and  C_57
REMARK   26  A    between atoms: C_58  and  C_59
REMARK   27  A    between atoms: C_58  and  C_60
REMARK                            x       y       z     vdW  Elec       q    Type
REMARK                         _______ _______ _______ _____ _____    ______ ____
ROOT
ATOM      1  C   UNL     1       8.631  -0.425  21.954  0.00  0.00    +0.184 C 
ENDROOT
BRANCH   1   2
ATOM      2  O   UNL     1       9.126  -1.783  21.906  0.00  0.00    -0.386 OA
ATOM      3  H   UNL     1       8.945  -2.228  22.755  0.00  0.00    +0.210 HD
ENDBRANCH   1   2
BRANCH   1   4
ATOM      4  C   UNL     1       9.845   0.537  22.298  0.00  0.00    +0.184 C 
BRANCH   4   5
ATOM      5  O   UNL     1       9.841   1.711  21.463  0.00  0.00    -0.386 OA
ATOM      6  H   UNL     1       8.933   1.876  21.126  0.00  0.00    +0.210 HD
ENDBRANCH   4   5
BRANCH   4   7
ATOM      7  C   UNL     1      10.059   1.044  23.828  0.00  0.00    +0.235 C 
BRANCH   7   8
ATOM      8  C   UNL     1       9.744   2.624  24.091  0.00  0.00    +0.245 C 
ATOM      9  N   UNL     1      10.469   3.622  23.413  0.00  0.00    -0.302 N 
ATOM     10  H   UNL     1      11.236   3.312  22.825  0.00  0.00    +0.150 HD
ATOM     11  O   UNL     1       8.920   2.968  24.944  0.00  0.00    -0.273 OA
BRANCH   9  12
ATOM     12  C   UNL     1      10.460   5.051  23.882  0.00  0.00    +0.161 C 
BRANCH  12  13
ATOM     13  C   UNL     1      11.813   5.790  23.629  0.00  0.00    +0.233 C 
ATOM     14  N   UNL     1      12.403   5.446  22.418  0.00  0.00    -0.317 N 
ATOM     15  H   UNL     1      11.874   4.876  21.769  0.00  0.00    +0.148 HD
ATOM     16  C   UNL     1      13.667   5.962  21.949  0.00  0.00    +0.128 C 
ATOM     17  O   UNL     1      12.351   6.510  24.466  0.00  0.00    -0.274 OA
ENDBRANCH  12  13
BRANCH  12  18
ATOM     18  C   UNL     1       9.343   6.031  23.350  0.00  0.00    +0.012 C 
ATOM     19  C   UNL     1       8.840   7.038  24.382  0.00  0.00    +0.009 C 
ATOM     20  C   UNL     1       8.179   5.376  22.605  0.00  0.00    +0.009 C 
ENDBRANCH  12  18
ENDBRANCH   9  12
ENDBRANCH   7   8
BRANCH   7  21
ATOM     21  O   UNL     1       9.378   0.173  24.787  0.00  0.00    -0.360 OA
BRANCH  21  22
ATOM     22  C   UNL     1       9.850  -1.195  24.990  0.00  0.00    +0.196 C 
BRANCH  22  23
ATOM     23  C   UNL     1       8.837  -2.259  25.484  0.00  0.00    -0.022 A 
ATOM     24  C   UNL     1       9.021  -3.660  25.280  0.00  0.00    +0.006 A 
ATOM     25  C   UNL     1       8.136  -4.630  25.827  0.00  0.00    +0.009 A 
ATOM     26  C   UNL     1       7.039  -4.222  26.599  0.00  0.00    -0.017 A 
ATOM     27  C   UNL     1       6.843  -2.845  26.765  0.00  0.00    +0.009 A 
ATOM     28  C   UNL     1       7.734  -1.891  26.215  0.00  0.00    +0.006 A 
BRANCH  26  29
ATOM     29  C   UNL     1       6.103  -5.149  27.264  0.00  0.00    -0.011 A 
ATOM     30  C   UNL     1       5.501  -6.320  26.671  0.00  0.00    +0.016 A 
ATOM     31  C   UNL     1       4.725  -7.047  27.551  0.00  0.00    +0.046 A 
ATOM     32  S   UNL     1       4.685  -6.325  29.094  0.00  0.00    -0.104 S 
ATOM     33  C   UNL     1       5.713  -5.043  28.588  0.00  0.00    +0.053 A 
ENDBRANCH  26  29
ENDBRANCH  22  23
ENDBRANCH  21  22
ENDBRANCH   7  21
ENDBRANCH   4   7
ENDBRANCH   1   4
BRANCH   1  34
ATOM     34  C   UNL     1       7.268  -0.459  22.850  0.00  0.00    +0.235 C 
BRANCH  34  37
ATOM     35  N   UNL     1       5.846   1.204  24.138  0.00  0.00    -0.302 N 
ATOM     36  H   UNL     1       5.581   0.372  24.656  0.00  0.00    +0.150 HD
ATOM     37  C   UNL     1       6.580   0.971  22.976  0.00  0.00    +0.245 C 
ATOM     38  O   UNL     1       6.701   1.844  22.113  0.00  0.00    -0.273 OA
BRANCH  35  39
ATOM     39  C   UNL     1       5.203   2.499  24.514  0.00  0.00    +0.161 C 
BRANCH  39  43
ATOM     40  C   UNL     1       2.688   3.371  21.755  0.00  0.00    +0.128 C 
ATOM     41  N   UNL     1       3.865   3.068  22.519  0.00  0.00    -0.317 N 
ATOM     42  H   UNL     1       4.786   3.191  22.105  0.00  0.00    +0.148 HD
ATOM     43  C   UNL     1       3.811   2.722  23.858  0.00  0.00    +0.233 C 
ATOM     44  O   UNL     1       2.739   2.708  24.462  0.00  0.00    -0.274 OA
ENDBRANCH  39  43
BRANCH  39  45
ATOM     45  C   UNL     1       5.101   2.732  26.058  0.00  0.00    +0.012 C 
ATOM     46  C   UNL     1       5.187   4.215  26.434  0.00  0.00    +0.009 C 
ATOM     47  C   UNL     1       6.123   1.945  26.879  0.00  0.00    +0.009 C 
ENDBRANCH  39  45
ENDBRANCH  35  39
ENDBRANCH  34  37
BRANCH  34  48
ATOM     48  O   UNL     1       6.188  -1.396  22.639  0.00  0.00    -0.360 OA
BRANCH  48  49
ATOM     49  C   UNL     1       6.241  -2.789  22.975  0.00  0.00    +0.196 C 
BRANCH  49  50
ATOM     50  C   UNL     1       5.021  -3.639  23.373  0.00  0.00    -0.022 A 
ATOM     51  C   UNL     1       4.838  -4.886  22.724  0.00  0.00    +0.006 A 
ATOM     52  C   UNL     1       3.875  -5.831  23.144  0.00  0.00    +0.009 A 
ATOM     53  C   UNL     1       3.051  -5.576  24.243  0.00  0.00    -0.017 A 
ATOM     54  C   UNL     1       3.131  -4.289  24.802  0.00  0.00    +0.009 A 
ATOM     55  C   UNL     1       4.099  -3.334  24.376  0.00  0.00    +0.006 A 
BRANCH  53  56
ATOM     56  C   UNL     1       2.252  -6.665  24.850  0.00  0.00    -0.011 A 
ATOM     57  C   UNL     1       2.342  -8.073  24.544  0.00  0.00    +0.016 A 
ATOM     58  C   UNL     1       1.584  -8.871  25.376  0.00  0.00    +0.046 A 
ATOM     59  S   UNL     1       0.714  -7.944  26.512  0.00  0.00    -0.104 S 
ATOM     60  C   UNL     1       1.359  -6.477  25.893  0.00  0.00    +0.053 A 
ENDBRANCH  53  56
ENDBRANCH  49  50
ENDBRANCH  48  49
ENDBRANCH  34  48
ENDBRANCH   1  34
TORSDOF 21
ENDMDL
MODEL 5
REMARK VINA RESULT:      -6.6      4.503      9.192
REMARK  Name = 
REMARK  27 active torsions:
REMARK  status: ('A' for Active; 'I' for Inactive)
REMARK    1  A    between atoms: C_1  and  N_2
REMARK    2  A    between atoms: C_3  and  C_5
REMARK    3  A    between atoms: C_5  and  N_7
REMARK    4  A    between atoms: C_5  and  C_58
REMARK    5  A    between atoms: C_8  and  C_10
REMARK    6  A    between atoms: C_10  and  O_12
REMARK    7  A    between atoms: C_10  and  C_25
REMARK    8  A    between atoms: O_12  and  C_13
REMARK    9  A    between atoms: C_13  and  C_14
REMARK   10  A    between atoms: C_17  and  C_20
REMARK   11  A    between atoms: C_25  and  O_27
REMARK   12  A    between atoms: C_25  and  C_28
REMARK   13  A    between atoms: C_28  and  O_30
REMARK   14  A    between atoms: C_28  and  C_31
REMARK   15  A    between atoms: C_31  and  O_33
REMARK   16  A    between atoms: C_31  and  C_46
REMARK   17  A    between atoms: O_33  and  C_34
REMARK   18  A    between atoms: C_34  and  C_35
REMARK   19  A    between atoms: C_38  and  C_41
REMARK   20  A    between atoms: N_48  and  C_49
REMARK   21  A    between atoms: C_49  and  C_51
REMARK   22  A    between atoms: C_49  and  C_54
REMARK   23  A    between atoms: C_51  and  C_52
REMARK   24  A    between atoms: C_51  and  C_53
REMARK   25  A    between atoms: N_56  and  C_57
REMARK   26  A    between atoms: C_58  and  C_59
REMARK   27  A    between atoms: C_58  and  C_60
REMARK                            x       y       z     vdW  Elec       q    Type
REMARK                         _______ _______ _______ _____ _____    ______ ____
ROOT
ATOM      1  C   UNL     1       9.069  -4.568  24.638  0.00  0.00    +0.184 C 
ENDROOT
BRANCH   1   2
ATOM      2  O   UNL     1       9.432  -5.950  24.415  0.00  0.00    -0.386 OA
ATOM      3  H   UNL     1      10.333  -6.112  24.754  0.00  0.00    +0.210 HD
ENDBRANCH   1   2
BRANCH   1   4
ATOM      4  C   UNL     1       8.223  -4.484  25.979  0.00  0.00    +0.184 C 
BRANCH   4   5
ATOM      5  O   UNL     1       9.015  -4.852  27.125  0.00  0.00    -0.386 OA
ATOM      6  H   UNL     1       9.408  -5.741  26.987  0.00  0.00    +0.210 HD
ENDBRANCH   4   5
BRANCH   4   7
ATOM      7  C   UNL     1       7.452  -3.104  26.356  0.00  0.00    +0.235 C 
BRANCH   7   8
ATOM      8  C   UNL     1       6.134  -3.278  27.304  0.00  0.00    +0.245 C 
ATOM      9  N   UNL     1       5.126  -2.296  27.316  0.00  0.00    -0.302 N 
ATOM     10  H   UNL     1       5.299  -1.454  26.775  0.00  0.00    +0.150 HD
ATOM     11  O   UNL     1       6.039  -4.233  28.080  0.00  0.00    -0.273 OA
BRANCH   9  12
ATOM     12  C   UNL     1       4.099  -2.241  28.413  0.00  0.00    +0.161 C 
BRANCH  12  13
ATOM     13  C   UNL     1       3.957  -0.823  29.054  0.00  0.00    +0.233 C 
ATOM     14  N   UNL     1       4.608   0.169  28.330  0.00  0.00    -0.317 N 
ATOM     15  H   UNL     1       4.990  -0.069  27.422  0.00  0.00    +0.148 HD
ATOM     16  C   UNL     1       4.656   1.560  28.710  0.00  0.00    +0.128 C 
ATOM     17  O   UNL     1       3.424  -0.629  30.142  0.00  0.00    -0.274 OA
ENDBRANCH  12  13
BRANCH  12  18
ATOM     18  C   UNL     1       2.623  -2.714  28.114  0.00  0.00    +0.012 C 
ATOM     19  C   UNL     1       2.496  -4.183  27.720  0.00  0.00    +0.009 C 
ATOM     20  C   UNL     1       1.813  -1.818  27.175  0.00  0.00    +0.009 C 
ENDBRANCH  12  18
ENDBRANCH   9  12
ENDBRANCH   7   8
BRANCH   7  21
ATOM     21  O   UNL     1       8.376  -2.091  26.868  0.00  0.00    -0.360 OA
BRANCH  21  22
ATOM     22  C   UNL     1       8.755  -0.960  26.025  0.00  0.00    +0.196 C 
BRANCH  22  23
ATOM     23  C   UNL     1       7.680   0.106  25.694  0.00  0.00    -0.022 A 
ATOM     24  C   UNL     1       7.749   1.452  26.167  0.00  0.00    +0.006 A 
ATOM     25  C   UNL     1       6.809   2.445  25.772  0.00  0.00    +0.009 A 
ATOM     26  C   UNL     1       5.773   2.116  24.887  0.00  0.00    -0.017 A 
ATOM     27  C   UNL     1       5.689   0.787  24.455  0.00  0.00    +0.009 A 
ATOM     28  C   UNL     1       6.633  -0.191  24.857  0.00  0.00    +0.006 A 
BRANCH  26  29
ATOM     29  C   UNL     1       4.790   3.086  24.366  0.00  0.00    -0.011 A 
ATOM     30  C   UNL     1       4.025   4.026  25.151  0.00  0.00    +0.016 A 
ATOM     31  C   UNL     1       3.237   4.866  24.391  0.00  0.00    +0.046 A 
ATOM     32  S   UNL     1       3.382   4.527  22.727  0.00  0.00    -0.104 S 
ATOM     33  C   UNL     1       4.506   3.260  23.023  0.00  0.00    +0.053 A 
ENDBRANCH  26  29
ENDBRANCH  22  23
ENDBRANCH  21  22
ENDBRANCH   7  21
ENDBRANCH   4   7
ENDBRANCH   1   4
BRANCH   1  34
ATOM     34  C   UNL     1       8.504  -4.000  23.217  0.00  0.00    +0.235 C 
BRANCH  34  37
ATOM     35  N   UNL     1       6.336  -5.193  23.784  0.00  0.00    -0.302 N 
ATOM     36  H   UNL     1       6.788  -5.300  24.687  0.00  0.00    +0.150 HD
ATOM     37  C   UNL     1       7.155  -4.713  22.763  0.00  0.00    +0.245 C 
ATOM     38  O   UNL     1       6.828  -4.822  21.579  0.00  0.00    -0.273 OA
BRANCH  35  39
ATOM     39  C   UNL     1       4.985  -5.802  23.599  0.00  0.00    +0.161 C 
BRANCH  39  43
ATOM     40  C   UNL     1       4.729  -7.109  27.194  0.00  0.00    +0.128 C 
ATOM     41  N   UNL     1       4.973  -6.336  26.008  0.00  0.00    -0.317 N 
ATOM     42  H   UNL     1       5.544  -5.495  26.059  0.00  0.00    +0.148 HD
ATOM     43  C   UNL     1       4.561  -6.752  24.754  0.00  0.00    +0.233 C 
ATOM     44  O   UNL     1       4.003  -7.838  24.603  0.00  0.00    -0.274 OA
ENDBRANCH  39  43
BRANCH  39  45
ATOM     45  C   UNL     1       3.849  -4.759  23.331  0.00  0.00    +0.012 C 
ATOM     46  C   UNL     1       3.921  -3.557  24.278  0.00  0.00    +0.009 C 
ATOM     47  C   UNL     1       2.438  -5.346  23.367  0.00  0.00    +0.009 C 
ENDBRANCH  39  45
ENDBRANCH  35  39
ENDBRANCH  34  37
BRANCH  34  48
ATOM     48  O   UNL     1       8.323  -2.597  22.924  0.00  0.00    -0.360 OA
BRANCH  48  49
ATOM     49  C   UNL     1       9.282  -1.777  22.244  0.00  0.00    +0.196 C 
BRANCH  49  50
ATOM     50  C   UNL     1       9.374  -0.245  22.377  0.00  0.00    -0.022 A 
ATOM     51  C   UNL     1       8.371   0.539  21.753  0.00  0.00    +0.006 A 
ATOM     52  C   UNL     1       8.243   1.929  21.971  0.00  0.00    +0.009 A 
ATOM     53  C   UNL     1       9.109   2.602  22.835  0.00  0.00    -0.017 A 
ATOM     54  C   UNL     1      10.188   1.860  23.346  0.00  0.00    +0.009 A 
ATOM     55  C   UNL     1      10.320   0.459  23.122  0.00  0.00    +0.006 A 
BRANCH  53  56
ATOM     56  C   UNL     1       8.804   3.982  23.279  0.00  0.00    -0.011 A 
ATOM     57  C   UNL     1       7.700   4.802  22.843  0.00  0.00    +0.016 A 
ATOM     58  C   UNL     1       7.578   5.985  23.542  0.00  0.00    +0.046 A 
ATOM     59  S   UNL     1       8.811   6.156  24.706  0.00  0.00    -0.104 S 
ATOM     60  C   UNL     1       9.503   4.643  24.277  0.00  0.00    +0.053 A 
ENDBRANCH  53  56
ENDBRANCH  49  50
ENDBRANCH  48  49
ENDBRANCH  34  48
ENDBRANCH   1  34
TORSDOF 21
ENDMDL
MODEL 6
REMARK VINA RESULT:      -6.5      2.945      4.445
REMARK  Name = 
REMARK  27 active torsions:
REMARK  status: ('A' for Active; 'I' for Inactive)
REMARK    1  A    between atoms: C_1  and  N_2
REMARK    2  A    between atoms: C_3  and  C_5
REMARK    3  A    between atoms: C_5  and  N_7
REMARK    4  A    between atoms: C_5  and  C_58
REMARK    5  A    between atoms: C_8  and  C_10
REMARK    6  A    between atoms: C_10  and  O_12
REMARK    7  A    between atoms: C_10  and  C_25
REMARK    8  A    between atoms: O_12  and  C_13
REMARK    9  A    between atoms: C_13  and  C_14
REMARK   10  A    between atoms: C_17  and  C_20
REMARK   11  A    between atoms: C_25  and  O_27
REMARK   12  A    between atoms: C_25  and  C_28
REMARK   13  A    between atoms: C_28  and  O_30
REMARK   14  A    between atoms: C_28  and  C_31
REMARK   15  A    between atoms: C_31  and  O_33
REMARK   16  A    between atoms: C_31  and  C_46
REMARK   17  A    between atoms: O_33  and  C_34
REMARK   18  A    between atoms: C_34  and  C_35
REMARK   19  A    between atoms: C_38  and  C_41
REMARK   20  A    between atoms: N_48  and  C_49
REMARK   21  A    between atoms: C_49  and  C_51
REMARK   22  A    between atoms: C_49  and  C_54
REMARK   23  A    between atoms: C_51  and  C_52
REMARK   24  A    between atoms: C_51  and  C_53
REMARK   25  A    between atoms: N_56  and  C_57
REMARK   26  A    between atoms: C_58  and  C_59
REMARK   27  A    between atoms: C_58  and  C_60
REMARK                            x       y       z     vdW  Elec       q    Type
REMARK                         _______ _______ _______ _____ _____    ______ ____
ROOT
ATOM      1  C   UNL     1       8.291   0.673  22.185  0.00  0.00    +0.184 C 
ENDROOT
BRANCH   1   2
ATOM      2  O   UNL     1       8.450   1.610  21.095  0.00  0.00    -0.386 OA
ATOM      3  H   UNL     1       7.602   2.065  20.927  0.00  0.00    +0.210 HD
ENDBRANCH   1   2
BRANCH   1   4
ATOM      4  C   UNL     1       7.070   1.151  23.080  0.00  0.00    +0.184 C 
BRANCH   4   5
ATOM      5  O   UNL     1       5.875   1.320  22.294  0.00  0.00    -0.386 OA
ATOM      6  H   UNL     1       6.114   1.537  21.366  0.00  0.00    +0.210 HD
ENDBRANCH   4   5
BRANCH   4   7
ATOM      7  C   UNL     1       6.656   0.292  24.396  0.00  0.00    +0.235 C 
BRANCH   7   8
ATOM      8  C   UNL     1       5.664   1.056  25.445  0.00  0.00    +0.245 C 
ATOM      9  N   UNL     1       6.005   1.161  26.806  0.00  0.00    -0.302 N 
ATOM     10  H   UNL     1       6.844   0.676  27.108  0.00  0.00    +0.150 HD
ATOM     11  O   UNL     1       4.567   1.485  25.074  0.00  0.00    -0.273 OA
BRANCH   9  12
ATOM     12  C   UNL     1       4.979   1.528  27.844  0.00  0.00    +0.161 C 
BRANCH  12  13
ATOM     13  C   UNL     1       4.090   0.320  28.284  0.00  0.00    +0.233 C 
ATOM     14  N   UNL     1       2.973   0.143  27.475  0.00  0.00    -0.317 N 
ATOM     15  H   UNL     1       2.898   0.696  26.630  0.00  0.00    +0.148 HD
ATOM     16  C   UNL     1       1.975  -0.881  27.673  0.00  0.00    +0.128 C 
ATOM     17  O   UNL     1       4.298  -0.329  29.305  0.00  0.00    -0.274 OA
ENDBRANCH  12  13
BRANCH  12  18
ATOM     18  C   UNL     1       5.449   2.211  29.186  0.00  0.00    +0.012 C 
ATOM     19  C   UNL     1       4.540   3.335  29.677  0.00  0.00    +0.009 C 
ATOM     20  C   UNL     1       6.920   2.626  29.245  0.00  0.00    +0.009 C 
ENDBRANCH  12  18
ENDBRANCH   9  12
ENDBRANCH   7   8
BRANCH   7  21
ATOM     21  O   UNL     1       6.169  -1.042  24.041  0.00  0.00    -0.360 OA
BRANCH  21  22
ATOM     22  C   UNL     1       5.457  -1.844  25.032  0.00  0.00    +0.196 C 
BRANCH  22  23
ATOM     23  C   UNL     1       4.559  -3.004  24.535  0.00  0.00    -0.022 A 
ATOM     24  C   UNL     1       4.861  -3.778  23.373  0.00  0.00    +0.006 A 
ATOM     25  C   UNL     1       4.082  -4.904  22.985  0.00  0.00    +0.009 A 
ATOM     26  C   UNL     1       2.977  -5.290  23.757  0.00  0.00    -0.017 A 
ATOM     27  C   UNL     1       2.663  -4.506  24.874  0.00  0.00    +0.009 A 
ATOM     28  C   UNL     1       3.450  -3.387  25.247  0.00  0.00    +0.006 A 
BRANCH  26  29
ATOM     29  C   UNL     1       2.147  -6.478  23.479  0.00  0.00    -0.011 A 
ATOM     30  C   UNL     1       1.192  -6.616  22.405  0.00  0.00    +0.016 A 
ATOM     31  C   UNL     1       0.614  -7.868  22.338  0.00  0.00    +0.046 A 
ATOM     32  S   UNL     1       1.187  -8.889  23.575  0.00  0.00    -0.104 S 
ATOM     33  C   UNL     1       2.216  -7.659  24.196  0.00  0.00    +0.053 A 
ENDBRANCH  26  29
ENDBRANCH  22  23
ENDBRANCH  21  22
ENDBRANCH   7  21
ENDBRANCH   4   7
ENDBRANCH   1   4
BRANCH   1  34
ATOM     34  C   UNL     1       9.779   0.425  22.805  0.00  0.00    +0.235 C 
BRANCH  34  37
ATOM     35  N   UNL     1       9.584   2.840  23.561  0.00  0.00    -0.302 N 
ATOM     36  H   UNL     1       9.013   2.916  22.724  0.00  0.00    +0.150 HD
ATOM     37  C   UNL     1      10.284   1.643  23.696  0.00  0.00    +0.245 C 
ATOM     38  O   UNL     1      11.227   1.542  24.485  0.00  0.00    -0.273 OA
BRANCH  35  39
ATOM     39  C   UNL     1       9.815   4.078  24.365  0.00  0.00    +0.161 C 
BRANCH  39  43
ATOM     40  C   UNL     1      13.021   5.233  22.608  0.00  0.00    +0.128 C 
ATOM     41  N   UNL     1      11.953   4.475  23.198  0.00  0.00    -0.317 N 
ATOM     42  H   UNL     1      12.057   3.472  23.332  0.00  0.00    +0.148 HD
ATOM     43  C   UNL     1      10.816   5.072  23.712  0.00  0.00    +0.233 C 
ATOM     44  O   UNL     1      10.698   6.297  23.724  0.00  0.00    -0.274 OA
ENDBRANCH  39  43
BRANCH  39  45
ATOM     45  C   UNL     1       8.502   4.833  24.759  0.00  0.00    +0.012 C 
ATOM     46  C   UNL     1       7.819   4.220  25.985  0.00  0.00    +0.009 C 
ATOM     47  C   UNL     1       7.486   4.958  23.624  0.00  0.00    +0.009 C 
ENDBRANCH  39  45
ENDBRANCH  35  39
ENDBRANCH  34  37
BRANCH  34  48
ATOM     48  O   UNL     1      10.165  -0.770  23.520  0.00  0.00    -0.360 OA
BRANCH  48  49
ATOM     49  C   UNL     1       9.821  -2.104  23.122  0.00  0.00    +0.196 C 
BRANCH  49  50
ATOM     50  C   UNL     1       9.126  -3.135  24.030  0.00  0.00    -0.022 A 
ATOM     51  C   UNL     1       9.053  -2.857  25.418  0.00  0.00    +0.006 A 
ATOM     52  C   UNL     1       8.273  -3.627  26.311  0.00  0.00    +0.009 A 
ATOM     53  C   UNL     1       7.519  -4.710  25.854  0.00  0.00    -0.017 A 
ATOM     54  C   UNL     1       7.697  -5.075  24.508  0.00  0.00    +0.009 A 
ATOM     55  C   UNL     1       8.487  -4.302  23.609  0.00  0.00    +0.006 A 
BRANCH  53  56
ATOM     56  C   UNL     1       6.495  -5.332  26.724  0.00  0.00    -0.011 A 
ATOM     57  C   UNL     1       5.478  -6.274  26.319  0.00  0.00    +0.016 A 
ATOM     58  C   UNL     1       4.761  -6.803  27.372  0.00  0.00    +0.046 A 
ATOM     59  S   UNL     1       5.262  -6.147  28.864  0.00  0.00    -0.104 S 
ATOM     60  C   UNL     1       6.443  -5.161  28.098  0.00  0.00    +0.053 A 
ENDBRANCH  53  56
ENDBRANCH  49  50
ENDBRANCH  48  49
ENDBRANCH  34  48
ENDBRANCH   1  34
TORSDOF 21
ENDMDL
MODEL 7
REMARK VINA RESULT:      -6.5      2.765      6.113
REMARK  Name = 
REMARK  27 active torsions:
REMARK  status: ('A' for Active; 'I' for Inactive)
REMARK    1  A    between atoms: C_1  and  N_2
REMARK    2  A    between atoms: C_3  and  C_5
REMARK    3  A    between atoms: C_5  and  N_7
REMARK    4  A    between atoms: C_5  and  C_58
REMARK    5  A    between atoms: C_8  and  C_10
REMARK    6  A    between atoms: C_10  and  O_12
REMARK    7  A    between atoms: C_10  and  C_25
REMARK    8  A    between atoms: O_12  and  C_13
REMARK    9  A    between atoms: C_13  and  C_14
REMARK   10  A    between atoms: C_17  and  C_20
REMARK   11  A    between atoms: C_25  and  O_27
REMARK   12  A    between atoms: C_25  and  C_28
REMARK   13  A    between atoms: C_28  and  O_30
REMARK   14  A    between atoms: C_28  and  C_31
REMARK   15  A    between atoms: C_31  and  O_33
REMARK   16  A    between atoms: C_31  and  C_46
REMARK   17  A    between atoms: O_33  and  C_34
REMARK   18  A    between atoms: C_34  and  C_35
REMARK   19  A    between atoms: C_38  and  C_41
REMARK   20  A    between atoms: N_48  and  C_49
REMARK   21  A    between atoms: C_49  and  C_51
REMARK   22  A    between atoms: C_49  and  C_54
REMARK   23  A    between atoms: C_51  and  C_52
REMARK   24  A    between atoms: C_51  and  C_53
REMARK   25  A    between atoms: N_56  and  C_57
REMARK   26  A    between atoms: C_58  and  C_59
REMARK   27  A    between atoms: C_58  and  C_60
REMARK                            x       y       z     vdW  Elec       q    Type
REMARK                         _______ _______ _______ _____ _____    ______ ____
ROOT
ATOM      1  C   UNL     1       9.864   0.712  22.885  0.00  0.00    +0.184 C 
ENDROOT
BRANCH   1   2
ATOM      2  O   UNL     1       9.464  -0.191  21.828  0.00  0.00    -0.386 OA
ATOM      3  H   UNL     1       8.499  -0.331  21.863  0.00  0.00    +0.210 HD
ENDBRANCH   1   2
BRANCH   1   4
ATOM      4  C   UNL     1      10.352  -0.153  24.123  0.00  0.00    +0.184 C 
BRANCH   4   5
ATOM      5  O   UNL     1      10.713   0.682  25.240  0.00  0.00    -0.386 OA
ATOM      6  H   UNL     1      10.703   1.625  24.967  0.00  0.00    +0.210 HD
ENDBRANCH   4   5
BRANCH   4   7
ATOM      7  C   UNL     1       9.399  -1.335  24.702  0.00  0.00    +0.235 C 
BRANCH   7   8
ATOM      8  C   UNL     1       7.862  -0.894  25.033  0.00  0.00    +0.245 C 
ATOM      9  N   UNL     1       7.500  -0.476  26.327  0.00  0.00    -0.302 N 
ATOM     10  H   UNL     1       8.214  -0.539  27.046  0.00  0.00    +0.150 HD
ATOM     11  O   UNL     1       6.980  -0.994  24.175  0.00  0.00    -0.273 OA
BRANCH   9  12
ATOM     12  C   UNL     1       6.059  -0.409  26.754  0.00  0.00    +0.161 C 
BRANCH  12  13
ATOM     13  C   UNL     1       5.354  -1.804  26.759  0.00  0.00    +0.233 C 
ATOM     14  N   UNL     1       4.365  -1.917  25.789  0.00  0.00    -0.317 N 
ATOM     15  H   UNL     1       4.274  -1.177  25.104  0.00  0.00    +0.148 HD
ATOM     16  C   UNL     1       3.544  -3.088  25.592  0.00  0.00    +0.128 C 
ATOM     17  O   UNL     1       5.575  -2.664  27.607  0.00  0.00    -0.274 OA
ENDBRANCH  12  13
BRANCH  12  18
ATOM     18  C   UNL     1       5.694   0.247  28.141  0.00  0.00    +0.012 C 
ATOM     19  C   UNL     1       4.224   0.631  28.294  0.00  0.00    +0.009 C 
ATOM     20  C   UNL     1       6.611   1.381  28.605  0.00  0.00    +0.009 C 
ENDBRANCH  12  18
ENDBRANCH   9  12
ENDBRANCH   7   8
BRANCH   7  21
ATOM     21  O   UNL     1       9.466  -2.540  23.872  0.00  0.00    -0.360 OA
BRANCH  21  22
ATOM     22  C   UNL     1       9.396  -3.858  24.497  0.00  0.00    +0.196 C 
BRANCH  22  23
ATOM     23  C   UNL     1       8.056  -4.633  24.437  0.00  0.00    -0.022 A 
ATOM     24  C   UNL     1       7.328  -5.018  25.603  0.00  0.00    +0.006 A 
ATOM     25  C   UNL     1       6.051  -5.640  25.531  0.00  0.00    +0.009 A 
ATOM     26  C   UNL     1       5.464  -5.892  24.283  0.00  0.00    -0.017 A 
ATOM     27  C   UNL     1       6.198  -5.546  23.142  0.00  0.00    +0.009 A 
ATOM     28  C   UNL     1       7.470  -4.926  23.231  0.00  0.00    +0.006 A 
BRANCH  26  29
ATOM     29  C   UNL     1       4.117  -6.469  24.102  0.00  0.00    -0.011 A 
ATOM     30  C   UNL     1       3.161  -6.095  23.086  0.00  0.00    +0.016 A 
ATOM     31  C   UNL     1       2.011  -6.857  23.105  0.00  0.00    +0.046 A 
ATOM     32  S   UNL     1       2.047  -8.015  24.353  0.00  0.00    -0.104 S 
ATOM     33  C   UNL     1       3.606  -7.504  24.865  0.00  0.00    +0.053 A 
ENDBRANCH  26  29
ENDBRANCH  22  23
ENDBRANCH  21  22
ENDBRANCH   7  21
ENDBRANCH   4   7
ENDBRANCH   1   4
BRANCH   1  34
ATOM     34  C   UNL     1       8.680   1.826  23.016  0.00  0.00    +0.235 C 
BRANCH  34  37
ATOM     35  N   UNL     1       9.806   4.064  23.426  0.00  0.00    -0.302 N 
ATOM     36  H   UNL     1      10.263   3.843  22.547  0.00  0.00    +0.150 HD
ATOM     37  C   UNL     1       9.069   3.024  23.989  0.00  0.00    +0.245 C 
ATOM     38  O   UNL     1       8.724   3.056  25.174  0.00  0.00    -0.273 OA
BRANCH  35  39
ATOM     39  C   UNL     1      10.193   5.329  24.120  0.00  0.00    +0.161 C 
BRANCH  39  43
ATOM     40  C   UNL     1      13.414   5.678  22.070  0.00  0.00    +0.128 C 
ATOM     41  N   UNL     1      12.093   5.375  22.546  0.00  0.00    -0.317 N 
ATOM     42  H   UNL     1      11.500   4.735  22.023  0.00  0.00    +0.148 HD
ATOM     43  C   UNL     1      11.623   5.826  23.766  0.00  0.00    +0.233 C 
ATOM     44  O   UNL     1      12.348   6.474  24.520  0.00  0.00    -0.274 OA
ENDBRANCH  39  43
BRANCH  39  45
ATOM     45  C   UNL     1       9.168   6.497  23.930  0.00  0.00    +0.012 C 
ATOM     46  C   UNL     1       8.228   6.651  25.130  0.00  0.00    +0.009 C 
ATOM     47  C   UNL     1       8.338   6.401  22.650  0.00  0.00    +0.009 C 
ENDBRANCH  39  45
ENDBRANCH  35  39
ENDBRANCH  34  37
BRANCH  34  48
ATOM     48  O   UNL     1       8.020   2.438  21.886  0.00  0.00    -0.360 OA
BRANCH  48  49
ATOM     49  C   UNL     1       6.620   2.743  21.826  0.00  0.00    +0.196 C 
BRANCH  49  50
ATOM     50  C   UNL     1       5.775   3.206  23.027  0.00  0.00    -0.022 A 
ATOM     51  C   UNL     1       5.300   2.218  23.927  0.00  0.00    +0.006 A 
ATOM     52  C   UNL     1       4.688   2.539  25.160  0.00  0.00    +0.009 A 
ATOM     53  C   UNL     1       4.530   3.868  25.557  0.00  0.00    -0.017 A 
ATOM     54  C   UNL     1       4.871   4.851  24.611  0.00  0.00    +0.009 A 
ATOM     55  C   UNL     1       5.483   4.527  23.367  0.00  0.00    +0.006 A 
BRANCH  53  56
ATOM     56  C   UNL     1       4.155   4.195  26.952  0.00  0.00    -0.011 A 
ATOM     57  C   UNL     1       2.855   4.025  27.556  0.00  0.00    +0.016 A 
ATOM     58  C   UNL     1       2.839   4.269  28.914  0.00  0.00    +0.046 A 
ATOM     59  S   UNL     1       4.372   4.748  29.484  0.00  0.00    -0.104 S 
ATOM     60  C   UNL     1       5.057   4.622  27.913  0.00  0.00    +0.053 A 
ENDBRANCH  53  56
ENDBRANCH  49  50
ENDBRANCH  48  49
ENDBRANCH  34  48
ENDBRANCH   1  34
TORSDOF 21
ENDMDL
MODEL 8
REMARK VINA RESULT:      -6.4      1.645      2.749
REMARK  Name = 
REMARK  27 active torsions:
REMARK  status: ('A' for Active; 'I' for Inactive)
REMARK    1  A    between atoms: C_1  and  N_2
REMARK    2  A    between atoms: C_3  and  C_5
REMARK    3  A    between atoms: C_5  and  N_7
REMARK    4  A    between atoms: C_5  and  C_58
REMARK    5  A    between atoms: C_8  and  C_10
REMARK    6  A    between atoms: C_10  and  O_12
REMARK    7  A    between atoms: C_10  and  C_25
REMARK    8  A    between atoms: O_12  and  C_13
REMARK    9  A    between atoms: C_13  and  C_14
REMARK   10  A    between atoms: C_17  and  C_20
REMARK   11  A    between atoms: C_25  and  O_27
REMARK   12  A    between atoms: C_25  and  C_28
REMARK   13  A    between atoms: C_28  and  O_30
REMARK   14  A    between atoms: C_28  and  C_31
REMARK   15  A    between atoms: C_31  and  O_33
REMARK   16  A    between atoms: C_31  and  C_46
REMARK   17  A    between atoms: O_33  and  C_34
REMARK   18  A    between atoms: C_34  and  C_35
REMARK   19  A    between atoms: C_38  and  C_41
REMARK   20  A    between atoms: N_48  and  C_49
REMARK   21  A    between atoms: C_49  and  C_51
REMARK   22  A    between atoms: C_49  and  C_54
REMARK   23  A    between atoms: C_51  and  C_52
REMARK   24  A    between atoms: C_51  and  C_53
REMARK   25  A    between atoms: N_56  and  C_57
REMARK   26  A    between atoms: C_58  and  C_59
REMARK   27  A    between atoms: C_58  and  C_60
REMARK                            x       y       z     vdW  Elec       q    Type
REMARK                         _______ _______ _______ _____ _____    ______ ____
ROOT
ATOM      1  C   UNL     1       8.575   0.997  21.999  0.00  0.00    +0.184 C 
ENDROOT
BRANCH   1   2
ATOM      2  O   UNL     1       8.835   2.070  21.065  0.00  0.00    -0.386 OA
ATOM      3  H   UNL     1       8.207   2.015  20.320  0.00  0.00    +0.210 HD
ENDBRANCH   1   2
BRANCH   1   4
ATOM      4  C   UNL     1       7.243   1.337  22.792  0.00  0.00    +0.184 C 
BRANCH   4   5
ATOM      5  O   UNL     1       6.164   0.463  22.409  0.00  0.00    -0.386 OA
ATOM      6  H   UNL     1       5.308   0.941  22.475  0.00  0.00    +0.210 HD
ENDBRANCH   4   5
BRANCH   4   7
ATOM      7  C   UNL     1       7.265   1.381  24.417  0.00  0.00    +0.235 C 
BRANCH   7   8
ATOM      8  C   UNL     1       6.052   2.229  25.108  0.00  0.00    +0.245 C 
ATOM      9  N   UNL     1       4.735   2.119  24.625  0.00  0.00    -0.302 N 
ATOM     10  H   UNL     1       4.598   1.557  23.791  0.00  0.00    +0.150 HD
ATOM     11  O   UNL     1       6.286   3.036  26.013  0.00  0.00    -0.273 OA
BRANCH   9  12
ATOM     12  C   UNL     1       3.681   3.129  24.989  0.00  0.00    +0.161 C 
BRANCH  12  13
ATOM     13  C   UNL     1       2.716   3.464  23.806  0.00  0.00    +0.233 C 
ATOM     14  N   UNL     1       3.219   3.079  22.568  0.00  0.00    -0.317 N 
ATOM     15  H   UNL     1       4.064   2.522  22.543  0.00  0.00    +0.148 HD
ATOM     16  C   UNL     1       2.543   3.292  21.310  0.00  0.00    +0.128 C 
ATOM     17  O   UNL     1       1.678   4.103  23.948  0.00  0.00    -0.274 OA
ENDBRANCH  12  13
BRANCH  12  18
ATOM     18  C   UNL     1       2.744   2.855  26.228  0.00  0.00    +0.012 C 
ATOM     19  C   UNL     1       2.664   4.005  27.229  0.00  0.00    +0.009 C 
ATOM     20  C   UNL     1       2.951   1.517  26.939  0.00  0.00    +0.009 C 
ENDBRANCH  12  18
ENDBRANCH   9  12
ENDBRANCH   7   8
BRANCH   7  21
ATOM     21  O   UNL     1       7.407   0.042  24.992  0.00  0.00    -0.360 OA
BRANCH  21  22
ATOM     22  C   UNL     1       6.438  -0.434  25.975  0.00  0.00    +0.196 C 
BRANCH  22  23
ATOM     23  C   UNL     1       5.408  -1.506  25.537  0.00  0.00    -0.022 A 
ATOM     24  C   UNL     1       5.445  -2.141  24.259  0.00  0.00    +0.006 A 
ATOM     25  C   UNL     1       4.555  -3.195  23.908  0.00  0.00    +0.009 A 
ATOM     26  C   UNL     1       3.603  -3.645  24.834  0.00  0.00    -0.017 A 
ATOM     27  C   UNL     1       3.547  -2.994  26.072  0.00  0.00    +0.009 A 
ATOM     28  C   UNL     1       4.441  -1.946  26.406  0.00  0.00    +0.006 A 
BRANCH  26  29
ATOM     29  C   UNL     1       2.681  -4.773  24.593  0.00  0.00    -0.011 A 
ATOM     30  C   UNL     1       1.814  -5.385  25.572  0.00  0.00    +0.016 A 
ATOM     31  C   UNL     1       1.002  -6.372  25.049  0.00  0.00    +0.046 A 
ATOM     32  S   UNL     1       1.284  -6.596  23.383  0.00  0.00    -0.104 S 
ATOM     33  C   UNL     1       2.487  -5.368  23.360  0.00  0.00    +0.053 A 
ENDBRANCH  26  29
ENDBRANCH  22  23
ENDBRANCH  21  22
ENDBRANCH   7  21
ENDBRANCH   4   7
ENDBRANCH   1   4
BRANCH   1  34
ATOM     34  C   UNL     1       9.986   0.692  22.760  0.00  0.00    +0.235 C 
BRANCH  34  37
ATOM     35  N   UNL     1      10.183   3.163  23.308  0.00  0.00    -0.302 N 
ATOM     36  H   UNL     1      10.031   3.259  22.308  0.00  0.00    +0.150 HD
ATOM     37  C   UNL     1      10.415   1.862  23.750  0.00  0.00    +0.245 C 
ATOM     38  O   UNL     1      10.905   1.644  24.862  0.00  0.00    -0.273 OA
BRANCH  35  39
ATOM     39  C   UNL     1      10.411   4.405  24.106  0.00  0.00    +0.161 C 
BRANCH  39  43
ATOM     40  C   UNL     1      13.325   5.450  21.844  0.00  0.00    +0.128 C 
ATOM     41  N   UNL     1      12.153   4.846  22.414  0.00  0.00    -0.317 N 
ATOM     42  H   UNL     1      11.721   4.046  21.958  0.00  0.00    +0.148 HD
ATOM     43  C   UNL     1      11.644   5.231  23.642  0.00  0.00    +0.233 C 
ATOM     44  O   UNL     1      12.213   6.086  24.320  0.00  0.00    -0.274 OA
ENDBRANCH  39  43
BRANCH  39  45
ATOM     45  C   UNL     1       9.158   5.338  24.201  0.00  0.00    +0.012 C 
ATOM     46  C   UNL     1       8.662   5.507  25.641  0.00  0.00    +0.009 C 
ATOM     47  C   UNL     1       7.989   4.910  23.312  0.00  0.00    +0.009 C 
ENDBRANCH  39  45
ENDBRANCH  35  39
ENDBRANCH  34  37
BRANCH  34  48
ATOM     48  O   UNL     1      10.274  -0.539  23.460  0.00  0.00    -0.360 OA
BRANCH  48  49
ATOM     49  C   UNL     1       9.899  -1.844  22.999  0.00  0.00    +0.196 C 
BRANCH  49  50
ATOM     50  C   UNL     1       9.194  -2.907  23.863  0.00  0.00    -0.022 A 
ATOM     51  C   UNL     1       9.193  -2.728  25.269  0.00  0.00    +0.006 A 
ATOM     52  C   UNL     1       8.416  -3.525  26.140  0.00  0.00    +0.009 A 
ATOM     53  C   UNL     1       7.592  -4.537  25.642  0.00  0.00    -0.017 A 
ATOM     54  C   UNL     1       7.694  -4.810  24.267  0.00  0.00    +0.009 A 
ATOM     55  C   UNL     1       8.482  -4.009  23.390  0.00  0.00    +0.006 A 
BRANCH  53  56
ATOM     56  C   UNL     1       6.576  -5.174  26.511  0.00  0.00    -0.011 A 
ATOM     57  C   UNL     1       5.667  -6.231  26.141  0.00  0.00    +0.016 A 
ATOM     58  C   UNL     1       4.939  -6.734  27.200  0.00  0.00    +0.046 A 
ATOM     59  S   UNL     1       5.300  -5.917  28.652  0.00  0.00    -0.104 S 
ATOM     60  C   UNL     1       6.434  -4.897  27.862  0.00  0.00    +0.053 A 
ENDBRANCH  53  56
ENDBRANCH  49  50
ENDBRANCH  48  49
ENDBRANCH  34  48
ENDBRANCH   1  34
TORSDOF 21
ENDMDL
MODEL 9
REMARK VINA RESULT:      -6.3      3.022      6.871
REMARK  Name = 
REMARK  27 active torsions:
REMARK  status: ('A' for Active; 'I' for Inactive)
REMARK    1  A    between atoms: C_1  and  N_2
REMARK    2  A    between atoms: C_3  and  C_5
REMARK    3  A    between atoms: C_5  and  N_7
REMARK    4  A    between atoms: C_5  and  C_58
REMARK    5  A    between atoms: C_8  and  C_10
REMARK    6  A    between atoms: C_10  and  O_12
REMARK    7  A    between atoms: C_10  and  C_25
REMARK    8  A    between atoms: O_12  and  C_13
REMARK    9  A    between atoms: C_13  and  C_14
REMARK   10  A    between atoms: C_17  and  C_20
REMARK   11  A    between atoms: C_25  and  O_27
REMARK   12  A    between atoms: C_25  and  C_28
REMARK   13  A    between atoms: C_28  and  O_30
REMARK   14  A    between atoms: C_28  and  C_31
REMARK   15  A    between atoms: C_31  and  O_33
REMARK   16  A    between atoms: C_31  and  C_46
REMARK   17  A    between atoms: O_33  and  C_34
REMARK   18  A    between atoms: C_34  and  C_35
REMARK   19  A    between atoms: C_38  and  C_41
REMARK   20  A    between atoms: N_48  and  C_49
REMARK   21  A    between atoms: C_49  and  C_51
REMARK   22  A    between atoms: C_49  and  C_54
REMARK   23  A    between atoms: C_51  and  C_52
REMARK   24  A    between atoms: C_51  and  C_53
REMARK   25  A    between atoms: N_56  and  C_57
REMARK   26  A    between atoms: C_58  and  C_59
REMARK   27  A    between atoms: C_58  and  C_60
REMARK                            x       y       z     vdW  Elec       q    Type
REMARK                         _______ _______ _______ _____ _____    ______ ____
ROOT
ATOM      1  C   UNL     1       9.943   0.906  22.863  0.00  0.00    +0.184 C 
ENDROOT
BRANCH   1   2
ATOM      2  O   UNL     1       9.818   0.446  21.497  0.00  0.00    -0.386 OA
ATOM      3  H   UNL     1       9.947   1.195  20.885  0.00  0.00    +0.210 HD
ENDBRANCH   1   2
BRANCH   1   4
ATOM      4  C   UNL     1      10.254  -0.348  23.786  0.00  0.00    +0.184 C 
BRANCH   4   5
ATOM      5  O   UNL     1      10.496   0.049  25.150  0.00  0.00    -0.386 OA
ATOM      6  H   UNL     1      10.699  -0.742  25.695  0.00  0.00    +0.210 HD
ENDBRANCH   4   5
BRANCH   4   7
ATOM      7  C   UNL     1       9.208  -1.591  23.830  0.00  0.00    +0.235 C 
BRANCH   7   8
ATOM      8  C   UNL     1       8.423  -1.792  25.248  0.00  0.00    +0.245 C 
ATOM      9  N   UNL     1       7.663  -2.951  25.487  0.00  0.00    -0.302 N 
ATOM     10  H   UNL     1       7.567  -3.604  24.716  0.00  0.00    +0.150 HD
ATOM     11  O   UNL     1       8.421  -0.896  26.098  0.00  0.00    -0.273 OA
BRANCH   9  12
ATOM     12  C   UNL     1       6.657  -3.011  26.604  0.00  0.00    +0.161 C 
BRANCH  12  13
ATOM     13  C   UNL     1       5.556  -1.906  26.501  0.00  0.00    +0.233 C 
ATOM     14  N   UNL     1       5.767  -0.845  27.373  0.00  0.00    -0.317 N 
ATOM     15  H   UNL     1       6.641  -0.807  27.884  0.00  0.00    +0.148 HD
ATOM     16  C   UNL     1       4.891   0.296  27.499  0.00  0.00    +0.128 C 
ATOM     17  O   UNL     1       4.552  -2.022  25.804  0.00  0.00    -0.274 OA
ENDBRANCH  12  13
BRANCH  12  18
ATOM     18  C   UNL     1       5.874  -4.356  26.867  0.00  0.00    +0.012 C 
ATOM     19  C   UNL     1       5.348  -4.515  28.292  0.00  0.00    +0.009 C 
ATOM     20  C   UNL     1       6.564  -5.635  26.387  0.00  0.00    +0.009 C 
ENDBRANCH  12  18
ENDBRANCH   9  12
ENDBRANCH   7   8
BRANCH   7  21
ATOM     21  O   UNL     1       8.296  -1.571  22.686  0.00  0.00    -0.360 OA
BRANCH  21  22
ATOM     22  C   UNL     1       8.129  -2.770  21.869  0.00  0.00    +0.196 C 
BRANCH  22  23
ATOM     23  C   UNL     1       6.967  -3.738  22.208  0.00  0.00    -0.022 A 
ATOM     24  C   UNL     1       7.097  -5.159  22.147  0.00  0.00    +0.006 A 
ATOM     25  C   UNL     1       6.055  -6.036  22.558  0.00  0.00    +0.009 A 
ATOM     26  C   UNL     1       4.850  -5.511  23.047  0.00  0.00    -0.017 A 
ATOM     27  C   UNL     1       4.714  -4.118  23.070  0.00  0.00    +0.009 A 
ATOM     28  C   UNL     1       5.762  -3.257  22.657  0.00  0.00    +0.006 A 
BRANCH  26  29
ATOM     29  C   UNL     1       3.736  -6.333  23.559  0.00  0.00    -0.011 A 
ATOM     30  C   UNL     1       3.762  -7.154  24.747  0.00  0.00    +0.016 A 
ATOM     31  C   UNL     1       2.551  -7.752  25.030  0.00  0.00    +0.046 A 
ATOM     32  S   UNL     1       1.371  -7.360  23.865  0.00  0.00    -0.104 S 
ATOM     33  C   UNL     1       2.478  -6.382  22.985  0.00  0.00    +0.053 A 
ENDBRANCH  26  29
ENDBRANCH  22  23
ENDBRANCH  21  22
ENDBRANCH   7  21
ENDBRANCH   4   7
ENDBRANCH   1   4
BRANCH   1  34
ATOM     34  C   UNL     1       8.675   1.894  23.138  0.00  0.00    +0.235 C 
BRANCH  34  37
ATOM     35  N   UNL     1       9.830   4.131  23.469  0.00  0.00    -0.302 N 
ATOM     36  H   UNL     1      10.315   3.854  22.620  0.00  0.00    +0.150 HD
ATOM     37  C   UNL     1       9.053   3.136  24.059  0.00  0.00    +0.245 C 
ATOM     38  O   UNL     1       8.666   3.238  25.227  0.00  0.00    -0.273 OA
BRANCH  35  39
ATOM     39  C   UNL     1      10.217   5.424  24.107  0.00  0.00    +0.161 C 
BRANCH  39  43
ATOM     40  C   UNL     1      13.521   5.610  22.170  0.00  0.00    +0.128 C 
ATOM     41  N   UNL     1      12.175   5.360  22.606  0.00  0.00    -0.317 N 
ATOM     42  H   UNL     1      11.584   4.716  22.085  0.00  0.00    +0.148 HD
ATOM     43  C   UNL     1      11.673   5.870  23.790  0.00  0.00    +0.233 C 
ATOM     44  O   UNL     1      12.387   6.528  24.546  0.00  0.00    -0.274 OA
ENDBRANCH  39  43
BRANCH  39  45
ATOM     45  C   UNL     1       9.229   6.601  23.809  0.00  0.00    +0.012 C 
ATOM     46  C   UNL     1       8.379   6.976  25.027  0.00  0.00    +0.009 C 
ATOM     47  C   UNL     1       8.312   6.360  22.609  0.00  0.00    +0.009 C 
ENDBRANCH  39  45
ENDBRANCH  35  39
ENDBRANCH  34  37
BRANCH  34  48
ATOM     48  O   UNL     1       7.825   2.423  22.096  0.00  0.00    -0.360 OA
BRANCH  48  49
ATOM     49  C   UNL     1       6.398   2.529  22.184  0.00  0.00    +0.196 C 
BRANCH  49  50
ATOM     50  C   UNL     1       5.648   3.433  23.180  0.00  0.00    -0.022 A 
ATOM     51  C   UNL     1       5.296   2.888  24.440  0.00  0.00    +0.006 A 
ATOM     52  C   UNL     1       4.787   3.675  25.498  0.00  0.00    +0.009 A 
ATOM     53  C   UNL     1       4.614   5.052  25.347  0.00  0.00    -0.017 A 
ATOM     54  C   UNL     1       4.827   5.575  24.059  0.00  0.00    +0.009 A 
ATOM     55  C   UNL     1       5.336   4.780  22.992  0.00  0.00    +0.006 A 
BRANCH  53  56
ATOM     56  C   UNL     1       4.355   5.910  26.526  0.00  0.00    -0.011 A 
ATOM     57  C   UNL     1       3.077   6.434  26.946  0.00  0.00    +0.016 A 
ATOM     58  C   UNL     1       3.114   7.073  28.168  0.00  0.00    +0.046 A 
ATOM     59  S   UNL     1       4.691   7.097  28.816  0.00  0.00    -0.104 S 
ATOM     60  C   UNL     1       5.320   6.245  27.463  0.00  0.00    +0.053 A 
ENDBRANCH  53  56
ENDBRANCH  49  50
ENDBRANCH  48  49
ENDBRANCH  34  48
ENDBRANCH   1  34
TORSDOF 21
ENDMDL
