MODEL 1
REMARK VINA RESULT:      -7.1      0.000      0.000
REMARK  Name = 
REMARK  12 active torsions:
REMARK  status: ('A' for Active; 'I' for Inactive)
REMARK    1  A    between atoms: C_4  and  C_5
REMARK    2  A    between atoms: C_10  and  C_11
REMARK    3  A    between atoms: C_16  and  C_18
REMARK    4  A    between atoms: C_18  and  C_19
REMARK    5  A    between atoms: C_18  and  C_21
REMARK    6  A    between atoms: C_21  and  C_22
REMARK    7  A    between atoms: C_23  and  C_24
REMARK    8  A    between atoms: C_24  and  C_25
REMARK    9  A    between atoms: C_24  and  C_26
REMARK   10  A    between atoms: C_24  and  O_27
REMARK   11  A    between atoms: C_29  and  O_30
REMARK   12  A    between atoms: C_33  and  O_34
REMARK                            x       y       z     vdW  Elec       q    Type
REMARK                         _______ _______ _______ _____ _____    ______ ____
ROOT
ATOM      1  C   UNL     1       9.210  -1.209  23.347  0.00  0.00    -0.000 C 
ATOM      2  C   UNL     1       8.595  -0.099  22.815  0.00  0.00    -0.066 C 
ATOM      3  C   UNL     1       7.575   0.864  23.382  0.00  0.00    +0.021 C 
ATOM      4  C   UNL     1       7.450   0.609  24.875  0.00  0.00    +0.009 C 
ATOM      5  C   UNL     1       6.759   1.788  25.437  0.00  0.00    +0.005 C 
ATOM      6  C   UNL     1       7.158   3.028  24.608  0.00  0.00    -0.001 C 
ATOM      7  C   UNL     1       7.900   2.434  23.279  0.00  0.00    -0.022 C 
ATOM      8  C   UNL     1       7.382   3.287  22.100  0.00  0.00    +0.012 C 
ATOM      9  C   UNL     1       9.467   2.580  23.053  0.00  0.00    +0.008 C 
ATOM     10  C   UNL     1      10.089   1.566  22.015  0.00  0.00    +0.005 C 
ATOM     11  C   UNL     1       9.166   0.444  21.546  0.00  0.00    +0.031 C 
ENDROOT
BRANCH   1  19
ATOM     12  C   UNL     1       6.205  -2.623  23.436  0.00  0.00    +0.015 C 
ATOM     13  C   UNL     1       7.115  -3.405  24.040  0.00  0.00    -0.023 C 
ATOM     14  C   UNL     1       7.026  -4.922  23.958  0.00  0.00    +0.147 C 
ATOM     15  C   UNL     1       6.966  -5.558  25.343  0.00  0.00    +0.067 C 
ATOM     16  C   UNL     1       8.124  -5.074  26.214  0.00  0.00    +0.122 C 
ATOM     17  C   UNL     1       8.153  -3.530  26.294  0.00  0.00    +0.067 C 
ATOM     18  C   UNL     1       8.134  -2.845  24.933  0.00  0.00    -0.040 C 
ATOM     19  C   UNL     1       9.016  -1.867  24.635  0.00  0.00    +0.004 C 
BRANCH  14  20
ATOM     20  O   UNL     1       8.149  -5.448  23.251  0.00  0.00    -0.387 OA
ATOM     21  H   UNL     1       7.948  -5.416  22.301  0.00  0.00    +0.210 HD
ENDBRANCH  14  20
BRANCH  16  22
ATOM     22  O   UNL     1       7.960  -5.631  27.520  0.00  0.00    -0.391 OA
ATOM     23  H   UNL     1       7.607  -4.931  28.097  0.00  0.00    +0.210 HD
ENDBRANCH  16  22
ENDBRANCH   1  19
BRANCH   6  24
ATOM     24  C   UNL     1       5.757   3.812  24.465  0.00  0.00    +0.001 C 
ATOM     25  C   UNL     1       5.417   4.912  25.487  0.00  0.00    +0.009 C 
BRANCH  24  26
ATOM     26  C   UNL     1       4.521   2.868  24.432  0.00  0.00    +0.092 C 
BRANCH  26  27
ATOM     27  C   UNL     1       3.624   3.155  23.239  0.00  0.00    -0.099 C 
ATOM     28  C   UNL     1       2.855   3.401  22.215  0.00  0.00    -0.068 C 
BRANCH  28  29
ATOM     29  C   UNL     1       1.966   3.660  21.069  0.00  0.00    +0.121 C 
ATOM     30  C   UNL     1       0.841   4.605  21.476  0.00  0.00    +0.055 C 
ATOM     31  C   UNL     1       1.401   2.352  20.515  0.00  0.00    +0.055 C 
BRANCH  29  32
ATOM     32  O   UNL     1       2.713   4.296  20.033  0.00  0.00    -0.377 OA
ATOM     33  H   UNL     1       2.246   4.120  19.199  0.00  0.00    +0.211 HD
ENDBRANCH  29  32
ENDBRANCH  28  29
ENDBRANCH  26  27
ENDBRANCH  24  26
ENDBRANCH   6  24
TORSDOF 8
ENDMDL
MODEL 2
REMARK VINA RESULT:      -6.8      3.594      8.020
REMARK  Name = 
REMARK  12 active torsions:
REMARK  status: ('A' for Active; 'I' for Inactive)
REMARK    1  A    between atoms: C_4  and  C_5
REMARK    2  A    between atoms: C_10  and  C_11
REMARK    3  A    between atoms: C_16  and  C_18
REMARK    4  A    between atoms: C_18  and  C_19
REMARK    5  A    between atoms: C_18  and  C_21
REMARK    6  A    between atoms: C_21  and  C_22
REMARK    7  A    between atoms: C_23  and  C_24
REMARK    8  A    between atoms: C_24  and  C_25
REMARK    9  A    between atoms: C_24  and  C_26
REMARK   10  A    between atoms: C_24  and  O_27
REMARK   11  A    between atoms: C_29  and  O_30
REMARK   12  A    between atoms: C_33  and  O_34
REMARK                            x       y       z     vdW  Elec       q    Type
REMARK                         _______ _______ _______ _____ _____    ______ ____
ROOT
ATOM      1  C   UNL     1       9.016  -3.448  24.219  0.00  0.00    -0.000 C 
ATOM      2  C   UNL     1       7.897  -4.247  24.268  0.00  0.00    -0.066 C 
ATOM      3  C   UNL     1       6.535  -4.048  24.896  0.00  0.00    +0.021 C 
ATOM      4  C   UNL     1       6.409  -2.593  25.317  0.00  0.00    +0.009 C 
ATOM      5  C   UNL     1       4.970  -2.361  25.561  0.00  0.00    +0.005 C 
ATOM      6  C   UNL     1       4.160  -3.254  24.596  0.00  0.00    -0.001 C 
ATOM      7  C   UNL     1       5.248  -4.301  23.969  0.00  0.00    -0.022 C 
ATOM      8  C   UNL     1       4.534  -5.671  23.941  0.00  0.00    +0.012 C 
ATOM      9  C   UNL     1       5.727  -4.212  22.456  0.00  0.00    +0.008 C 
ATOM     10  C   UNL     1       7.091  -4.944  22.144  0.00  0.00    +0.005 C 
ATOM     11  C   UNL     1       7.876  -5.432  23.359  0.00  0.00    +0.031 C 
ENDROOT
BRANCH   1  19
ATOM     12  C   UNL     1       9.517  -1.174  21.848  0.00  0.00    +0.015 C 
ATOM     13  C   UNL     1       8.807  -0.653  22.863  0.00  0.00    -0.023 C 
ATOM     14  C   UNL     1       7.720   0.382  22.611  0.00  0.00    +0.147 C 
ATOM     15  C   UNL     1       7.976   1.668  23.391  0.00  0.00    +0.067 C 
ATOM     16  C   UNL     1       8.185   1.371  24.875  0.00  0.00    +0.122 C 
ATOM     17  C   UNL     1       9.320   0.341  25.082  0.00  0.00    +0.067 C 
ATOM     18  C   UNL     1       9.150  -0.931  24.261  0.00  0.00    -0.040 C 
ATOM     19  C   UNL     1       9.273  -2.149  24.833  0.00  0.00    +0.004 C 
BRANCH  14  20
ATOM     20  O   UNL     1       6.443  -0.139  22.977  0.00  0.00    -0.387 OA
ATOM     21  H   UNL     1       6.312   0.024  23.926  0.00  0.00    +0.210 HD
ENDBRANCH  14  20
BRANCH  16  22
ATOM     22  O   UNL     1       8.511   2.598  25.532  0.00  0.00    -0.391 OA
ATOM     23  H   UNL     1       7.899   3.280  25.205  0.00  0.00    +0.210 HD
ENDBRANCH  16  22
ENDBRANCH   1  19
BRANCH   6  24
ATOM     24  C   UNL     1       2.973  -3.796  25.541  0.00  0.00    +0.001 C 
ATOM     25  C   UNL     1       1.517  -3.475  25.157  0.00  0.00    +0.009 C 
BRANCH  24  26
ATOM     26  C   UNL     1       3.123  -3.368  27.029  0.00  0.00    +0.092 C 
BRANCH  26  27
ATOM     27  C   UNL     1       3.671  -4.496  27.888  0.00  0.00    -0.099 C 
ATOM     28  C   UNL     1       4.141  -5.463  28.626  0.00  0.00    -0.068 C 
BRANCH  28  29
ATOM     29  C   UNL     1       4.645  -6.566  29.461  0.00  0.00    +0.121 C 
ATOM     30  C   UNL     1       3.504  -7.188  30.259  0.00  0.00    +0.055 C 
ATOM     31  C   UNL     1       5.755  -6.078  30.392  0.00  0.00    +0.055 C 
BRANCH  29  32
ATOM     32  O   UNL     1       5.186  -7.581  28.617  0.00  0.00    -0.377 OA
ATOM     33  H   UNL     1       5.090  -8.424  29.092  0.00  0.00    +0.211 HD
ENDBRANCH  29  32
ENDBRANCH  28  29
ENDBRANCH  26  27
ENDBRANCH  24  26
ENDBRANCH   6  24
TORSDOF 8
ENDMDL
MODEL 3
REMARK VINA RESULT:      -6.8      2.496      8.333
REMARK  Name = 
REMARK  12 active torsions:
REMARK  status: ('A' for Active; 'I' for Inactive)
REMARK    1  A    between atoms: C_4  and  C_5
REMARK    2  A    between atoms: C_10  and  C_11
REMARK    3  A    between atoms: C_16  and  C_18
REMARK    4  A    between atoms: C_18  and  C_19
REMARK    5  A    between atoms: C_18  and  C_21
REMARK    6  A    between atoms: C_21  and  C_22
REMARK    7  A    between atoms: C_23  and  C_24
REMARK    8  A    between atoms: C_24  and  C_25
REMARK    9  A    between atoms: C_24  and  C_26
REMARK   10  A    between atoms: C_24  and  O_27
REMARK   11  A    between atoms: C_29  and  O_30
REMARK   12  A    between atoms: C_33  and  O_34
REMARK                            x       y       z     vdW  Elec       q    Type
REMARK                         _______ _______ _______ _____ _____    ______ ____
ROOT
ATOM      1  C   UNL     1       7.327   0.120  25.298  0.00  0.00    -0.000 C 
ATOM      2  C   UNL     1       7.640  -1.217  25.209  0.00  0.00    -0.066 C 
ATOM      3  C   UNL     1       7.006  -2.357  24.442  0.00  0.00    +0.021 C 
ATOM      4  C   UNL     1       6.008  -1.776  23.454  0.00  0.00    +0.009 C 
ATOM      5  C   UNL     1       5.710  -2.856  22.490  0.00  0.00    +0.005 C 
ATOM      6  C   UNL     1       6.975  -3.726  22.324  0.00  0.00    -0.001 C 
ATOM      7  C   UNL     1       7.971  -3.267  23.535  0.00  0.00    -0.022 C 
ATOM      8  C   UNL     1       8.590  -4.574  24.080  0.00  0.00    +0.012 C 
ATOM      9  C   UNL     1       9.296  -2.431  23.266  0.00  0.00    +0.008 C 
ATOM     10  C   UNL     1       9.870  -1.665  24.522  0.00  0.00    +0.005 C 
ATOM     11  C   UNL     1       8.966  -1.637  25.752  0.00  0.00    +0.031 C 
ENDROOT
BRANCH   1  19
ATOM     12  C   UNL     1       7.898   3.378  25.607  0.00  0.00    +0.015 C 
ATOM     13  C   UNL     1       7.327   3.108  24.422  0.00  0.00    -0.023 C 
ATOM     14  C   UNL     1       7.691   3.900  23.175  0.00  0.00    +0.147 C 
ATOM     15  C   UNL     1       6.463   4.545  22.540  0.00  0.00    +0.067 C 
ATOM     16  C   UNL     1       5.372   3.505  22.288  0.00  0.00    +0.122 C 
ATOM     17  C   UNL     1       5.013   2.749  23.589  0.00  0.00    +0.067 C 
ATOM     18  C   UNL     1       6.220   2.154  24.305  0.00  0.00    -0.040 C 
ATOM     19  C   UNL     1       6.216   0.868  24.720  0.00  0.00    +0.004 C 
BRANCH  14  20
ATOM     20  O   UNL     1       8.323   3.055  22.216  0.00  0.00    -0.387 OA
ATOM     21  H   UNL     1       9.260   3.309  22.161  0.00  0.00    +0.210 HD
ENDBRANCH  14  20
BRANCH  16  22
ATOM     22  O   UNL     1       4.221   4.183  21.781  0.00  0.00    -0.391 OA
ATOM     23  H   UNL     1       4.288   5.117  22.043  0.00  0.00    +0.210 HD
ENDBRANCH  16  22
ENDBRANCH   1  19
BRANCH   6  24
ATOM     24  C   UNL     1       6.367  -5.218  22.303  0.00  0.00    +0.001 C 
ATOM     25  C   UNL     1       6.212  -5.934  20.949  0.00  0.00    +0.009 C 
BRANCH  24  26
ATOM     26  C   UNL     1       4.983  -5.332  23.003  0.00  0.00    +0.092 C 
BRANCH  26  27
ATOM     27  C   UNL     1       5.125  -5.555  24.501  0.00  0.00    -0.099 C 
ATOM     28  C   UNL     1       5.248  -5.746  25.784  0.00  0.00    -0.068 C 
BRANCH  28  29
ATOM     29  C   UNL     1       5.357  -5.958  27.238  0.00  0.00    +0.121 C 
ATOM     30  C   UNL     1       4.232  -5.229  27.964  0.00  0.00    +0.055 C 
ATOM     31  C   UNL     1       6.721  -5.497  27.752  0.00  0.00    +0.055 C 
BRANCH  29  32
ATOM     32  O   UNL     1       5.223  -7.350  27.518  0.00  0.00    -0.377 OA
ATOM     33  H   UNL     1       4.273  -7.555  27.480  0.00  0.00    +0.211 HD
ENDBRANCH  29  32
ENDBRANCH  28  29
ENDBRANCH  26  27
ENDBRANCH  24  26
ENDBRANCH   6  24
TORSDOF 8
ENDMDL
MODEL 4
REMARK VINA RESULT:      -6.7      3.858      5.661
REMARK  Name = 
REMARK  12 active torsions:
REMARK  status: ('A' for Active; 'I' for Inactive)
REMARK    1  A    between atoms: C_4  and  C_5
REMARK    2  A    between atoms: C_10  and  C_11
REMARK    3  A    between atoms: C_16  and  C_18
REMARK    4  A    between atoms: C_18  and  C_19
REMARK    5  A    between atoms: C_18  and  C_21
REMARK    6  A    between atoms: C_21  and  C_22
REMARK    7  A    between atoms: C_23  and  C_24
REMARK    8  A    between atoms: C_24  and  C_25
REMARK    9  A    between atoms: C_24  and  C_26
REMARK   10  A    between atoms: C_24  and  O_27
REMARK   11  A    between atoms: C_29  and  O_30
REMARK   12  A    between atoms: C_33  and  O_34
REMARK                            x       y       z     vdW  Elec       q    Type
REMARK                         _______ _______ _______ _____ _____    ______ ____
ROOT
ATOM      1  C   UNL     1       4.493  -3.934  23.853  0.00  0.00    -0.000 C 
ATOM      2  C   UNL     1       5.498  -3.234  23.227  0.00  0.00    -0.066 C 
ATOM      3  C   UNL     1       6.356  -2.071  23.678  0.00  0.00    +0.021 C 
ATOM      4  C   UNL     1       6.150  -1.873  25.170  0.00  0.00    +0.009 C 
ATOM      5  C   UNL     1       7.261  -1.011  25.626  0.00  0.00    +0.005 C 
ATOM      6  C   UNL     1       8.504  -1.320  24.763  0.00  0.00    -0.001 C 
ATOM      7  C   UNL     1       7.947  -2.218  23.517  0.00  0.00    -0.022 C 
ATOM      8  C   UNL     1       8.681  -1.688  22.265  0.00  0.00    +0.012 C 
ATOM      9  C   UNL     1       8.270  -3.769  23.386  0.00  0.00    +0.008 C 
ATOM     10  C   UNL     1       7.295  -4.577  22.443  0.00  0.00    +0.005 C 
ATOM     11  C   UNL     1       6.052  -3.825  21.972  0.00  0.00    +0.031 C 
ENDROOT
BRANCH   1  19
ATOM     12  C   UNL     1       4.962  -6.624  25.747  0.00  0.00    +0.015 C 
ATOM     13  C   UNL     1       5.072  -5.503  26.479  0.00  0.00    -0.023 C 
ATOM     14  C   UNL     1       6.060  -5.413  27.633  0.00  0.00    +0.147 C 
ATOM     15  C   UNL     1       5.364  -5.059  28.943  0.00  0.00    +0.067 C 
ATOM     16  C   UNL     1       4.515  -3.799  28.785  0.00  0.00    +0.122 C 
ATOM     17  C   UNL     1       3.505  -3.950  27.623  0.00  0.00    +0.067 C 
ATOM     18  C   UNL     1       4.144  -4.382  26.308  0.00  0.00    -0.040 C 
ATOM     19  C   UNL     1       3.872  -3.729  25.157  0.00  0.00    +0.004 C 
BRANCH  14  20
ATOM     20  O   UNL     1       7.059  -4.433  27.356  0.00  0.00    -0.387 OA
ATOM     21  H   UNL     1       6.992  -4.191  26.417  0.00  0.00    +0.210 HD
ENDBRANCH  14  20
BRANCH  16  22
ATOM     22  O   UNL     1       3.820  -3.573  30.013  0.00  0.00    -0.391 OA
ATOM     23  H   UNL     1       4.464  -3.236  30.659  0.00  0.00    +0.210 HD
ENDBRANCH  16  22
ENDBRANCH   1  19
BRANCH   6  24
ATOM     24  C   UNL     1       9.108   0.149  24.490  0.00  0.00    +0.001 C 
ATOM     25  C   UNL     1      10.583   0.419  24.838  0.00  0.00    +0.009 C 
BRANCH  24  26
ATOM     26  C   UNL     1       8.297   1.288  25.173  0.00  0.00    +0.092 C 
BRANCH  26  27
ATOM     27  C   UNL     1       8.776   2.662  24.734  0.00  0.00    -0.099 C 
ATOM     28  C   UNL     1       9.185   3.842  24.357  0.00  0.00    -0.068 C 
BRANCH  28  29
ATOM     29  C   UNL     1       9.661   5.177  23.958  0.00  0.00    +0.121 C 
ATOM     30  C   UNL     1      11.158   5.140  23.671  0.00  0.00    +0.055 C 
ATOM     31  C   UNL     1       9.340   6.212  25.037  0.00  0.00    +0.055 C 
BRANCH  29  32
ATOM     32  O   UNL     1       8.999   5.568  22.756  0.00  0.00    -0.377 OA
ATOM     33  H   UNL     1       8.655   6.465  22.902  0.00  0.00    +0.211 HD
ENDBRANCH  29  32
ENDBRANCH  28  29
ENDBRANCH  26  27
ENDBRANCH  24  26
ENDBRANCH   6  24
TORSDOF 8
ENDMDL
MODEL 5
REMARK VINA RESULT:      -6.7      3.028      8.003
REMARK  Name = 
REMARK  12 active torsions:
REMARK  status: ('A' for Active; 'I' for Inactive)
REMARK    1  A    between atoms: C_4  and  C_5
REMARK    2  A    between atoms: C_10  and  C_11
REMARK    3  A    between atoms: C_16  and  C_18
REMARK    4  A    between atoms: C_18  and  C_19
REMARK    5  A    between atoms: C_18  and  C_21
REMARK    6  A    between atoms: C_21  and  C_22
REMARK    7  A    between atoms: C_23  and  C_24
REMARK    8  A    between atoms: C_24  and  C_25
REMARK    9  A    between atoms: C_24  and  C_26
REMARK   10  A    between atoms: C_24  and  O_27
REMARK   11  A    between atoms: C_29  and  O_30
REMARK   12  A    between atoms: C_33  and  O_34
REMARK                            x       y       z     vdW  Elec       q    Type
REMARK                         _______ _______ _______ _____ _____    ______ ____
ROOT
ATOM      1  C   UNL     1       9.334   1.704  22.460  0.00  0.00    -0.000 C 
ATOM      2  C   UNL     1       9.345   0.698  23.398  0.00  0.00    -0.066 C 
ATOM      3  C   UNL     1       8.268   0.148  24.307  0.00  0.00    +0.021 C 
ATOM      4  C   UNL     1       6.929   0.713  23.863  0.00  0.00    +0.009 C 
ATOM      5  C   UNL     1       5.896  -0.125  24.506  0.00  0.00    +0.005 C 
ATOM      6  C   UNL     1       6.444  -1.563  24.635  0.00  0.00    -0.001 C 
ATOM      7  C   UNL     1       8.040  -1.442  24.308  0.00  0.00    -0.022 C 
ATOM      8  C   UNL     1       8.744  -2.355  25.338  0.00  0.00    +0.012 C 
ATOM      9  C   UNL     1       8.671  -2.013  22.965  0.00  0.00    +0.008 C 
ATOM     10  C   UNL     1      10.077  -1.408  22.577  0.00  0.00    +0.005 C 
ATOM     11  C   UNL     1      10.534  -0.207  23.402  0.00  0.00    +0.031 C 
ENDROOT
BRANCH   1  19
ATOM     12  C   UNL     1       8.696   3.762  24.988  0.00  0.00    +0.015 C 
ATOM     13  C   UNL     1       8.630   4.416  23.816  0.00  0.00    -0.023 C 
ATOM     14  C   UNL     1       9.077   5.866  23.700  0.00  0.00    +0.147 C 
ATOM     15  C   UNL     1       7.960   6.758  23.168  0.00  0.00    +0.067 C 
ATOM     16  C   UNL     1       7.395   6.201  21.862  0.00  0.00    +0.122 C 
ATOM     17  C   UNL     1       6.925   4.738  22.039  0.00  0.00    +0.067 C 
ATOM     18  C   UNL     1       7.983   3.823  22.643  0.00  0.00    -0.040 C 
ATOM     19  C   UNL     1       8.270   2.628  22.082  0.00  0.00    +0.004 C 
BRANCH  14  20
ATOM     20  O   UNL     1      10.208   5.970  22.836  0.00  0.00    -0.387 OA
ATOM     21  H   UNL     1      10.129   5.284  22.152  0.00  0.00    +0.210 HD
ENDBRANCH  14  20
BRANCH  16  22
ATOM     22  O   UNL     1       6.297   7.025  21.466  0.00  0.00    -0.391 OA
ATOM     23  H   UNL     1       5.483   6.502  21.568  0.00  0.00    +0.210 HD
ENDBRANCH  16  22
ENDBRANCH   1  19
BRANCH   6  24
ATOM     24  C   UNL     1       5.954  -1.988  26.110  0.00  0.00    +0.001 C 
ATOM     25  C   UNL     1       6.475  -1.194  27.321  0.00  0.00    +0.009 C 
BRANCH  24  26
ATOM     26  C   UNL     1       6.218  -3.485  26.440  0.00  0.00    +0.092 C 
BRANCH  26  27
ATOM     27  C   UNL     1       5.659  -4.407  25.368  0.00  0.00    -0.099 C 
ATOM     28  C   UNL     1       5.179  -5.197  24.449  0.00  0.00    -0.068 C 
BRANCH  28  29
ATOM     29  C   UNL     1       4.637  -6.068  23.392  0.00  0.00    +0.121 C 
ATOM     30  C   UNL     1       5.471  -5.939  22.122  0.00  0.00    +0.055 C 
ATOM     31  C   UNL     1       3.171  -5.734  23.114  0.00  0.00    +0.055 C 
BRANCH  29  32
ATOM     32  O   UNL     1       4.710  -7.426  23.822  0.00  0.00    -0.377 OA
ATOM     33  H   UNL     1       3.817  -7.679  24.110  0.00  0.00    +0.211 HD
ENDBRANCH  29  32
ENDBRANCH  28  29
ENDBRANCH  26  27
ENDBRANCH  24  26
ENDBRANCH   6  24
TORSDOF 8
ENDMDL
MODEL 6
REMARK VINA RESULT:      -6.6      2.195      7.474
REMARK  Name = 
REMARK  12 active torsions:
REMARK  status: ('A' for Active; 'I' for Inactive)
REMARK    1  A    between atoms: C_4  and  C_5
REMARK    2  A    between atoms: C_10  and  C_11
REMARK    3  A    between atoms: C_16  and  C_18
REMARK    4  A    between atoms: C_18  and  C_19
REMARK    5  A    between atoms: C_18  and  C_21
REMARK    6  A    between atoms: C_21  and  C_22
REMARK    7  A    between atoms: C_23  and  C_24
REMARK    8  A    between atoms: C_24  and  C_25
REMARK    9  A    between atoms: C_24  and  C_26
REMARK   10  A    between atoms: C_24  and  O_27
REMARK   11  A    between atoms: C_29  and  O_30
REMARK   12  A    between atoms: C_33  and  O_34
REMARK                            x       y       z     vdW  Elec       q    Type
REMARK                         _______ _______ _______ _____ _____    ______ ____
ROOT
ATOM      1  C   UNL     1       8.773   2.588  24.866  0.00  0.00    -0.000 C 
ATOM      2  C   UNL     1       9.306   1.450  24.307  0.00  0.00    -0.066 C 
ATOM      3  C   UNL     1       8.733   0.068  24.081  0.00  0.00    +0.021 C 
ATOM      4  C   UNL     1       7.236   0.120  24.340  0.00  0.00    +0.009 C 
ATOM      5  C   UNL     1       6.675  -1.114  23.750  0.00  0.00    +0.005 C 
ATOM      6  C   UNL     1       7.520  -1.492  22.515  0.00  0.00    -0.001 C 
ATOM      7  C   UNL     1       8.854  -0.553  22.605  0.00  0.00    -0.022 C 
ATOM      8  C   UNL     1      10.034  -1.470  22.212  0.00  0.00    +0.012 C 
ATOM      9  C   UNL     1       9.104   0.654  21.601  0.00  0.00    +0.008 C 
ATOM     10  C   UNL     1      10.142   1.735  22.101  0.00  0.00    +0.005 C 
ATOM     11  C   UNL     1      10.587   1.604  23.555  0.00  0.00    +0.031 C 
ENDROOT
BRANCH   1  19
ATOM     12  C   UNL     1       7.103   4.924  23.196  0.00  0.00    +0.015 C 
ATOM     13  C   UNL     1       6.274   3.949  23.604  0.00  0.00    -0.023 C 
ATOM     14  C   UNL     1       5.085   3.522  22.756  0.00  0.00    +0.147 C 
ATOM     15  C   UNL     1       3.773   3.647  23.523  0.00  0.00    +0.067 C 
ATOM     16  C   UNL     1       3.850   2.907  24.857  0.00  0.00    +0.122 C 
ATOM     17  C   UNL     1       5.053   3.398  25.696  0.00  0.00    +0.067 C 
ATOM     18  C   UNL     1       6.378   3.367  24.945  0.00  0.00    -0.040 C 
ATOM     19  C   UNL     1       7.477   2.810  25.499  0.00  0.00    +0.004 C 
BRANCH  14  20
ATOM     20  O   UNL     1       5.244   2.173  22.321  0.00  0.00    -0.387 OA
ATOM     21  H   UNL     1       4.363   1.813  22.125  0.00  0.00    +0.210 HD
ENDBRANCH  14  20
BRANCH  16  22
ATOM     22  O   UNL     1       2.630   3.138  25.565  0.00  0.00    -0.391 OA
ATOM     23  H   UNL     1       2.188   2.279  25.680  0.00  0.00    +0.210 HD
ENDBRANCH  16  22
ENDBRANCH   1  19
BRANCH   6  24
ATOM     24  C   UNL     1       7.650  -3.092  22.662  0.00  0.00    +0.001 C 
ATOM     25  C   UNL     1       6.654  -3.988  21.905  0.00  0.00    +0.009 C 
BRANCH  24  26
ATOM     26  C   UNL     1       7.621  -3.580  24.139  0.00  0.00    +0.092 C 
BRANCH  26  27
ATOM     27  C   UNL     1       6.501  -4.580  24.380  0.00  0.00    -0.099 C 
ATOM     28  C   UNL     1       5.541  -5.437  24.588  0.00  0.00    -0.068 C 
BRANCH  28  29
ATOM     29  C   UNL     1       4.441  -6.385  24.836  0.00  0.00    +0.121 C 
ATOM     30  C   UNL     1       3.104  -5.748  24.472  0.00  0.00    +0.055 C 
ATOM     31  C   UNL     1       4.442  -6.848  26.293  0.00  0.00    +0.055 C 
BRANCH  29  32
ATOM     32  O   UNL     1       4.616  -7.531  24.004  0.00  0.00    -0.377 OA
ATOM     33  H   UNL     1       4.367  -7.266  23.102  0.00  0.00    +0.211 HD
ENDBRANCH  29  32
ENDBRANCH  28  29
ENDBRANCH  26  27
ENDBRANCH  24  26
ENDBRANCH   6  24
TORSDOF 8
ENDMDL
MODEL 7
REMARK VINA RESULT:      -6.6      2.898      7.343
REMARK  Name = 
REMARK  12 active torsions:
REMARK  status: ('A' for Active; 'I' for Inactive)
REMARK    1  A    between atoms: C_4  and  C_5
REMARK    2  A    between atoms: C_10  and  C_11
REMARK    3  A    between atoms: C_16  and  C_18
REMARK    4  A    between atoms: C_18  and  C_19
REMARK    5  A    between atoms: C_18  and  C_21
REMARK    6  A    between atoms: C_21  and  C_22
REMARK    7  A    between atoms: C_23  and  C_24
REMARK    8  A    between atoms: C_24  and  C_25
REMARK    9  A    between atoms: C_24  and  C_26
REMARK   10  A    between atoms: C_24  and  O_27
REMARK   11  A    between atoms: C_29  and  O_30
REMARK   12  A    between atoms: C_33  and  O_34
REMARK                            x       y       z     vdW  Elec       q    Type
REMARK                         _______ _______ _______ _____ _____    ______ ____
ROOT
ATOM      1  C   UNL     1      10.180   0.920  23.127  0.00  0.00    -0.000 C 
ATOM      2  C   UNL     1      10.094  -0.431  23.376  0.00  0.00    -0.066 C 
ATOM      3  C   UNL     1       9.606  -1.210  24.578  0.00  0.00    +0.021 C 
ATOM      4  C   UNL     1       8.898  -0.250  25.519  0.00  0.00    +0.009 C 
ATOM      5  C   UNL     1       8.124  -1.091  26.456  0.00  0.00    +0.005 C 
ATOM      6  C   UNL     1       7.670  -2.364  25.710  0.00  0.00    -0.001 C 
ATOM      7  C   UNL     1       8.527  -2.372  24.319  0.00  0.00    -0.022 C 
ATOM      8  C   UNL     1       8.962  -3.840  24.109  0.00  0.00    +0.012 C 
ATOM      9  C   UNL     1       7.849  -2.085  22.910  0.00  0.00    +0.008 C 
ATOM     10  C   UNL     1       8.846  -1.652  21.765  0.00  0.00    +0.005 C 
ATOM     11  C   UNL     1      10.274  -1.344  22.209  0.00  0.00    +0.031 C 
ENDROOT
BRANCH   1  19
ATOM     12  C   UNL     1       7.634   2.644  21.869  0.00  0.00    +0.015 C 
ATOM     13  C   UNL     1       7.552   2.587  23.209  0.00  0.00    -0.023 C 
ATOM     14  C   UNL     1       6.205   2.504  23.910  0.00  0.00    +0.147 C 
ATOM     15  C   UNL     1       6.016   3.648  24.902  0.00  0.00    +0.067 C 
ATOM     16  C   UNL     1       7.192   3.723  25.875  0.00  0.00    +0.122 C 
ATOM     17  C   UNL     1       8.534   3.839  25.117  0.00  0.00    +0.067 C 
ATOM     18  C   UNL     1       8.735   2.763  24.057  0.00  0.00    -0.040 C 
ATOM     19  C   UNL     1       9.885   2.058  23.991  0.00  0.00    +0.004 C 
BRANCH  14  20
ATOM     20  O   UNL     1       6.079   1.262  24.601  0.00  0.00    -0.387 OA
ATOM     21  H   UNL     1       5.203   1.239  25.021  0.00  0.00    +0.210 HD
ENDBRANCH  14  20
BRANCH  16  22
ATOM     22  O   UNL     1       7.002   4.864  26.714  0.00  0.00    -0.391 OA
ATOM     23  H   UNL     1       7.645   4.807  27.442  0.00  0.00    +0.210 HD
ENDBRANCH  16  22
ENDBRANCH   1  19
BRANCH   6  24
ATOM     24  C   UNL     1       7.913  -3.515  26.812  0.00  0.00    +0.001 C 
ATOM     25  C   UNL     1       9.039  -4.538  26.577  0.00  0.00    +0.009 C 
BRANCH  24  26
ATOM     26  C   UNL     1       6.639  -4.352  27.122  0.00  0.00    +0.092 C 
BRANCH  26  27
ATOM     27  C   UNL     1       6.038  -4.953  25.862  0.00  0.00    -0.099 C 
ATOM     28  C   UNL     1       5.522  -5.469  24.781  0.00  0.00    -0.068 C 
BRANCH  28  29
ATOM     29  C   UNL     1       4.918  -6.033  23.562  0.00  0.00    +0.121 C 
ATOM     30  C   UNL     1       5.895  -5.935  22.395  0.00  0.00    +0.055 C 
ATOM     31  C   UNL     1       3.605  -5.324  23.231  0.00  0.00    +0.055 C 
BRANCH  29  32
ATOM     32  O   UNL     1       4.637  -7.415  23.777  0.00  0.00    -0.377 OA
ATOM     33  H   UNL     1       5.147  -7.913  23.116  0.00  0.00    +0.211 HD
ENDBRANCH  29  32
ENDBRANCH  28  29
ENDBRANCH  26  27
ENDBRANCH  24  26
ENDBRANCH   6  24
TORSDOF 8
ENDMDL
MODEL 8
REMARK VINA RESULT:      -6.6      2.370      8.504
REMARK  Name = 
REMARK  12 active torsions:
REMARK  status: ('A' for Active; 'I' for Inactive)
REMARK    1  A    between atoms: C_4  and  C_5
REMARK    2  A    between atoms: C_10  and  C_11
REMARK    3  A    between atoms: C_16  and  C_18
REMARK    4  A    between atoms: C_18  and  C_19
REMARK    5  A    between atoms: C_18  and  C_21
REMARK    6  A    between atoms: C_21  and  C_22
REMARK    7  A    between atoms: C_23  and  C_24
REMARK    8  A    between atoms: C_24  and  C_25
REMARK    9  A    between atoms: C_24  and  C_26
REMARK   10  A    between atoms: C_24  and  O_27
REMARK   11  A    between atoms: C_29  and  O_30
REMARK   12  A    between atoms: C_33  and  O_34
REMARK                            x       y       z     vdW  Elec       q    Type
REMARK                         _______ _______ _______ _____ _____    ______ ____
ROOT
ATOM      1  C   UNL     1       8.313   1.832  25.005  0.00  0.00    -0.000 C 
ATOM      2  C   UNL     1       8.752   0.529  24.970  0.00  0.00    -0.066 C 
ATOM      3  C   UNL     1       8.063  -0.762  24.584  0.00  0.00    +0.021 C 
ATOM      4  C   UNL     1       6.741  -0.421  23.918  0.00  0.00    +0.009 C 
ATOM      5  C   UNL     1       6.298  -1.652  23.230  0.00  0.00    +0.005 C 
ATOM      6  C   UNL     1       7.549  -2.425  22.759  0.00  0.00    -0.001 C 
ATOM      7  C   UNL     1       8.805  -1.709  23.520  0.00  0.00    -0.022 C 
ATOM      8  C   UNL     1       9.726  -2.864  23.975  0.00  0.00    +0.012 C 
ATOM      9  C   UNL     1       9.861  -0.811  22.741  0.00  0.00    +0.008 C 
ATOM     10  C   UNL     1      10.694   0.178  23.646  0.00  0.00    +0.005 C 
ATOM     11  C   UNL     1      10.224   0.309  25.093  0.00  0.00    +0.031 C 
ENDROOT
BRANCH   1  19
ATOM     12  C   UNL     1       8.366   5.116  25.510  0.00  0.00    +0.015 C 
ATOM     13  C   UNL     1       7.606   4.812  24.445  0.00  0.00    -0.023 C 
ATOM     14  C   UNL     1       7.547   5.731  23.234  0.00  0.00    +0.147 C 
ATOM     15  C   UNL     1       6.118   6.168  22.928  0.00  0.00    +0.067 C 
ATOM     16  C   UNL     1       5.195   4.957  22.803  0.00  0.00    +0.122 C 
ATOM     17  C   UNL     1       5.264   4.072  24.069  0.00  0.00    +0.067 C 
ATOM     18  C   UNL     1       6.682   3.674  24.462  0.00  0.00    -0.040 C 
ATOM     19  C   UNL     1       6.991   2.389  24.741  0.00  0.00    +0.004 C 
BRANCH  14  20
ATOM     20  O   UNL     1       8.092   5.080  22.087  0.00  0.00    -0.387 OA
ATOM     21  H   UNL     1       8.719   4.404  22.395  0.00  0.00    +0.210 HD
ENDBRANCH  14  20
BRANCH  16  22
ATOM     22  O   UNL     1       3.861   5.433  22.609  0.00  0.00    -0.391 OA
ATOM     23  H   UNL     1       3.261   4.834  23.086  0.00  0.00    +0.210 HD
ENDBRANCH  16  22
ENDBRANCH   1  19
BRANCH   6  24
ATOM     24  C   UNL     1       7.162  -3.951  23.105  0.00  0.00    +0.001 C 
ATOM     25  C   UNL     1       7.209  -4.999  21.978  0.00  0.00    +0.009 C 
BRANCH  24  26
ATOM     26  C   UNL     1       5.761  -4.099  23.763  0.00  0.00    +0.092 C 
BRANCH  26  27
ATOM     27  C   UNL     1       5.855  -4.671  25.169  0.00  0.00    -0.099 C 
ATOM     28  C   UNL     1       5.936  -5.160  26.375  0.00  0.00    -0.068 C 
BRANCH  28  29
ATOM     29  C   UNL     1       6.010  -5.735  27.728  0.00  0.00    +0.121 C 
ATOM     30  C   UNL     1       5.166  -7.003  27.811  0.00  0.00    +0.055 C 
ATOM     31  C   UNL     1       5.562  -4.716  28.776  0.00  0.00    +0.055 C 
BRANCH  29  32
ATOM     32  O   UNL     1       7.362  -6.097  28.009  0.00  0.00    -0.377 OA
ATOM     33  H   UNL     1       7.331  -6.893  28.566  0.00  0.00    +0.211 HD
ENDBRANCH  29  32
ENDBRANCH  28  29
ENDBRANCH  26  27
ENDBRANCH  24  26
ENDBRANCH   6  24
TORSDOF 8
ENDMDL
MODEL 9
REMARK VINA RESULT:      -6.6      2.673      3.971
REMARK  Name = 
REMARK  12 active torsions:
REMARK  status: ('A' for Active; 'I' for Inactive)
REMARK    1  A    between atoms: C_4  and  C_5
REMARK    2  A    between atoms: C_10  and  C_11
REMARK    3  A    between atoms: C_16  and  C_18
REMARK    4  A    between atoms: C_18  and  C_19
REMARK    5  A    between atoms: C_18  and  C_21
REMARK    6  A    between atoms: C_21  and  C_22
REMARK    7  A    between atoms: C_23  and  C_24
REMARK    8  A    between atoms: C_24  and  C_25
REMARK    9  A    between atoms: C_24  and  C_26
REMARK   10  A    between atoms: C_24  and  O_27
REMARK   11  A    between atoms: C_29  and  O_30
REMARK   12  A    between atoms: C_33  and  O_34
REMARK                            x       y       z     vdW  Elec       q    Type
REMARK                         _______ _______ _______ _____ _____    ______ ____
ROOT
ATOM      1  C   UNL     1       6.978  -2.646  22.002  0.00  0.00    -0.000 C 
ATOM      2  C   UNL     1       7.600  -1.581  22.610  0.00  0.00    -0.066 C 
ATOM      3  C   UNL     1       7.228  -0.742  23.813  0.00  0.00    +0.021 C 
ATOM      4  C   UNL     1       6.075  -1.420  24.534  0.00  0.00    +0.009 C 
ATOM      5  C   UNL     1       6.004  -0.796  25.871  0.00  0.00    +0.005 C 
ATOM      6  C   UNL     1       7.433  -0.401  26.303  0.00  0.00    -0.001 C 
ATOM      7  C   UNL     1       8.342  -0.545  24.953  0.00  0.00    -0.022 C 
ATOM      8  C   UNL     1       9.282   0.681  24.955  0.00  0.00    +0.012 C 
ATOM      9  C   UNL     1       9.411  -1.707  24.778  0.00  0.00    +0.008 C 
ATOM     10  C   UNL     1       9.839  -2.003  23.286  0.00  0.00    +0.005 C 
ATOM     11  C   UNL     1       9.012  -1.306  22.208  0.00  0.00    +0.031 C 
ENDROOT
BRANCH   1  19
ATOM     12  C   UNL     1       7.464  -5.813  22.883  0.00  0.00    +0.015 C 
ATOM     13  C   UNL     1       6.487  -5.260  23.621  0.00  0.00    -0.023 C 
ATOM     14  C   UNL     1       6.292  -5.642  25.081  0.00  0.00    +0.147 C 
ATOM     15  C   UNL     1       4.884  -6.166  25.342  0.00  0.00    +0.067 C 
ATOM     16  C   UNL     1       3.834  -5.175  24.840  0.00  0.00    +0.122 C 
ATOM     17  C   UNL     1       4.053  -4.843  23.346  0.00  0.00    +0.067 C 
ATOM     18  C   UNL     1       5.471  -4.390  23.020  0.00  0.00    -0.040 C 
ATOM     19  C   UNL     1       5.694  -3.277  22.288  0.00  0.00    +0.004 C 
BRANCH  14  20
ATOM     20  O   UNL     1       6.537  -4.519  25.926  0.00  0.00    -0.387 OA
ATOM     21  H   UNL     1       6.400  -3.712  25.403  0.00  0.00    +0.210 HD
ENDBRANCH  14  20
BRANCH  16  22
ATOM     22  O   UNL     1       2.544  -5.761  25.029  0.00  0.00    -0.391 OA
ATOM     23  H   UNL     1       1.963  -5.431  24.322  0.00  0.00    +0.210 HD
ENDBRANCH  16  22
ENDBRANCH   1  19
BRANCH   6  24
ATOM     24  C   UNL     1       7.204   1.049  26.969  0.00  0.00    +0.001 C 
ATOM     25  C   UNL     1       7.086   1.149  28.501  0.00  0.00    +0.009 C 
BRANCH  24  26
ATOM     26  C   UNL     1       5.968   1.803  26.399  0.00  0.00    +0.092 C 
BRANCH  26  27
ATOM     27  C   UNL     1       6.251   2.394  25.027  0.00  0.00    -0.099 C 
ATOM     28  C   UNL     1       6.493   2.901  23.851  0.00  0.00    -0.068 C 
BRANCH  28  29
ATOM     29  C   UNL     1       6.791   3.486  22.532  0.00  0.00    +0.121 C 
ATOM     30  C   UNL     1       7.568   2.492  21.677  0.00  0.00    +0.055 C 
ATOM     31  C   UNL     1       7.566   4.795  22.682  0.00  0.00    +0.055 C 
BRANCH  29  32
ATOM     32  O   UNL     1       5.565   3.770  21.860  0.00  0.00    -0.377 OA
ATOM     33  H   UNL     1       5.798   4.139  20.991  0.00  0.00    +0.211 HD
ENDBRANCH  29  32
ENDBRANCH  28  29
ENDBRANCH  26  27
ENDBRANCH  24  26
ENDBRANCH   6  24
TORSDOF 8
ENDMDL
