MODEL 1
REMARK VINA RESULT:      -4.6      0.000      0.000
REMARK  Name = 
REMARK  8 active torsions:
REMARK  status: ('A' for Active; 'I' for Inactive)
REMARK    1  A    between atoms: O_1  and  C_2
REMARK    2  A    between atoms: C_2  and  C_4
REMARK    3  A    between atoms: C_2  and  C_10
REMARK    4  A    between atoms: C_4  and  O_5
REMARK    5  A    between atoms: O_5  and  P_6
REMARK    6  A    between atoms: P_6  and  O_7
REMARK    7  A    between atoms: P_6  and  O_8
REMARK    8  A    between atoms: C_10  and  O_11
REMARK                            x       y       z     vdW  Elec       q    Type
REMARK                         _______ _______ _______ _____ _____    ______ ____
ROOT
ATOM      1  C   UNL     1      11.375   3.577  23.309  0.00  0.00    +0.215 C 
ENDROOT
BRANCH   1   2
ATOM      2  C   UNL     1      11.822   5.025  23.469  0.00  0.00    +0.249 C 
BRANCH   2   3
ATOM      3  O   UNL     1      10.794   5.913  22.997  0.00  0.00    -0.379 OA
ATOM      4  H   UNL     1      11.258   6.741  22.756  0.00  0.00    +0.211 HD
ENDBRANCH   2   3
BRANCH   2   5
ATOM      5  C   UNL     1      13.084   5.242  22.648  0.00  0.00    +0.336 C 
ATOM      6  O   UNL     1      13.108   5.622  21.484  0.00  0.00    -0.248 OA
BRANCH   5   7
ATOM      7  O   UNL     1      14.199   4.972  23.368  0.00  0.00    -0.479 OA
ATOM      8  H   UNL     1      14.109   4.050  23.719  0.00  0.00    +0.295 HD
ENDBRANCH   5   7
ENDBRANCH   2   5
ENDBRANCH   1   2
BRANCH   1   9
ATOM      9  O   UNL     1       9.987   3.468  23.646  0.00  0.00    -0.284 OA
BRANCH   9  10
ATOM     10  P   UNL     1       9.209   2.226  22.728  0.00  0.00    +0.472 P 
ATOM     11  O   UNL     1       8.515   1.113  21.905  0.00  0.00    -0.228 OA
BRANCH  10  12
ATOM     12  O   UNL     1      10.428   2.447  21.656  0.00  0.00    -0.303 OA
ATOM     13  H   UNL     1      11.147   2.875  22.157  0.00  0.00    +0.222 HD
ENDBRANCH  10  12
BRANCH  10  14
ATOM     14  O   UNL     1       8.315   3.452  22.111  0.00  0.00    -0.303 OA
ATOM     15  H   UNL     1       7.513   3.124  21.667  0.00  0.00    +0.222 HD
ENDBRANCH  10  14
ENDBRANCH   9  10
ENDBRANCH   1   9
TORSDOF 8
ENDMDL
MODEL 2
REMARK VINA RESULT:      -4.6      5.926      7.802
REMARK  Name = 
REMARK  8 active torsions:
REMARK  status: ('A' for Active; 'I' for Inactive)
REMARK    1  A    between atoms: O_1  and  C_2
REMARK    2  A    between atoms: C_2  and  C_4
REMARK    3  A    between atoms: C_2  and  C_10
REMARK    4  A    between atoms: C_4  and  O_5
REMARK    5  A    between atoms: O_5  and  P_6
REMARK    6  A    between atoms: P_6  and  O_7
REMARK    7  A    between atoms: P_6  and  O_8
REMARK    8  A    between atoms: C_10  and  O_11
REMARK                            x       y       z     vdW  Elec       q    Type
REMARK                         _______ _______ _______ _____ _____    ______ ____
ROOT
ATOM      1  C   UNL     1       9.149  -2.226  24.221  0.00  0.00    +0.215 C 
ENDROOT
BRANCH   1   2
ATOM      2  C   UNL     1       8.482  -1.828  22.911  0.00  0.00    +0.249 C 
BRANCH   2   3
ATOM      3  O   UNL     1       7.974  -2.995  22.241  0.00  0.00    -0.379 OA
ATOM      4  H   UNL     1       8.025  -3.716  22.902  0.00  0.00    +0.211 HD
ENDBRANCH   2   3
BRANCH   2   5
ATOM      5  C   UNL     1       9.514  -1.152  22.021  0.00  0.00    +0.336 C 
ATOM      6  O   UNL     1       9.313  -0.145  21.352  0.00  0.00    -0.248 OA
BRANCH   5   7
ATOM      7  O   UNL     1      10.705  -1.795  22.062  0.00  0.00    -0.479 OA
ATOM      8  H   UNL     1      10.548  -2.682  22.475  0.00  0.00    +0.295 HD
ENDBRANCH   5   7
ENDBRANCH   2   5
ENDBRANCH   1   2
BRANCH   1   9
ATOM      9  O   UNL     1       9.723  -3.532  24.085  0.00  0.00    -0.284 OA
BRANCH   9  10
ATOM     10  P   UNL     1       8.985  -4.662  25.166  0.00  0.00    +0.472 P 
ATOM     11  O   UNL     1       8.325  -5.675  26.134  0.00  0.00    -0.228 OA
BRANCH  10  12
ATOM     12  O   UNL     1      10.454  -5.385  25.194  0.00  0.00    -0.303 OA
ATOM     13  H   UNL     1      11.030  -4.836  24.628  0.00  0.00    +0.222 HD
ENDBRANCH  10  12
BRANCH  10  14
ATOM     14  O   UNL     1       8.522  -5.436  23.798  0.00  0.00    -0.303 OA
ATOM     15  H   UNL     1       8.129  -4.822  23.153  0.00  0.00    +0.222 HD
ENDBRANCH  10  14
ENDBRANCH   9  10
ENDBRANCH   1   9
TORSDOF 8
ENDMDL
MODEL 3
REMARK VINA RESULT:      -4.5      9.587     10.555
REMARK  Name = 
REMARK  8 active torsions:
REMARK  status: ('A' for Active; 'I' for Inactive)
REMARK    1  A    between atoms: O_1  and  C_2
REMARK    2  A    between atoms: C_2  and  C_4
REMARK    3  A    between atoms: C_2  and  C_10
REMARK    4  A    between atoms: C_4  and  O_5
REMARK    5  A    between atoms: O_5  and  P_6
REMARK    6  A    between atoms: P_6  and  O_7
REMARK    7  A    between atoms: P_6  and  O_8
REMARK    8  A    between atoms: C_10  and  O_11
REMARK                            x       y       z     vdW  Elec       q    Type
REMARK                         _______ _______ _______ _____ _____    ______ ____
ROOT
ATOM      1  C   UNL     1       8.211  -4.537  23.926  0.00  0.00    +0.215 C 
ENDROOT
BRANCH   1   2
ATOM      2  C   UNL     1       8.787  -4.907  25.286  0.00  0.00    +0.249 C 
BRANCH   2   3
ATOM      3  O   UNL     1       9.764  -5.952  25.140  0.00  0.00    -0.379 OA
ATOM      4  H   UNL     1      10.527  -5.672  25.687  0.00  0.00    +0.211 HD
ENDBRANCH   2   3
BRANCH   2   5
ATOM      5  C   UNL     1       7.659  -5.401  26.179  0.00  0.00    +0.336 C 
ATOM      6  O   UNL     1       7.762  -5.636  27.378  0.00  0.00    -0.248 OA
BRANCH   5   7
ATOM      7  O   UNL     1       6.502  -5.544  25.489  0.00  0.00    -0.479 OA
ATOM      8  H   UNL     1       5.826  -5.905  26.117  0.00  0.00    +0.295 HD
ENDBRANCH   5   7
ENDBRANCH   2   5
ENDBRANCH   1   2
BRANCH   1   9
ATOM      9  O   UNL     1       8.070  -5.721  23.131  0.00  0.00    -0.284 OA
BRANCH   9  10
ATOM     10  P   UNL     1       6.943  -5.485  21.841  0.00  0.00    +0.472 P 
ATOM     11  O   UNL     1       5.934  -5.273  20.686  0.00  0.00    -0.228 OA
BRANCH  10  12
ATOM     12  O   UNL     1       6.366  -4.254  22.754  0.00  0.00    -0.303 OA
ATOM     13  H   UNL     1       7.023  -3.536  22.676  0.00  0.00    +0.222 HD
ENDBRANCH  10  12
BRANCH  10  14
ATOM     14  O   UNL     1       6.047  -6.613  22.621  0.00  0.00    -0.303 OA
ATOM     15  H   UNL     1       6.208  -7.506  22.270  0.00  0.00    +0.222 HD
ENDBRANCH  10  14
ENDBRANCH   9  10
ENDBRANCH   1   9
TORSDOF 8
ENDMDL
MODEL 4
REMARK VINA RESULT:      -4.4      3.004      4.560
REMARK  Name = 
REMARK  8 active torsions:
REMARK  status: ('A' for Active; 'I' for Inactive)
REMARK    1  A    between atoms: O_1  and  C_2
REMARK    2  A    between atoms: C_2  and  C_4
REMARK    3  A    between atoms: C_2  and  C_10
REMARK    4  A    between atoms: C_4  and  O_5
REMARK    5  A    between atoms: O_5  and  P_6
REMARK    6  A    between atoms: P_6  and  O_7
REMARK    7  A    between atoms: P_6  and  O_8
REMARK    8  A    between atoms: C_10  and  O_11
REMARK                            x       y       z     vdW  Elec       q    Type
REMARK                         _______ _______ _______ _____ _____    ______ ____
ROOT
ATOM      1  C   UNL     1       8.367   0.752  23.122  0.00  0.00    +0.215 C 
ENDROOT
BRANCH   1   2
ATOM      2  C   UNL     1       9.724   1.121  23.706  0.00  0.00    +0.249 C 
BRANCH   2   3
ATOM      3  O   UNL     1       9.575   1.540  25.074  0.00  0.00    -0.379 OA
ATOM      4  H   UNL     1       9.124   2.408  25.031  0.00  0.00    +0.211 HD
ENDBRANCH   2   3
BRANCH   2   5
ATOM      5  C   UNL     1      10.312   2.266  22.895  0.00  0.00    +0.336 C 
ATOM      6  O   UNL     1      10.960   3.196  23.360  0.00  0.00    -0.248 OA
BRANCH   5   7
ATOM      7  O   UNL     1      10.042   2.132  21.575  0.00  0.00    -0.479 OA
ATOM      8  H   UNL     1       9.056   2.131  21.474  0.00  0.00    +0.295 HD
ENDBRANCH   5   7
ENDBRANCH   2   5
ENDBRANCH   1   2
BRANCH   1   9
ATOM      9  O   UNL     1       8.521  -0.351  22.220  0.00  0.00    -0.284 OA
BRANCH   9  10
ATOM     10  P   UNL     1       9.433  -1.632  22.940  0.00  0.00    +0.472 P 
ATOM     11  O   UNL     1      10.251  -2.779  23.583  0.00  0.00    -0.228 OA
BRANCH  10  12
ATOM     12  O   UNL     1      10.306  -1.604  21.554  0.00  0.00    -0.303 OA
ATOM     13  H   UNL     1      11.237  -1.716  21.825  0.00  0.00    +0.222 HD
ENDBRANCH  10  12
BRANCH  10  14
ATOM     14  O   UNL     1       8.277  -2.605  22.306  0.00  0.00    -0.303 OA
ATOM     15  H   UNL     1       8.661  -3.408  21.910  0.00  0.00    +0.222 HD
ENDBRANCH  10  14
ENDBRANCH   9  10
ENDBRANCH   1   9
TORSDOF 8
ENDMDL
MODEL 5
REMARK VINA RESULT:      -4.4      3.769      6.239
REMARK  Name = 
REMARK  8 active torsions:
REMARK  status: ('A' for Active; 'I' for Inactive)
REMARK    1  A    between atoms: O_1  and  C_2
REMARK    2  A    between atoms: C_2  and  C_4
REMARK    3  A    between atoms: C_2  and  C_10
REMARK    4  A    between atoms: C_4  and  O_5
REMARK    5  A    between atoms: O_5  and  P_6
REMARK    6  A    between atoms: P_6  and  O_7
REMARK    7  A    between atoms: P_6  and  O_8
REMARK    8  A    between atoms: C_10  and  O_11
REMARK                            x       y       z     vdW  Elec       q    Type
REMARK                         _______ _______ _______ _____ _____    ______ ____
ROOT
ATOM      1  C   UNL     1       9.815  -0.497  23.585  0.00  0.00    +0.215 C 
ENDROOT
BRANCH   1   2
ATOM      2  C   UNL     1       9.653  -1.818  22.844  0.00  0.00    +0.249 C 
BRANCH   2   3
ATOM      3  O   UNL     1      10.245  -1.727  21.537  0.00  0.00    -0.379 OA
ATOM      4  H   UNL     1      10.611  -2.617  21.355  0.00  0.00    +0.211 HD
ENDBRANCH   2   3
BRANCH   2   5
ATOM      5  C   UNL     1       8.169  -2.120  22.699  0.00  0.00    +0.336 C 
ATOM      6  O   UNL     1       7.283  -1.276  22.640  0.00  0.00    -0.248 OA
BRANCH   5   7
ATOM      7  O   UNL     1       7.935  -3.452  22.631  0.00  0.00    -0.479 OA
ATOM      8  H   UNL     1       7.811  -3.681  21.674  0.00  0.00    +0.295 HD
ENDBRANCH   5   7
ENDBRANCH   2   5
ENDBRANCH   1   2
BRANCH   1   9
ATOM      9  O   UNL     1      10.356   0.485  22.693  0.00  0.00    -0.284 OA
BRANCH   9  10
ATOM     10  P   UNL     1       9.217   1.748  22.378  0.00  0.00    +0.472 P 
ATOM     11  O   UNL     1       8.197   2.878  22.096  0.00  0.00    -0.228 OA
BRANCH  10  12
ATOM     12  O   UNL     1       8.906   0.935  20.992  0.00  0.00    -0.303 OA
ATOM     13  H   UNL     1       8.519   0.081  21.266  0.00  0.00    +0.222 HD
ENDBRANCH  10  12
BRANCH  10  14
ATOM     14  O   UNL     1      10.502   2.539  21.740  0.00  0.00    -0.303 OA
ATOM     15  H   UNL     1      10.501   2.499  20.767  0.00  0.00    +0.222 HD
ENDBRANCH  10  14
ENDBRANCH   9  10
ENDBRANCH   1   9
TORSDOF 8
ENDMDL
MODEL 6
REMARK VINA RESULT:      -4.3      6.742      9.154
REMARK  Name = 
REMARK  8 active torsions:
REMARK  status: ('A' for Active; 'I' for Inactive)
REMARK    1  A    between atoms: O_1  and  C_2
REMARK    2  A    between atoms: C_2  and  C_4
REMARK    3  A    between atoms: C_2  and  C_10
REMARK    4  A    between atoms: C_4  and  O_5
REMARK    5  A    between atoms: O_5  and  P_6
REMARK    6  A    between atoms: P_6  and  O_7
REMARK    7  A    between atoms: P_6  and  O_8
REMARK    8  A    between atoms: C_10  and  O_11
REMARK                            x       y       z     vdW  Elec       q    Type
REMARK                         _______ _______ _______ _____ _____    ______ ____
ROOT
ATOM      1  C   UNL     1       8.933  -3.902  24.242  0.00  0.00    +0.215 C 
ENDROOT
BRANCH   1   2
ATOM      2  C   UNL     1       9.235  -4.635  25.543  0.00  0.00    +0.249 C 
BRANCH   2   3
ATOM      3  O   UNL     1      10.251  -5.628  25.324  0.00  0.00    -0.379 OA
ATOM      4  H   UNL     1       9.852  -6.475  25.612  0.00  0.00    +0.211 HD
ENDBRANCH   2   3
BRANCH   2   5
ATOM      5  C   UNL     1       7.965  -5.318  26.026  0.00  0.00    +0.336 C 
ATOM      6  O   UNL     1       6.900  -5.333  25.419  0.00  0.00    -0.248 OA
BRANCH   5   7
ATOM      7  O   UNL     1       8.151  -5.930  27.220  0.00  0.00    -0.479 OA
ATOM      8  H   UNL     1       7.426  -5.627  27.824  0.00  0.00    +0.295 HD
ENDBRANCH   5   7
ENDBRANCH   2   5
ENDBRANCH   1   2
BRANCH   1   9
ATOM      9  O   UNL     1      10.048  -3.072  23.894  0.00  0.00    -0.284 OA
BRANCH   9  10
ATOM     10  P   UNL     1       9.528  -1.559  23.236  0.00  0.00    +0.472 P 
ATOM     11  O   UNL     1       9.061  -0.206  22.646  0.00  0.00    -0.228 OA
BRANCH  10  12
ATOM     12  O   UNL     1       8.406  -2.448  22.440  0.00  0.00    -0.303 OA
ATOM     13  H   UNL     1       8.720  -3.372  22.485  0.00  0.00    +0.222 HD
ENDBRANCH  10  12
BRANCH  10  14
ATOM     14  O   UNL     1      10.684  -1.828  22.106  0.00  0.00    -0.303 OA
ATOM     15  H   UNL     1      11.571  -1.613  22.442  0.00  0.00    +0.222 HD
ENDBRANCH  10  14
ENDBRANCH   9  10
ENDBRANCH   1   9
TORSDOF 8
ENDMDL
MODEL 7
REMARK VINA RESULT:      -4.3      6.379      9.007
REMARK  Name = 
REMARK  8 active torsions:
REMARK  status: ('A' for Active; 'I' for Inactive)
REMARK    1  A    between atoms: O_1  and  C_2
REMARK    2  A    between atoms: C_2  and  C_4
REMARK    3  A    between atoms: C_2  and  C_10
REMARK    4  A    between atoms: C_4  and  O_5
REMARK    5  A    between atoms: O_5  and  P_6
REMARK    6  A    between atoms: P_6  and  O_7
REMARK    7  A    between atoms: P_6  and  O_8
REMARK    8  A    between atoms: C_10  and  O_11
REMARK                            x       y       z     vdW  Elec       q    Type
REMARK                         _______ _______ _______ _____ _____    ______ ____
ROOT
ATOM      1  C   UNL     1       7.324  -2.936  23.208  0.00  0.00    +0.215 C 
ENDROOT
BRANCH   1   2
ATOM      2  C   UNL     1       7.106  -4.443  23.206  0.00  0.00    +0.249 C 
BRANCH   2   3
ATOM      3  O   UNL     1       8.322  -5.118  23.570  0.00  0.00    -0.379 OA
ATOM      4  H   UNL     1       8.923  -5.000  22.806  0.00  0.00    +0.211 HD
ENDBRANCH   2   3
BRANCH   2   5
ATOM      5  C   UNL     1       6.694  -4.878  21.807  0.00  0.00    +0.336 C 
ATOM      6  O   UNL     1       7.082  -5.895  21.245  0.00  0.00    -0.248 OA
BRANCH   5   7
ATOM      7  O   UNL     1       5.823  -4.003  21.249  0.00  0.00    -0.479 OA
ATOM      8  H   UNL     1       5.472  -4.422  20.423  0.00  0.00    +0.295 HD
ENDBRANCH   5   7
ENDBRANCH   2   5
ENDBRANCH   1   2
BRANCH   1   9
ATOM      9  O   UNL     1       8.357  -2.604  22.272  0.00  0.00    -0.284 OA
BRANCH   9  10
ATOM     10  P   UNL     1       9.476  -1.470  22.943  0.00  0.00    +0.472 P 
ATOM     11  O   UNL     1      10.479  -0.454  23.543  0.00  0.00    -0.228 OA
BRANCH  10  12
ATOM     12  O   UNL     1      10.247  -1.587  21.503  0.00  0.00    -0.303 OA
ATOM     13  H   UNL     1      10.886  -2.318  21.604  0.00  0.00    +0.222 HD
ENDBRANCH  10  12
BRANCH  10  14
ATOM     14  O   UNL     1      10.217  -2.796  23.558  0.00  0.00    -0.303 OA
ATOM     15  H   UNL     1      10.467  -3.424  22.857  0.00  0.00    +0.222 HD
ENDBRANCH  10  14
ENDBRANCH   9  10
ENDBRANCH   1   9
TORSDOF 8
ENDMDL
MODEL 8
REMARK VINA RESULT:      -4.3      6.106      7.799
REMARK  Name = 
REMARK  8 active torsions:
REMARK  status: ('A' for Active; 'I' for Inactive)
REMARK    1  A    between atoms: O_1  and  C_2
REMARK    2  A    between atoms: C_2  and  C_4
REMARK    3  A    between atoms: C_2  and  C_10
REMARK    4  A    between atoms: C_4  and  O_5
REMARK    5  A    between atoms: O_5  and  P_6
REMARK    6  A    between atoms: P_6  and  O_7
REMARK    7  A    between atoms: P_6  and  O_8
REMARK    8  A    between atoms: C_10  and  O_11
REMARK                            x       y       z     vdW  Elec       q    Type
REMARK                         _______ _______ _______ _____ _____    ______ ____
ROOT
ATOM      1  C   UNL     1       8.803  -2.971  23.484  0.00  0.00    +0.215 C 
ENDROOT
BRANCH   1   2
ATOM      2  C   UNL     1       9.446  -1.636  23.131  0.00  0.00    +0.249 C 
BRANCH   2   3
ATOM      3  O   UNL     1      10.684  -1.854  22.432  0.00  0.00    -0.379 OA
ATOM      4  H   UNL     1      10.572  -1.414  21.565  0.00  0.00    +0.211 HD
ENDBRANCH   2   3
BRANCH   2   5
ATOM      5  C   UNL     1       9.727  -0.873  24.417  0.00  0.00    +0.336 C 
ATOM      6  O   UNL     1      10.649  -0.081  24.576  0.00  0.00    -0.248 OA
BRANCH   5   7
ATOM      7  O   UNL     1       8.819  -1.163  25.379  0.00  0.00    -0.479 OA
ATOM      8  H   UNL     1       8.488  -2.081  25.204  0.00  0.00    +0.295 HD
ENDBRANCH   5   7
ENDBRANCH   2   5
ENDBRANCH   1   2
BRANCH   1   9
ATOM      9  O   UNL     1       9.699  -3.728  24.307  0.00  0.00    -0.284 OA
BRANCH   9  10
ATOM     10  P   UNL     1       8.847  -4.877  25.278  0.00  0.00    +0.472 P 
ATOM     11  O   UNL     1       8.084  -5.906  26.149  0.00  0.00    -0.228 OA
BRANCH  10  12
ATOM     12  O   UNL     1       9.091  -3.818  26.503  0.00  0.00    -0.303 OA
ATOM     13  H   UNL     1       8.960  -4.328  27.325  0.00  0.00    +0.222 HD
ENDBRANCH  10  12
BRANCH  10  14
ATOM     14  O   UNL     1      10.315  -5.580  25.465  0.00  0.00    -0.303 OA
ATOM     15  H   UNL     1      10.424  -5.953  26.357  0.00  0.00    +0.222 HD
ENDBRANCH  10  14
ENDBRANCH   9  10
ENDBRANCH   1   9
TORSDOF 8
ENDMDL
MODEL 9
REMARK VINA RESULT:      -4.3      4.207      6.004
REMARK  Name = 
REMARK  8 active torsions:
REMARK  status: ('A' for Active; 'I' for Inactive)
REMARK    1  A    between atoms: O_1  and  C_2
REMARK    2  A    between atoms: C_2  and  C_4
REMARK    3  A    between atoms: C_2  and  C_10
REMARK    4  A    between atoms: C_4  and  O_5
REMARK    5  A    between atoms: O_5  and  P_6
REMARK    6  A    between atoms: P_6  and  O_7
REMARK    7  A    between atoms: P_6  and  O_8
REMARK    8  A    between atoms: C_10  and  O_11
REMARK                            x       y       z     vdW  Elec       q    Type
REMARK                         _______ _______ _______ _____ _____    ______ ____
ROOT
ATOM      1  C   UNL     1       8.257  -0.916  22.678  0.00  0.00    +0.215 C 
ENDROOT
BRANCH   1   2
ATOM      2  C   UNL     1       9.277  -0.377  21.683  0.00  0.00    +0.249 C 
BRANCH   2   3
ATOM      3  O   UNL     1      10.262  -1.383  21.393  0.00  0.00    -0.379 OA
ATOM      4  H   UNL     1      10.942  -0.931  20.851  0.00  0.00    +0.211 HD
ENDBRANCH   2   3
BRANCH   2   5
ATOM      5  C   UNL     1       9.966   0.834  22.295  0.00  0.00    +0.336 C 
ATOM      6  O   UNL     1      10.487   0.859  23.404  0.00  0.00    -0.248 OA
BRANCH   5   7
ATOM      7  O   UNL     1       9.947   1.896  21.456  0.00  0.00    -0.479 OA
ATOM      8  H   UNL     1      10.216   2.692  21.980  0.00  0.00    +0.295 HD
ENDBRANCH   5   7
ENDBRANCH   2   5
ENDBRANCH   1   2
BRANCH   1   9
ATOM      9  O   UNL     1       8.341  -2.346  22.717  0.00  0.00    -0.284 OA
BRANCH   9  10
ATOM     10  P   UNL     1       8.597  -2.920  24.328  0.00  0.00    +0.472 P 
ATOM     11  O   UNL     1       8.825  -3.433  25.771  0.00  0.00    -0.228 OA
BRANCH  10  12
ATOM     12  O   UNL     1       8.703  -1.336  24.728  0.00  0.00    -0.303 OA
ATOM     13  H   UNL     1       9.576  -1.039  24.407  0.00  0.00    +0.222 HD
ENDBRANCH  10  12
BRANCH  10  14
ATOM     14  O   UNL     1      10.171  -3.013  23.882  0.00  0.00    -0.303 OA
ATOM     15  H   UNL     1      10.766  -2.905  24.645  0.00  0.00    +0.222 HD
ENDBRANCH  10  14
ENDBRANCH   9  10
ENDBRANCH   1   9
TORSDOF 8
ENDMDL
