MODEL 1
REMARK VINA RESULT:      -4.5      0.000      0.000
REMARK  Name = 
REMARK  43 active torsions:
REMARK  status: ('A' for Active; 'I' for Inactive)
REMARK    1  A    between atoms: N_1  and  C_2
REMARK    2  A    between atoms: C_2  and  C_3
REMARK    3  A    between atoms: C_3  and  C_4
REMARK    4  A    between atoms: C_4  and  C_5
REMARK    5  A    between atoms: C_5  and  N_6
REMARK    6  A    between atoms: N_6  and  C_7
REMARK    7  A    between atoms: C_7  and  C_8
REMARK    8  A    between atoms: C_8  and  C_9
REMARK    9  A    between atoms: C_9  and  N_10
REMARK   10  A    between atoms: C_11  and  C_13
REMARK   11  A    between atoms: C_13  and  N_14
REMARK   12  A    between atoms: C_15  and  C_17
REMARK   13  A    between atoms: C_17  and  C_19
REMARK   14  A    between atoms: C_17  and  N_52
REMARK   15  A    between atoms: C_19  and  S_20
REMARK   16  A    between atoms: S_20  and  S_21
REMARK   17  A    between atoms: S_21  and  C_22
REMARK   18  A    between atoms: C_22  and  C_23
REMARK   19  A    between atoms: C_23  and  N_25
REMARK   20  A    between atoms: C_23  and  C_36
REMARK   21  A    between atoms: C_26  and  C_28
REMARK   22  A    between atoms: C_28  and  C_29
REMARK   23  A    between atoms: C_29  and  C_30
REMARK   24  A    between atoms: C_30  and  N_32
REMARK   25  A    between atoms: C_30  and  C_33
REMARK   26  A    between atoms: C_33  and  O_34
REMARK   27  A    between atoms: N_38  and  C_39
REMARK   28  A    between atoms: C_39  and  C_40
REMARK   29  A    between atoms: N_42  and  C_43
REMARK   30  A    between atoms: C_43  and  C_44
REMARK   31  A    between atoms: C_44  and  C_45
REMARK   32  A    between atoms: C_45  and  N_46
REMARK   33  A    between atoms: N_46  and  C_47
REMARK   34  A    between atoms: C_47  and  C_48
REMARK   35  A    between atoms: C_48  and  C_49
REMARK   36  A    between atoms: C_49  and  C_50
REMARK   37  A    between atoms: C_50  and  N_51
REMARK   38  A    between atoms: C_53  and  C_55
REMARK   39  A    between atoms: C_55  and  C_56
REMARK   40  A    between atoms: C_56  and  C_57
REMARK   41  A    between atoms: C_57  and  N_59
REMARK   42  A    between atoms: C_57  and  C_60
REMARK   43  A    between atoms: C_60  and  O_61
REMARK                            x       y       z     vdW  Elec       q    Type
REMARK                         _______ _______ _______ _____ _____    ______ ____
ROOT
ATOM      1  S   UNK     1       8.958   0.554  21.384  0.00  0.00    -0.091 S 
ENDROOT
BRANCH   1   2
ATOM      2  S   UNK     1       9.434  -1.331  22.028  0.00  0.00    -0.091 S 
BRANCH   2   3
ATOM      3  C   UNK     1       7.816  -2.183  22.198  0.00  0.00    +0.112 C 
BRANCH   3   4
ATOM      4  C   UNK     1       7.807  -3.607  22.763  0.00  0.00    +0.169 C 
BRANCH   4   5
ATOM      5  C   UNK     1       6.540  -4.300  22.221  0.00  0.00    +0.235 C 
ATOM      6  N   UNK     1       6.110  -5.425  22.902  0.00  0.00    -0.305 N 
ATOM      7  H   UNK     1       6.546  -5.696  23.783  0.00  0.00    +0.149 HD
ATOM      8  O   UNK     1       6.002  -3.934  21.196  0.00  0.00    -0.274 OA
BRANCH   6   9
ATOM      9  C   UNK     1       5.013  -6.262  22.393  0.00  0.00    +0.200 C 
BRANCH   9  10
ATOM     10  C   UNK     1       3.643  -5.933  23.001  0.00  0.00    +0.230 C 
ATOM     11  N   UNK     1       2.913  -7.040  23.398  0.00  0.00    -0.314 N 
ATOM     12  H   UNK     1       3.294  -7.956  23.196  0.00  0.00    +0.149 HD
ATOM     13  O   UNK     1       3.224  -4.761  23.090  0.00  0.00    -0.274 OA
BRANCH  11  14
ATOM     14  C   UNK     1       1.594  -7.015  24.048  0.00  0.00    +0.105 C 
BRANCH  14  15
ATOM     15  C   UNK     1       1.396  -7.919  25.279  0.00  0.00    +0.034 C 
BRANCH  15  16
ATOM     16  C   UNK     1       1.937  -7.369  26.614  0.00  0.00    +0.082 C 
BRANCH  16  17
ATOM     17  N   UNK     1       2.554  -6.080  26.506  0.00  0.00    -0.316 NA
ATOM     18  H   UNK     1       2.510  -5.875  25.512  0.00  0.00    +0.122 HD
BRANCH  17  19
ATOM     19  C   UNK     1       1.712  -5.090  27.218  0.00  0.00    +0.081 C 
BRANCH  19  20
ATOM     20  C   UNK     1       2.586  -3.863  27.351  0.00  0.00    +0.016 C 
BRANCH  20  21
ATOM     21  C   UNK     1       2.734  -3.157  25.997  0.00  0.00    +0.016 C 
BRANCH  21  22
ATOM     22  C   UNK     1       4.048  -2.413  25.935  0.00  0.00    +0.077 C 
BRANCH  22  23
ATOM     23  N   UNK     1       4.828  -2.939  24.825  0.00  0.00    -0.330 NA
ATOM     24  H   UNK     1       5.549  -3.558  25.192  0.00  0.00    +0.118 HD
ATOM     25  H   UNK     1       4.231  -3.519  24.237  0.00  0.00    +0.118 HD
ENDBRANCH  22  23
ENDBRANCH  21  22
ENDBRANCH  20  21
ENDBRANCH  19  20
ENDBRANCH  17  19
ENDBRANCH  16  17
ENDBRANCH  15  16
ENDBRANCH  14  15
ENDBRANCH  11  14
ENDBRANCH   9  10
ENDBRANCH   6   9
ENDBRANCH   4   5
BRANCH   4  26
ATOM     26  N   UNK     1       7.711  -3.627  24.233  0.00  0.00    -0.303 N 
ATOM     27  H   UNK     1       6.774  -3.679  24.609  0.00  0.00    +0.149 HD
ATOM     28  C   UNK     1       8.768  -4.017  25.044  0.00  0.00    +0.214 C 
ATOM     29  O   UNK     1       9.872  -4.291  24.588  0.00  0.00    -0.276 OA
BRANCH  28  30
ATOM     30  C   UNK     1       8.434  -4.000  26.524  0.00  0.00    +0.098 C 
BRANCH  30  31
ATOM     31  C   UNK     1       7.817  -5.335  26.970  0.00  0.00    +0.039 C 
BRANCH  31  32
ATOM     32  C   UNK     1       6.289  -5.280  27.144  0.00  0.00    +0.161 C 
BRANCH  32  33
ATOM     33  N   UNK     1       5.595  -5.717  25.896  0.00  0.00    -0.318 NA
ATOM     34  H   UNK     1       5.101  -6.590  26.115  0.00  0.00    +0.119 HD
ATOM     35  H   UNK     1       4.829  -5.059  25.720  0.00  0.00    +0.119 HD
ENDBRANCH  32  33
BRANCH  32  36
ATOM     36  C   UNK     1       5.869  -6.231  28.279  0.00  0.00    +0.322 C 
ATOM     37  O   UNK     1       4.722  -6.558  28.545  0.00  0.00    -0.249 OA
BRANCH  36  38
ATOM     38  O   UNK     1       6.950  -6.666  28.981  0.00  0.00    -0.480 OA
ATOM     39  H   UNK     1       7.532  -5.879  29.110  0.00  0.00    +0.295 HD
ENDBRANCH  36  38
ENDBRANCH  32  36
ENDBRANCH  31  32
ENDBRANCH  30  31
ENDBRANCH  28  30
ENDBRANCH   4  26
ENDBRANCH   3   4
ENDBRANCH   2   3
ENDBRANCH   1   2
BRANCH   1  40
ATOM     40  C   UNK     1      10.118   1.615  22.324  0.00  0.00    +0.112 C 
BRANCH  40  41
ATOM     41  C   UNK     1       9.459   2.536  23.363  0.00  0.00    +0.169 C 
BRANCH  41  42
ATOM     42  N   UNK     1       8.389   3.380  22.850  0.00  0.00    -0.303 N 
ATOM     43  H   UNK     1       7.559   2.923  22.495  0.00  0.00    +0.149 HD
ATOM     44  C   UNK     1       8.333   4.723  23.133  0.00  0.00    +0.214 C 
ATOM     45  O   UNK     1       9.225   5.339  23.704  0.00  0.00    -0.276 OA
BRANCH  44  46
ATOM     46  C   UNK     1       7.076   5.401  22.655  0.00  0.00    +0.098 C 
BRANCH  46  47
ATOM     47  C   UNK     1       5.974   4.373  22.388  0.00  0.00    +0.039 C 
BRANCH  47  48
ATOM     48  C   UNK     1       5.074   4.127  23.603  0.00  0.00    +0.161 C 
BRANCH  48  49
ATOM     49  N   UNK     1       5.462   5.002  24.746  0.00  0.00    -0.318 NA
ATOM     50  H   UNK     1       4.931   5.877  24.660  0.00  0.00    +0.119 HD
ATOM     51  H   UNK     1       5.100   4.579  25.607  0.00  0.00    +0.119 HD
ENDBRANCH  48  49
BRANCH  48  52
ATOM     52  C   UNK     1       5.195   2.658  24.045  0.00  0.00    +0.322 C 
ATOM     53  O   UNK     1       4.874   2.219  25.132  0.00  0.00    -0.249 OA
BRANCH  52  54
ATOM     54  O   UNK     1       5.643   1.881  23.021  0.00  0.00    -0.480 OA
ATOM     55  H   UNK     1       5.851   2.499  22.276  0.00  0.00    +0.295 HD
ENDBRANCH  52  54
ENDBRANCH  48  52
ENDBRANCH  47  48
ENDBRANCH  46  47
ENDBRANCH  44  46
ENDBRANCH  41  42
BRANCH  41  58
ATOM     56  N   UNK     1       9.714   0.675  24.995  0.00  0.00    -0.305 N 
ATOM     57  H   UNK     1       9.939   0.121  24.173  0.00  0.00    +0.149 HD
ATOM     58  C   UNK     1       9.116   1.887  24.725  0.00  0.00    +0.235 C 
ATOM     59  O   UNK     1       8.385   2.453  25.540  0.00  0.00    -0.274 OA
BRANCH  56  60
ATOM     60  C   UNK     1       9.313  -0.162  26.124  0.00  0.00    +0.200 C 
BRANCH  60  63
ATOM     61  N   UNK     1       7.283   0.250  27.369  0.00  0.00    -0.314 N 
ATOM     62  H   UNK     1       7.922   0.568  28.092  0.00  0.00    +0.149 HD
ATOM     63  C   UNK     1       7.807  -0.304  26.228  0.00  0.00    +0.230 C 
ATOM     64  O   UNK     1       7.111  -0.786  25.337  0.00  0.00    -0.274 OA
BRANCH  61  65
ATOM     65  C   UNK     1       5.894   0.185  27.658  0.00  0.00    +0.105 C 
BRANCH  65  66
ATOM     66  C   UNK     1       5.573   1.245  28.671  0.00  0.00    +0.034 C 
BRANCH  66  67
ATOM     67  C   UNK     1       6.594   2.347  28.506  0.00  0.00    +0.082 C 
BRANCH  67  68
ATOM     68  N   UNK     1       6.147   3.377  27.618  0.00  0.00    -0.316 NA
ATOM     69  H   UNK     1       5.589   2.987  26.863  0.00  0.00    +0.122 HD
BRANCH  68  70
ATOM     70  C   UNK     1       5.625   4.567  28.282  0.00  0.00    +0.081 C 
BRANCH  70  71
ATOM     71  C   UNK     1       6.650   5.624  28.764  0.00  0.00    +0.016 C 
BRANCH  71  72
ATOM     72  C   UNK     1       6.865   6.827  27.839  0.00  0.00    +0.016 C 
BRANCH  72  73
ATOM     73  C   UNK     1       7.881   6.797  26.708  0.00  0.00    +0.077 C 
BRANCH  73  74
ATOM     74  N   UNK     1       8.278   5.389  26.540  0.00  0.00    -0.330 NA
ATOM     75  H   UNK     1       7.518   4.769  26.823  0.00  0.00    +0.118 HD
ATOM     76  H   UNK     1       8.468   5.179  25.564  0.00  0.00    +0.118 HD
ENDBRANCH  73  74
ENDBRANCH  72  73
ENDBRANCH  71  72
ENDBRANCH  70  71
ENDBRANCH  68  70
ENDBRANCH  67  68
ENDBRANCH  66  67
ENDBRANCH  65  66
ENDBRANCH  61  65
ENDBRANCH  60  63
ENDBRANCH  56  60
ENDBRANCH  41  58
ENDBRANCH  40  41
ENDBRANCH   1  40
TORSDOF 43
ENDMDL
MODEL 2
REMARK VINA RESULT:      -4.2      2.662      8.475
REMARK  Name = 
REMARK  43 active torsions:
REMARK  status: ('A' for Active; 'I' for Inactive)
REMARK    1  A    between atoms: N_1  and  C_2
REMARK    2  A    between atoms: C_2  and  C_3
REMARK    3  A    between atoms: C_3  and  C_4
REMARK    4  A    between atoms: C_4  and  C_5
REMARK    5  A    between atoms: C_5  and  N_6
REMARK    6  A    between atoms: N_6  and  C_7
REMARK    7  A    between atoms: C_7  and  C_8
REMARK    8  A    between atoms: C_8  and  C_9
REMARK    9  A    between atoms: C_9  and  N_10
REMARK   10  A    between atoms: C_11  and  C_13
REMARK   11  A    between atoms: C_13  and  N_14
REMARK   12  A    between atoms: C_15  and  C_17
REMARK   13  A    between atoms: C_17  and  C_19
REMARK   14  A    between atoms: C_17  and  N_52
REMARK   15  A    between atoms: C_19  and  S_20
REMARK   16  A    between atoms: S_20  and  S_21
REMARK   17  A    between atoms: S_21  and  C_22
REMARK   18  A    between atoms: C_22  and  C_23
REMARK   19  A    between atoms: C_23  and  N_25
REMARK   20  A    between atoms: C_23  and  C_36
REMARK   21  A    between atoms: C_26  and  C_28
REMARK   22  A    between atoms: C_28  and  C_29
REMARK   23  A    between atoms: C_29  and  C_30
REMARK   24  A    between atoms: C_30  and  N_32
REMARK   25  A    between atoms: C_30  and  C_33
REMARK   26  A    between atoms: C_33  and  O_34
REMARK   27  A    between atoms: N_38  and  C_39
REMARK   28  A    between atoms: C_39  and  C_40
REMARK   29  A    between atoms: N_42  and  C_43
REMARK   30  A    between atoms: C_43  and  C_44
REMARK   31  A    between atoms: C_44  and  C_45
REMARK   32  A    between atoms: C_45  and  N_46
REMARK   33  A    between atoms: N_46  and  C_47
REMARK   34  A    between atoms: C_47  and  C_48
REMARK   35  A    between atoms: C_48  and  C_49
REMARK   36  A    between atoms: C_49  and  C_50
REMARK   37  A    between atoms: C_50  and  N_51
REMARK   38  A    between atoms: C_53  and  C_55
REMARK   39  A    between atoms: C_55  and  C_56
REMARK   40  A    between atoms: C_56  and  C_57
REMARK   41  A    between atoms: C_57  and  N_59
REMARK   42  A    between atoms: C_57  and  C_60
REMARK   43  A    between atoms: C_60  and  O_61
REMARK                            x       y       z     vdW  Elec       q    Type
REMARK                         _______ _______ _______ _____ _____    ______ ____
ROOT
ATOM      1  S   UNK     1       7.637   1.061  25.563  0.00  0.00    -0.091 S 
ENDROOT
BRANCH   1   2
ATOM      2  S   UNK     1       8.659  -0.579  26.241  0.00  0.00    -0.091 S 
BRANCH   2   3
ATOM      3  C   UNK     1      10.032  -0.796  25.042  0.00  0.00    +0.112 C 
BRANCH   3   4
ATOM      4  C   UNK     1       9.854  -1.823  23.920  0.00  0.00    +0.169 C 
BRANCH   4   5
ATOM      5  C   UNK     1       9.432  -1.045  22.657  0.00  0.00    +0.235 C 
ATOM      6  N   UNK     1       9.713   0.310  22.641  0.00  0.00    -0.305 N 
ATOM      7  H   UNK     1      10.280   0.730  23.377  0.00  0.00    +0.149 HD
ATOM      8  O   UNK     1       8.799  -1.572  21.764  0.00  0.00    -0.274 OA
BRANCH   6   9
ATOM      9  C   UNK     1       9.221   1.187  21.568  0.00  0.00    +0.200 C 
BRANCH   9  10
ATOM     10  C   UNK     1       7.896   1.890  21.894  0.00  0.00    +0.230 C 
ATOM     11  N   UNK     1       7.991   3.266  22.007  0.00  0.00    -0.314 N 
ATOM     12  H   UNK     1       8.911   3.683  21.943  0.00  0.00    +0.149 HD
ATOM     13  O   UNK     1       6.837   1.254  22.071  0.00  0.00    -0.274 OA
BRANCH  11  14
ATOM     14  C   UNK     1       6.876   4.189  22.269  0.00  0.00    +0.105 C 
BRANCH  14  15
ATOM     15  C   UNK     1       7.121   5.322  23.282  0.00  0.00    +0.034 C 
BRANCH  15  16
ATOM     16  C   UNK     1       8.054   6.457  22.814  0.00  0.00    +0.082 C 
BRANCH  16  17
ATOM     17  N   UNK     1       9.449   6.162  22.960  0.00  0.00    -0.316 NA
ATOM     18  H   UNK     1       9.908   6.942  22.499  0.00  0.00    +0.122 HD
BRANCH  17  19
ATOM     19  C   UNK     1       9.795   6.209  24.399  0.00  0.00    +0.081 C 
BRANCH  19  20
ATOM     20  C   UNK     1      11.305   6.298  24.431  0.00  0.00    +0.016 C 
BRANCH  20  21
ATOM     21  C   UNK     1      11.900   5.845  23.091  0.00  0.00    +0.016 C 
BRANCH  21  22
ATOM     22  C   UNK     1      12.807   4.654  23.297  0.00  0.00    +0.077 C 
BRANCH  22  23
ATOM     23  N   UNK     1      14.188   5.094  23.169  0.00  0.00    -0.330 NA
ATOM     24  H   UNK     1      14.690   4.435  22.577  0.00  0.00    +0.118 HD
ATOM     25  H   UNK     1      14.214   5.989  22.681  0.00  0.00    +0.118 HD
ENDBRANCH  22  23
ENDBRANCH  21  22
ENDBRANCH  20  21
ENDBRANCH  19  20
ENDBRANCH  17  19
ENDBRANCH  16  17
ENDBRANCH  15  16
ENDBRANCH  14  15
ENDBRANCH  11  14
ENDBRANCH   9  10
ENDBRANCH   6   9
ENDBRANCH   4   5
BRANCH   4  26
ATOM     26  N   UNK     1       8.779  -2.789  24.207  0.00  0.00    -0.303 N 
ATOM     27  H   UNK     1       7.873  -2.561  23.822  0.00  0.00    +0.149 HD
ATOM     28  C   UNK     1       9.035  -4.109  24.551  0.00  0.00    +0.214 C 
ATOM     29  O   UNK     1      10.175  -4.530  24.715  0.00  0.00    -0.276 OA
BRANCH  28  30
ATOM     30  C   UNK     1       7.779  -4.934  24.764  0.00  0.00    +0.098 C 
BRANCH  30  31
ATOM     31  C   UNK     1       6.930  -4.993  23.484  0.00  0.00    +0.039 C 
BRANCH  31  32
ATOM     32  C   UNK     1       5.687  -4.086  23.528  0.00  0.00    +0.161 C 
BRANCH  32  33
ATOM     33  N   UNK     1       5.682  -3.250  24.765  0.00  0.00    -0.318 NA
ATOM     34  H   UNK     1       6.631  -3.285  25.157  0.00  0.00    +0.119 HD
ATOM     35  H   UNK     1       5.591  -2.270  24.478  0.00  0.00    +0.119 HD
ENDBRANCH  32  33
BRANCH  32  36
ATOM     36  C   UNK     1       5.703  -3.140  22.314  0.00  0.00    +0.322 C 
ATOM     37  O   UNK     1       5.456  -3.460  21.161  0.00  0.00    -0.249 OA
BRANCH  36  38
ATOM     38  O   UNK     1       6.049  -1.876  22.680  0.00  0.00    -0.480 OA
ATOM     39  H   UNK     1       5.395  -1.597  23.365  0.00  0.00    +0.295 HD
ENDBRANCH  36  38
ENDBRANCH  32  36
ENDBRANCH  31  32
ENDBRANCH  30  31
ENDBRANCH  28  30
ENDBRANCH   4  26
ENDBRANCH   3   4
ENDBRANCH   2   3
ENDBRANCH   1   2
BRANCH   1  40
ATOM     40  C   UNK     1       5.915   0.448  25.432  0.00  0.00    +0.112 C 
BRANCH  40  41
ATOM     41  C   UNK     1       5.079   0.586  26.714  0.00  0.00    +0.169 C 
BRANCH  41  42
ATOM     42  N   UNK     1       3.893   1.421  26.591  0.00  0.00    -0.303 N 
ATOM     43  H   UNK     1       3.006   0.958  26.436  0.00  0.00    +0.149 HD
ATOM     44  C   UNK     1       3.889   2.732  27.001  0.00  0.00    +0.214 C 
ATOM     45  O   UNK     1       4.891   3.339  27.361  0.00  0.00    -0.276 OA
BRANCH  44  46
ATOM     46  C   UNK     1       2.536   3.390  26.946  0.00  0.00    +0.098 C 
BRANCH  46  47
ATOM     47  C   UNK     1       1.911   3.232  25.558  0.00  0.00    +0.039 C 
BRANCH  47  48
ATOM     48  C   UNK     1       2.264   4.380  24.606  0.00  0.00    +0.161 C 
BRANCH  48  49
ATOM     49  N   UNK     1       1.036   5.053  24.095  0.00  0.00    -0.318 NA
ATOM     50  H   UNK     1       1.271   6.039  23.928  0.00  0.00    +0.119 HD
ATOM     51  H   UNK     1       0.840   4.686  23.157  0.00  0.00    +0.119 HD
ENDBRANCH  48  49
BRANCH  48  52
ATOM     52  C   UNK     1       3.059   3.831  23.409  0.00  0.00    +0.322 C 
ATOM     53  O   UNK     1       3.369   4.462  22.416  0.00  0.00    -0.249 OA
BRANCH  52  54
ATOM     54  O   UNK     1       3.449   2.546  23.635  0.00  0.00    -0.480 OA
ATOM     55  H   UNK     1       3.313   2.063  22.782  0.00  0.00    +0.295 HD
ENDBRANCH  52  54
ENDBRANCH  48  52
ENDBRANCH  47  48
ENDBRANCH  46  47
ENDBRANCH  44  46
ENDBRANCH  41  42
BRANCH  41  58
ATOM     56  N   UNK     1       3.891  -0.652  28.517  0.00  0.00    -0.305 N 
ATOM     57  H   UNK     1       3.802   0.264  28.947  0.00  0.00    +0.149 HD
ATOM     58  C   UNK     1       4.819  -0.722  27.500  0.00  0.00    +0.235 C 
ATOM     59  O   UNK     1       5.379  -1.776  27.195  0.00  0.00    -0.274 OA
BRANCH  56  60
ATOM     60  C   UNK     1       3.710  -1.730  29.487  0.00  0.00    +0.200 C 
BRANCH  60  63
ATOM     61  N   UNK     1       3.113  -3.785  28.362  0.00  0.00    -0.314 N 
ATOM     62  H   UNK     1       4.085  -3.776  28.067  0.00  0.00    +0.149 HD
ATOM     63  C   UNK     1       2.631  -2.708  29.064  0.00  0.00    +0.230 C 
ATOM     64  O   UNK     1       1.452  -2.598  29.393  0.00  0.00    -0.274 OA
BRANCH  61  65
ATOM     65  C   UNK     1       2.248  -4.790  27.853  0.00  0.00    +0.105 C 
BRANCH  65  66
ATOM     66  C   UNK     1       2.595  -6.090  28.517  0.00  0.00    +0.034 C 
BRANCH  66  67
ATOM     67  C   UNK     1       4.103  -6.184  28.562  0.00  0.00    +0.082 C 
BRANCH  67  68
ATOM     68  N   UNK     1       4.620  -7.119  27.609  0.00  0.00    -0.316 NA
ATOM     69  H   UNK     1       4.100  -7.992  27.639  0.00  0.00    +0.122 HD
BRANCH  68  70
ATOM     70  C   UNK     1       4.893  -6.556  26.291  0.00  0.00    +0.081 C 
BRANCH  70  71
ATOM     71  C   UNK     1       4.280  -7.277  25.065  0.00  0.00    +0.016 C 
BRANCH  71  72
ATOM     72  C   UNK     1       2.771  -7.102  24.863  0.00  0.00    +0.016 C 
BRANCH  72  73
ATOM     73  C   UNK     1       2.207  -6.253  23.736  0.00  0.00    +0.077 C 
BRANCH  73  74
ATOM     74  N   UNK     1       3.209  -6.270  22.657  0.00  0.00    -0.330 NA
ATOM     75  H   UNK     1       3.408  -7.230  22.371  0.00  0.00    +0.118 HD
ATOM     76  H   UNK     1       2.861  -5.793  21.829  0.00  0.00    +0.118 HD
ENDBRANCH  73  74
ENDBRANCH  72  73
ENDBRANCH  71  72
ENDBRANCH  70  71
ENDBRANCH  68  70
ENDBRANCH  67  68
ENDBRANCH  66  67
ENDBRANCH  65  66
ENDBRANCH  61  65
ENDBRANCH  60  63
ENDBRANCH  56  60
ENDBRANCH  41  58
ENDBRANCH  40  41
ENDBRANCH   1  40
TORSDOF 43
ENDMDL
MODEL 3
REMARK VINA RESULT:      -4.2      1.550      2.076
REMARK  Name = 
REMARK  43 active torsions:
REMARK  status: ('A' for Active; 'I' for Inactive)
REMARK    1  A    between atoms: N_1  and  C_2
REMARK    2  A    between atoms: C_2  and  C_3
REMARK    3  A    between atoms: C_3  and  C_4
REMARK    4  A    between atoms: C_4  and  C_5
REMARK    5  A    between atoms: C_5  and  N_6
REMARK    6  A    between atoms: N_6  and  C_7
REMARK    7  A    between atoms: C_7  and  C_8
REMARK    8  A    between atoms: C_8  and  C_9
REMARK    9  A    between atoms: C_9  and  N_10
REMARK   10  A    between atoms: C_11  and  C_13
REMARK   11  A    between atoms: C_13  and  N_14
REMARK   12  A    between atoms: C_15  and  C_17
REMARK   13  A    between atoms: C_17  and  C_19
REMARK   14  A    between atoms: C_17  and  N_52
REMARK   15  A    between atoms: C_19  and  S_20
REMARK   16  A    between atoms: S_20  and  S_21
REMARK   17  A    between atoms: S_21  and  C_22
REMARK   18  A    between atoms: C_22  and  C_23
REMARK   19  A    between atoms: C_23  and  N_25
REMARK   20  A    between atoms: C_23  and  C_36
REMARK   21  A    between atoms: C_26  and  C_28
REMARK   22  A    between atoms: C_28  and  C_29
REMARK   23  A    between atoms: C_29  and  C_30
REMARK   24  A    between atoms: C_30  and  N_32
REMARK   25  A    between atoms: C_30  and  C_33
REMARK   26  A    between atoms: C_33  and  O_34
REMARK   27  A    between atoms: N_38  and  C_39
REMARK   28  A    between atoms: C_39  and  C_40
REMARK   29  A    between atoms: N_42  and  C_43
REMARK   30  A    between atoms: C_43  and  C_44
REMARK   31  A    between atoms: C_44  and  C_45
REMARK   32  A    between atoms: C_45  and  N_46
REMARK   33  A    between atoms: N_46  and  C_47
REMARK   34  A    between atoms: C_47  and  C_48
REMARK   35  A    between atoms: C_48  and  C_49
REMARK   36  A    between atoms: C_49  and  C_50
REMARK   37  A    between atoms: C_50  and  N_51
REMARK   38  A    between atoms: C_53  and  C_55
REMARK   39  A    between atoms: C_55  and  C_56
REMARK   40  A    between atoms: C_56  and  C_57
REMARK   41  A    between atoms: C_57  and  N_59
REMARK   42  A    between atoms: C_57  and  C_60
REMARK   43  A    between atoms: C_60  and  O_61
REMARK                            x       y       z     vdW  Elec       q    Type
REMARK                         _______ _______ _______ _____ _____    ______ ____
ROOT
ATOM      1  S   UNK     1       9.187  -0.060  22.171  0.00  0.00    -0.091 S 
ENDROOT
BRANCH   1   2
ATOM      2  S   UNK     1       7.531  -0.956  22.977  0.00  0.00    -0.091 S 
BRANCH   2   3
ATOM      3  C   UNK     1       7.382  -2.548  22.074  0.00  0.00    +0.112 C 
BRANCH   3   4
ATOM      4  C   UNK     1       7.915  -3.814  22.751  0.00  0.00    +0.169 C 
BRANCH   4   5
ATOM      5  C   UNK     1       7.000  -4.977  22.319  0.00  0.00    +0.235 C 
ATOM      6  N   UNK     1       5.728  -5.000  22.862  0.00  0.00    -0.305 N 
ATOM      7  H   UNK     1       5.388  -4.215  23.419  0.00  0.00    +0.149 HD
ATOM      8  O   UNK     1       7.405  -5.879  21.613  0.00  0.00    -0.274 OA
BRANCH   6   9
ATOM      9  C   UNK     1       4.820  -6.138  22.654  0.00  0.00    +0.200 C 
BRANCH   9  10
ATOM     10  C   UNK     1       3.393  -5.901  23.167  0.00  0.00    +0.230 C 
ATOM     11  N   UNK     1       2.489  -6.889  22.819  0.00  0.00    -0.314 N 
ATOM     12  H   UNK     1       2.809  -7.630  22.208  0.00  0.00    +0.149 HD
ATOM     13  O   UNK     1       3.085  -4.881  23.816  0.00  0.00    -0.274 OA
BRANCH  11  14
ATOM     14  C   UNK     1       1.072  -6.939  23.211  0.00  0.00    +0.105 C 
BRANCH  14  15
ATOM     15  C   UNK     1       0.727  -7.682  24.515  0.00  0.00    +0.034 C 
BRANCH  15  16
ATOM     16  C   UNK     1       1.871  -8.498  25.151  0.00  0.00    +0.082 C 
BRANCH  16  17
ATOM     17  N   UNK     1       2.367  -7.947  26.377  0.00  0.00    -0.316 NA
ATOM     18  H   UNK     1       3.152  -7.373  26.082  0.00  0.00    +0.122 HD
BRANCH  17  19
ATOM     19  C   UNK     1       1.333  -7.055  26.949  0.00  0.00    +0.081 C 
BRANCH  19  20
ATOM     20  C   UNK     1       2.051  -6.269  28.023  0.00  0.00    +0.016 C 
BRANCH  20  21
ATOM     21  C   UNK     1       1.854  -6.926  29.395  0.00  0.00    +0.016 C 
BRANCH  21  22
ATOM     22  C   UNK     1       3.191  -7.154  30.063  0.00  0.00    +0.077 C 
BRANCH  22  23
ATOM     23  N   UNK     1       4.189  -7.399  29.033  0.00  0.00    -0.330 NA
ATOM     24  H   UNK     1       4.384  -8.398  28.994  0.00  0.00    +0.118 HD
ATOM     25  H   UNK     1       3.804  -7.151  28.123  0.00  0.00    +0.118 HD
ENDBRANCH  22  23
ENDBRANCH  21  22
ENDBRANCH  20  21
ENDBRANCH  19  20
ENDBRANCH  17  19
ENDBRANCH  16  17
ENDBRANCH  15  16
ENDBRANCH  14  15
ENDBRANCH  11  14
ENDBRANCH   9  10
ENDBRANCH   6   9
ENDBRANCH   4   5
BRANCH   4  26
ATOM     26  N   UNK     1       7.845  -3.737  24.221  0.00  0.00    -0.303 N 
ATOM     27  H   UNK     1       7.009  -3.313  24.596  0.00  0.00    +0.149 HD
ATOM     28  C   UNK     1       8.591  -4.567  25.047  0.00  0.00    +0.214 C 
ATOM     29  O   UNK     1       9.413  -5.360  24.603  0.00  0.00    -0.276 OA
BRANCH  28  30
ATOM     30  C   UNK     1       8.332  -4.341  26.525  0.00  0.00    +0.098 C 
BRANCH  30  31
ATOM     31  C   UNK     1       7.362  -5.393  27.087  0.00  0.00    +0.039 C 
BRANCH  31  32
ATOM     32  C   UNK     1       5.990  -5.400  26.388  0.00  0.00    +0.161 C 
BRANCH  32  33
ATOM     33  N   UNK     1       5.384  -6.765  26.422  0.00  0.00    -0.318 NA
ATOM     34  H   UNK     1       5.884  -7.299  27.142  0.00  0.00    +0.119 HD
ATOM     35  H   UNK     1       4.442  -6.676  26.817  0.00  0.00    +0.119 HD
ENDBRANCH  32  33
BRANCH  32  36
ATOM     36  C   UNK     1       5.039  -4.439  27.121  0.00  0.00    +0.322 C 
ATOM     37  O   UNK     1       4.975  -4.288  28.333  0.00  0.00    -0.249 OA
BRANCH  36  38
ATOM     38  O   UNK     1       4.245  -3.768  26.244  0.00  0.00    -0.480 OA
ATOM     39  H   UNK     1       4.301  -4.258  25.389  0.00  0.00    +0.295 HD
ENDBRANCH  36  38
ENDBRANCH  32  36
ENDBRANCH  31  32
ENDBRANCH  30  31
ENDBRANCH  28  30
ENDBRANCH   4  26
ENDBRANCH   3   4
ENDBRANCH   2   3
ENDBRANCH   1   2
BRANCH   1  40
ATOM     40  C   UNK     1       9.923   0.811  23.605  0.00  0.00    +0.112 C 
BRANCH  40  41
ATOM     41  C   UNK     1       9.025   1.883  24.244  0.00  0.00    +0.169 C 
BRANCH  41  42
ATOM     42  N   UNK     1       8.142   2.580  23.320  0.00  0.00    -0.303 N 
ATOM     43  H   UNK     1       7.282   2.119  23.053  0.00  0.00    +0.149 HD
ATOM     44  C   UNK     1       8.271   3.927  23.079  0.00  0.00    +0.214 C 
ATOM     45  O   UNK     1       9.199   4.610  23.495  0.00  0.00    -0.276 OA
BRANCH  44  46
ATOM     46  C   UNK     1       7.176   4.506  22.224  0.00  0.00    +0.098 C 
BRANCH  46  47
ATOM     47  C   UNK     1       5.856   4.562  22.997  0.00  0.00    +0.039 C 
BRANCH  47  48
ATOM     48  C   UNK     1       4.814   3.565  22.479  0.00  0.00    +0.161 C 
BRANCH  48  49
ATOM     49  N   UNK     1       3.682   4.268  21.810  0.00  0.00    -0.318 NA
ATOM     50  H   UNK     1       2.854   3.665  21.890  0.00  0.00    +0.119 HD
ATOM     51  H   UNK     1       3.442   5.091  22.372  0.00  0.00    +0.119 HD
ENDBRANCH  48  49
BRANCH  48  52
ATOM     52  C   UNK     1       4.256   2.745  23.656  0.00  0.00    +0.322 C 
ATOM     53  O   UNK     1       3.120   2.807  24.085  0.00  0.00    -0.249 OA
BRANCH  52  54
ATOM     54  O   UNK     1       5.188   1.866  24.117  0.00  0.00    -0.480 OA
ATOM     55  H   UNK     1       5.398   2.148  25.043  0.00  0.00    +0.295 HD
ENDBRANCH  52  54
ENDBRANCH  48  52
ENDBRANCH  47  48
ENDBRANCH  46  47
ENDBRANCH  44  46
ENDBRANCH  41  42
BRANCH  41  58
ATOM     56  N   UNK     1       8.688   0.269  26.109  0.00  0.00    -0.305 N 
ATOM     57  H   UNK     1       9.004  -0.421  25.433  0.00  0.00    +0.149 HD
ATOM     58  C   UNK     1       8.324   1.482  25.564  0.00  0.00    +0.235 C 
ATOM     59  O   UNK     1       7.521   2.234  26.118  0.00  0.00    -0.274 OA
BRANCH  56  60
ATOM     60  C   UNK     1       7.955  -0.345  27.214  0.00  0.00    +0.200 C 
BRANCH  60  63
ATOM     61  N   UNK     1       5.558  -0.100  27.404  0.00  0.00    -0.314 N 
ATOM     62  H   UNK     1       5.795   0.543  28.154  0.00  0.00    +0.149 HD
ATOM     63  C   UNK     1       6.570  -0.804  26.800  0.00  0.00    +0.230 C 
ATOM     64  O   UNK     1       6.371  -1.658  25.940  0.00  0.00    -0.274 OA
BRANCH  61  65
ATOM     65  C   UNK     1       4.192  -0.409  27.167  0.00  0.00    +0.105 C 
BRANCH  65  66
ATOM     66  C   UNK     1       3.428   0.879  27.074  0.00  0.00    +0.034 C 
BRANCH  66  67
ATOM     67  C   UNK     1       4.148   1.892  27.934  0.00  0.00    +0.082 C 
BRANCH  67  68
ATOM     68  N   UNK     1       4.930   2.808  27.158  0.00  0.00    -0.316 NA
ATOM     69  H   UNK     1       4.703   2.731  26.170  0.00  0.00    +0.122 HD
BRANCH  68  70
ATOM     70  C   UNK     1       5.019   4.153  27.715  0.00  0.00    +0.081 C 
BRANCH  70  71
ATOM     71  C   UNK     1       5.008   5.340  26.719  0.00  0.00    +0.016 C 
BRANCH  71  72
ATOM     72  C   UNK     1       6.163   6.339  26.846  0.00  0.00    +0.016 C 
BRANCH  72  73
ATOM     73  C   UNK     1       7.351   6.315  25.897  0.00  0.00    +0.077 C 
BRANCH  73  74
ATOM     74  N   UNK     1       8.258   5.266  26.391  0.00  0.00    -0.330 NA
ATOM     75  H   UNK     1       8.612   4.706  25.613  0.00  0.00    +0.118 HD
ATOM     76  H   UNK     1       9.074   5.673  26.842  0.00  0.00    +0.118 HD
ENDBRANCH  73  74
ENDBRANCH  72  73
ENDBRANCH  71  72
ENDBRANCH  70  71
ENDBRANCH  68  70
ENDBRANCH  67  68
ENDBRANCH  66  67
ENDBRANCH  65  66
ENDBRANCH  61  65
ENDBRANCH  60  63
ENDBRANCH  56  60
ENDBRANCH  41  58
ENDBRANCH  40  41
ENDBRANCH   1  40
TORSDOF 43
ENDMDL
MODEL 4
REMARK VINA RESULT:      -4.2      3.011      8.451
REMARK  Name = 
REMARK  43 active torsions:
REMARK  status: ('A' for Active; 'I' for Inactive)
REMARK    1  A    between atoms: N_1  and  C_2
REMARK    2  A    between atoms: C_2  and  C_3
REMARK    3  A    between atoms: C_3  and  C_4
REMARK    4  A    between atoms: C_4  and  C_5
REMARK    5  A    between atoms: C_5  and  N_6
REMARK    6  A    between atoms: N_6  and  C_7
REMARK    7  A    between atoms: C_7  and  C_8
REMARK    8  A    between atoms: C_8  and  C_9
REMARK    9  A    between atoms: C_9  and  N_10
REMARK   10  A    between atoms: C_11  and  C_13
REMARK   11  A    between atoms: C_13  and  N_14
REMARK   12  A    between atoms: C_15  and  C_17
REMARK   13  A    between atoms: C_17  and  C_19
REMARK   14  A    between atoms: C_17  and  N_52
REMARK   15  A    between atoms: C_19  and  S_20
REMARK   16  A    between atoms: S_20  and  S_21
REMARK   17  A    between atoms: S_21  and  C_22
REMARK   18  A    between atoms: C_22  and  C_23
REMARK   19  A    between atoms: C_23  and  N_25
REMARK   20  A    between atoms: C_23  and  C_36
REMARK   21  A    between atoms: C_26  and  C_28
REMARK   22  A    between atoms: C_28  and  C_29
REMARK   23  A    between atoms: C_29  and  C_30
REMARK   24  A    between atoms: C_30  and  N_32
REMARK   25  A    between atoms: C_30  and  C_33
REMARK   26  A    between atoms: C_33  and  O_34
REMARK   27  A    between atoms: N_38  and  C_39
REMARK   28  A    between atoms: C_39  and  C_40
REMARK   29  A    between atoms: N_42  and  C_43
REMARK   30  A    between atoms: C_43  and  C_44
REMARK   31  A    between atoms: C_44  and  C_45
REMARK   32  A    between atoms: C_45  and  N_46
REMARK   33  A    between atoms: N_46  and  C_47
REMARK   34  A    between atoms: C_47  and  C_48
REMARK   35  A    between atoms: C_48  and  C_49
REMARK   36  A    between atoms: C_49  and  C_50
REMARK   37  A    between atoms: C_50  and  N_51
REMARK   38  A    between atoms: C_53  and  C_55
REMARK   39  A    between atoms: C_55  and  C_56
REMARK   40  A    between atoms: C_56  and  C_57
REMARK   41  A    between atoms: C_57  and  N_59
REMARK   42  A    between atoms: C_57  and  C_60
REMARK   43  A    between atoms: C_60  and  O_61
REMARK                            x       y       z     vdW  Elec       q    Type
REMARK                         _______ _______ _______ _____ _____    ______ ____
ROOT
ATOM      1  S   UNK     1       2.954   5.284  24.860  0.00  0.00    -0.091 S 
ENDROOT
BRANCH   1   2
ATOM      2  S   UNK     1       4.788   6.186  24.736  0.00  0.00    -0.091 S 
BRANCH   2   3
ATOM      3  C   UNK     1       5.705   5.573  26.204  0.00  0.00    +0.112 C 
BRANCH   3   4
ATOM      4  C   UNK     1       6.895   4.638  25.973  0.00  0.00    +0.169 C 
BRANCH   4   5
ATOM      5  C   UNK     1       7.085   3.819  27.265  0.00  0.00    +0.235 C 
ATOM      6  N   UNK     1       6.997   2.443  27.145  0.00  0.00    -0.305 N 
ATOM      7  H   UNK     1       6.934   2.006  26.226  0.00  0.00    +0.149 HD
ATOM      8  O   UNK     1       7.210   4.355  28.348  0.00  0.00    -0.274 OA
BRANCH   6   9
ATOM      9  C   UNK     1       7.002   1.564  28.325  0.00  0.00    +0.200 C 
BRANCH   9  10
ATOM     10  C   UNK     1       6.417   0.169  28.067  0.00  0.00    +0.230 C 
ATOM     11  N   UNK     1       7.130  -0.590  27.155  0.00  0.00    -0.314 N 
ATOM     12  H   UNK     1       7.913  -0.153  26.686  0.00  0.00    +0.149 HD
ATOM     13  O   UNK     1       5.367  -0.219  28.618  0.00  0.00    -0.274 OA
BRANCH  11  14
ATOM     14  C   UNK     1       6.822  -1.971  26.754  0.00  0.00    +0.105 C 
BRANCH  14  15
ATOM     15  C   UNK     1       8.008  -2.937  26.582  0.00  0.00    +0.034 C 
BRANCH  15  16
ATOM     16  C   UNK     1       7.645  -4.414  26.329  0.00  0.00    +0.082 C 
BRANCH  16  17
ATOM     17  N   UNK     1       6.959  -5.041  27.420  0.00  0.00    -0.316 NA
ATOM     18  H   UNK     1       6.457  -4.275  27.860  0.00  0.00    +0.122 HD
BRANCH  17  19
ATOM     19  C   UNK     1       5.962  -5.990  26.871  0.00  0.00    +0.081 C 
BRANCH  19  20
ATOM     20  C   UNK     1       5.493  -5.354  25.581  0.00  0.00    +0.016 C 
BRANCH  20  21
ATOM     21  C   UNK     1       4.795  -6.391  24.692  0.00  0.00    +0.016 C 
BRANCH  21  22
ATOM     22  C   UNK     1       4.777  -5.922  23.255  0.00  0.00    +0.077 C 
BRANCH  22  23
ATOM     23  N   UNK     1       3.667  -4.996  23.083  0.00  0.00    -0.330 NA
ATOM     24  H   UNK     1       4.003  -4.047  23.235  0.00  0.00    +0.118 HD
ATOM     25  H   UNK     1       3.344  -5.031  22.117  0.00  0.00    +0.118 HD
ENDBRANCH  22  23
ENDBRANCH  21  22
ENDBRANCH  20  21
ENDBRANCH  19  20
ENDBRANCH  17  19
ENDBRANCH  16  17
ENDBRANCH  15  16
ENDBRANCH  14  15
ENDBRANCH  11  14
ENDBRANCH   9  10
ENDBRANCH   6   9
ENDBRANCH   4   5
BRANCH   4  26
ATOM     26  N   UNK     1       8.152   5.374  25.744  0.00  0.00    -0.303 N 
ATOM     27  H   UNK     1       8.765   5.449  26.544  0.00  0.00    +0.149 HD
ATOM     28  C   UNK     1       8.695   5.547  24.479  0.00  0.00    +0.214 C 
ATOM     29  O   UNK     1       8.120   5.166  23.465  0.00  0.00    -0.276 OA
BRANCH  28  30
ATOM     30  C   UNK     1      10.012   6.301  24.483  0.00  0.00    +0.098 C 
BRANCH  30  31
ATOM     31  C   UNK     1      10.909   5.858  23.316  0.00  0.00    +0.039 C 
BRANCH  31  32
ATOM     32  C   UNK     1      12.359   6.364  23.428  0.00  0.00    +0.161 C 
BRANCH  32  33
ATOM     33  N   UNK     1      12.831   6.317  24.844  0.00  0.00    -0.318 NA
ATOM     34  H   UNK     1      13.755   6.763  24.870  0.00  0.00    +0.119 HD
ATOM     35  H   UNK     1      12.250   6.965  25.386  0.00  0.00    +0.119 HD
ENDBRANCH  32  33
BRANCH  32  36
ATOM     36  C   UNK     1      13.281   5.462  22.589  0.00  0.00    +0.322 C 
ATOM     37  O   UNK     1      13.127   5.191  21.407  0.00  0.00    -0.249 OA
BRANCH  36  38
ATOM     38  O   UNK     1      14.306   4.974  23.338  0.00  0.00    -0.480 OA
ATOM     39  H   UNK     1      13.896   4.566  24.138  0.00  0.00    +0.295 HD
ENDBRANCH  36  38
ENDBRANCH  32  36
ENDBRANCH  31  32
ENDBRANCH  30  31
ENDBRANCH  28  30
ENDBRANCH   4  26
ENDBRANCH   3   4
ENDBRANCH   2   3
ENDBRANCH   1   2
BRANCH   1  40
ATOM     40  C   UNK     1       3.270   3.611  24.183  0.00  0.00    +0.112 C 
BRANCH  40  41
ATOM     41  C   UNK     1       4.005   2.654  25.134  0.00  0.00    +0.169 C 
BRANCH  41  42
ATOM     42  N   UNK     1       3.156   1.961  26.092  0.00  0.00    -0.303 N 
ATOM     43  H   UNK     1       2.718   1.098  25.795  0.00  0.00    +0.149 HD
ATOM     44  C   UNK     1       3.200   2.250  27.435  0.00  0.00    +0.214 C 
ATOM     45  O   UNK     1       3.832   3.184  27.912  0.00  0.00    -0.276 OA
BRANCH  44  46
ATOM     46  C   UNK     1       2.372   1.328  28.290  0.00  0.00    +0.098 C 
BRANCH  46  47
ATOM     47  C   UNK     1       1.688   0.261  27.432  0.00  0.00    +0.039 C 
BRANCH  47  48
ATOM     48  C   UNK     1       1.904  -1.162  27.957  0.00  0.00    +0.161 C 
BRANCH  48  49
ATOM     49  N   UNK     1       2.615  -1.151  29.266  0.00  0.00    -0.318 NA
ATOM     50  H   UNK     1       3.418  -1.788  29.188  0.00  0.00    +0.119 HD
ATOM     51  H   UNK     1       3.045  -0.228  29.386  0.00  0.00    +0.119 HD
ENDBRANCH  48  49
BRANCH  48  52
ATOM     52  C   UNK     1       2.746  -1.961  26.946  0.00  0.00    +0.322 C 
ATOM     53  O   UNK     1       2.657  -3.157  26.742  0.00  0.00    -0.249 OA
BRANCH  52  54
ATOM     54  O   UNK     1       3.565  -1.136  26.238  0.00  0.00    -0.480 OA
ATOM     55  H   UNK     1       4.440  -1.153  26.702  0.00  0.00    +0.295 HD
ENDBRANCH  52  54
ENDBRANCH  48  52
ENDBRANCH  47  48
ENDBRANCH  46  47
ENDBRANCH  44  46
ENDBRANCH  41  42
BRANCH  41  58
ATOM     56  N   UNK     1       5.771   2.255  23.425  0.00  0.00    -0.305 N 
ATOM     57  H   UNK     1       5.274   2.966  22.895  0.00  0.00    +0.149 HD
ATOM     58  C   UNK     1       5.062   1.729  24.484  0.00  0.00    +0.235 C 
ATOM     59  O   UNK     1       5.287   0.601  24.926  0.00  0.00    -0.274 OA
BRANCH  56  60
ATOM     60  C   UNK     1       6.627   1.436  22.571  0.00  0.00    +0.200 C 
BRANCH  60  63
ATOM     61  N   UNK     1       8.638   1.814  23.858  0.00  0.00    -0.314 N 
ATOM     62  H   UNK     1       8.035   1.615  24.651  0.00  0.00    +0.149 HD
ATOM     63  C   UNK     1       8.075   1.887  22.608  0.00  0.00    +0.230 C 
ATOM     64  O   UNK     1       8.711   2.199  21.605  0.00  0.00    -0.274 OA
BRANCH  61  65
ATOM     65  C   UNK     1       9.976   2.227  24.097  0.00  0.00    +0.105 C 
BRANCH  65  66
ATOM     66  C   UNK     1      10.834   1.000  24.206  0.00  0.00    +0.034 C 
BRANCH  66  67
ATOM     67  C   UNK     1       9.999  -0.074  24.865  0.00  0.00    +0.082 C 
BRANCH  67  68
ATOM     68  N   UNK     1      10.119  -1.339  24.205  0.00  0.00    -0.316 NA
ATOM     69  H   UNK     1       9.607  -2.060  24.706  0.00  0.00    +0.122 HD
BRANCH  68  70
ATOM     70  C   UNK     1       9.944  -1.288  22.757  0.00  0.00    +0.081 C 
BRANCH  70  71
ATOM     71  C   UNK     1       8.651  -1.910  22.172  0.00  0.00    +0.016 C 
BRANCH  71  72
ATOM     72  C   UNK     1       7.442  -1.963  23.110  0.00  0.00    +0.016 C 
BRANCH  72  73
ATOM     73  C   UNK     1       6.079  -2.440  22.636  0.00  0.00    +0.077 C 
BRANCH  73  74
ATOM     74  N   UNK     1       5.145  -2.213  23.752  0.00  0.00    -0.330 NA
ATOM     75  H   UNK     1       5.584  -1.636  24.471  0.00  0.00    +0.118 HD
ATOM     76  H   UNK     1       4.322  -1.703  23.440  0.00  0.00    +0.118 HD
ENDBRANCH  73  74
ENDBRANCH  72  73
ENDBRANCH  71  72
ENDBRANCH  70  71
ENDBRANCH  68  70
ENDBRANCH  67  68
ENDBRANCH  66  67
ENDBRANCH  65  66
ENDBRANCH  61  65
ENDBRANCH  60  63
ENDBRANCH  56  60
ENDBRANCH  41  58
ENDBRANCH  40  41
ENDBRANCH   1  40
TORSDOF 43
ENDMDL
MODEL 5
REMARK VINA RESULT:      -4.1      2.309      9.329
REMARK  Name = 
REMARK  43 active torsions:
REMARK  status: ('A' for Active; 'I' for Inactive)
REMARK    1  A    between atoms: N_1  and  C_2
REMARK    2  A    between atoms: C_2  and  C_3
REMARK    3  A    between atoms: C_3  and  C_4
REMARK    4  A    between atoms: C_4  and  C_5
REMARK    5  A    between atoms: C_5  and  N_6
REMARK    6  A    between atoms: N_6  and  C_7
REMARK    7  A    between atoms: C_7  and  C_8
REMARK    8  A    between atoms: C_8  and  C_9
REMARK    9  A    between atoms: C_9  and  N_10
REMARK   10  A    between atoms: C_11  and  C_13
REMARK   11  A    between atoms: C_13  and  N_14
REMARK   12  A    between atoms: C_15  and  C_17
REMARK   13  A    between atoms: C_17  and  C_19
REMARK   14  A    between atoms: C_17  and  N_52
REMARK   15  A    between atoms: C_19  and  S_20
REMARK   16  A    between atoms: S_20  and  S_21
REMARK   17  A    between atoms: S_21  and  C_22
REMARK   18  A    between atoms: C_22  and  C_23
REMARK   19  A    between atoms: C_23  and  N_25
REMARK   20  A    between atoms: C_23  and  C_36
REMARK   21  A    between atoms: C_26  and  C_28
REMARK   22  A    between atoms: C_28  and  C_29
REMARK   23  A    between atoms: C_29  and  C_30
REMARK   24  A    between atoms: C_30  and  N_32
REMARK   25  A    between atoms: C_30  and  C_33
REMARK   26  A    between atoms: C_33  and  O_34
REMARK   27  A    between atoms: N_38  and  C_39
REMARK   28  A    between atoms: C_39  and  C_40
REMARK   29  A    between atoms: N_42  and  C_43
REMARK   30  A    between atoms: C_43  and  C_44
REMARK   31  A    between atoms: C_44  and  C_45
REMARK   32  A    between atoms: C_45  and  N_46
REMARK   33  A    between atoms: N_46  and  C_47
REMARK   34  A    between atoms: C_47  and  C_48
REMARK   35  A    between atoms: C_48  and  C_49
REMARK   36  A    between atoms: C_49  and  C_50
REMARK   37  A    between atoms: C_50  and  N_51
REMARK   38  A    between atoms: C_53  and  C_55
REMARK   39  A    between atoms: C_55  and  C_56
REMARK   40  A    between atoms: C_56  and  C_57
REMARK   41  A    between atoms: C_57  and  N_59
REMARK   42  A    between atoms: C_57  and  C_60
REMARK   43  A    between atoms: C_60  and  O_61
REMARK                            x       y       z     vdW  Elec       q    Type
REMARK                         _______ _______ _______ _____ _____    ______ ____
ROOT
ATOM      1  S   UNK     1       9.091  -5.215  25.210  0.00  0.00    -0.091 S 
ENDROOT
BRANCH   1   2
ATOM      2  S   UNK     1       9.260  -3.392  24.293  0.00  0.00    -0.091 S 
BRANCH   2   3
ATOM      3  C   UNK     1       8.956  -2.171  25.631  0.00  0.00    +0.112 C 
BRANCH   3   4
ATOM      4  C   UNK     1       9.150  -0.687  25.311  0.00  0.00    +0.169 C 
BRANCH   4   5
ATOM      5  C   UNK     1       7.939   0.065  25.900  0.00  0.00    +0.235 C 
ATOM      6  N   UNK     1       8.062   0.515  27.203  0.00  0.00    -0.305 N 
ATOM      7  H   UNK     1       8.956   0.453  27.690  0.00  0.00    +0.149 HD
ATOM      8  O   UNK     1       6.896   0.174  25.287  0.00  0.00    -0.274 OA
BRANCH   6   9
ATOM      9  C   UNK     1       6.925   1.103  27.926  0.00  0.00    +0.200 C 
BRANCH   9  10
ATOM     10  C   UNK     1       7.097   2.591  28.258  0.00  0.00    +0.230 C 
ATOM     11  N   UNK     1       6.804   3.448  27.212  0.00  0.00    -0.314 N 
ATOM     12  H   UNK     1       6.579   3.038  26.314  0.00  0.00    +0.149 HD
ATOM     13  O   UNK     1       7.501   2.977  29.374  0.00  0.00    -0.274 OA
BRANCH  11  14
ATOM     14  C   UNK     1       6.842   4.917  27.263  0.00  0.00    +0.105 C 
BRANCH  14  15
ATOM     15  C   UNK     1       7.914   5.626  26.415  0.00  0.00    +0.034 C 
BRANCH  15  16
ATOM     16  C   UNK     1       7.401   6.378  25.170  0.00  0.00    +0.082 C 
BRANCH  16  17
ATOM     17  N   UNK     1       8.412   6.636  24.188  0.00  0.00    -0.316 NA
ATOM     18  H   UNK     1       8.323   7.631  24.006  0.00  0.00    +0.122 HD
BRANCH  17  19
ATOM     19  C   UNK     1       9.740   6.397  24.800  0.00  0.00    +0.081 C 
BRANCH  19  20
ATOM     20  C   UNK     1      10.660   6.121  23.632  0.00  0.00    +0.016 C 
BRANCH  20  21
ATOM     21  C   UNK     1      12.107   5.950  24.114  0.00  0.00    +0.016 C 
BRANCH  21  22
ATOM     22  C   UNK     1      12.771   4.808  23.381  0.00  0.00    +0.077 C 
BRANCH  22  23
ATOM     23  N   UNK     1      14.133   5.198  23.049  0.00  0.00    -0.330 NA
ATOM     24  H   UNK     1      14.548   5.665  23.854  0.00  0.00    +0.118 HD
ATOM     25  H   UNK     1      14.695   4.363  22.887  0.00  0.00    +0.118 HD
ENDBRANCH  22  23
ENDBRANCH  21  22
ENDBRANCH  20  21
ENDBRANCH  19  20
ENDBRANCH  17  19
ENDBRANCH  16  17
ENDBRANCH  15  16
ENDBRANCH  14  15
ENDBRANCH  11  14
ENDBRANCH   9  10
ENDBRANCH   6   9
ENDBRANCH   4   5
BRANCH   4  26
ATOM     26  N   UNK     1       9.156  -0.420  23.861  0.00  0.00    -0.303 N 
ATOM     27  H   UNK     1       8.388  -0.821  23.341  0.00  0.00    +0.149 HD
ATOM     28  C   UNK     1       9.843   0.648  23.303  0.00  0.00    +0.214 C 
ATOM     29  O   UNK     1      10.554   1.388  23.973  0.00  0.00    -0.276 OA
BRANCH  28  30
ATOM     30  C   UNK     1       9.678   0.754  21.798  0.00  0.00    +0.098 C 
BRANCH  30  31
ATOM     31  C   UNK     1       8.627   1.813  21.427  0.00  0.00    +0.039 C 
BRANCH  31  32
ATOM     32  C   UNK     1       7.953   2.464  22.649  0.00  0.00    +0.161 C 
BRANCH  32  33
ATOM     33  N   UNK     1       8.021   3.954  22.561  0.00  0.00    -0.318 NA
ATOM     34  H   UNK     1       8.858   4.186  22.015  0.00  0.00    +0.119 HD
ATOM     35  H   UNK     1       7.258   4.264  21.951  0.00  0.00    +0.119 HD
ENDBRANCH  32  33
BRANCH  32  36
ATOM     36  C   UNK     1       6.470   2.057  22.692  0.00  0.00    +0.322 C 
ATOM     37  O   UNK     1       5.526   2.824  22.812  0.00  0.00    -0.249 OA
BRANCH  36  38
ATOM     38  O   UNK     1       6.328   0.708  22.594  0.00  0.00    -0.480 OA
ATOM     39  H   UNK     1       7.225   0.323  22.735  0.00  0.00    +0.295 HD
ENDBRANCH  36  38
ENDBRANCH  32  36
ENDBRANCH  31  32
ENDBRANCH  30  31
ENDBRANCH  28  30
ENDBRANCH   4  26
ENDBRANCH   3   4
ENDBRANCH   2   3
ENDBRANCH   1   2
BRANCH   1  40
ATOM     40  C   UNK     1       8.270  -4.804  26.795  0.00  0.00    +0.112 C 
BRANCH  40  41
ATOM     41  C   UNK     1       6.738  -4.939  26.787  0.00  0.00    +0.169 C 
BRANCH  41  42
ATOM     42  N   UNK     1       6.142  -5.125  25.472  0.00  0.00    -0.303 N 
ATOM     43  H   UNK     1       5.965  -6.074  25.166  0.00  0.00    +0.149 HD
ATOM     44  C   UNK     1       5.527  -4.092  24.807  0.00  0.00    +0.214 C 
ATOM     45  O   UNK     1       5.550  -2.927  25.184  0.00  0.00    -0.276 OA
BRANCH  44  46
ATOM     46  C   UNK     1       4.830  -4.506  23.538  0.00  0.00    +0.098 C 
BRANCH  46  47
ATOM     47  C   UNK     1       4.721  -6.030  23.451  0.00  0.00    +0.039 C 
BRANCH  47  48
ATOM     48  C   UNK     1       3.274  -6.532  23.495  0.00  0.00    +0.161 C 
BRANCH  48  49
ATOM     49  N   UNK     1       2.327  -5.490  23.008  0.00  0.00    -0.318 NA
ATOM     50  H   UNK     1       2.070  -5.733  22.043  0.00  0.00    +0.119 HD
ATOM     51  H   UNK     1       1.449  -5.591  23.528  0.00  0.00    +0.119 HD
ENDBRANCH  48  49
BRANCH  48  52
ATOM     52  C   UNK     1       2.900  -6.900  24.942  0.00  0.00    +0.322 C 
ATOM     53  O   UNK     1       2.264  -6.199  25.707  0.00  0.00    -0.249 OA
BRANCH  52  54
ATOM     54  O   UNK     1       3.308  -8.163  25.241  0.00  0.00    -0.480 OA
ATOM     55  H   UNK     1       4.225  -8.250  24.876  0.00  0.00    +0.295 HD
ENDBRANCH  52  54
ENDBRANCH  48  52
ENDBRANCH  47  48
ENDBRANCH  46  47
ENDBRANCH  44  46
ENDBRANCH  41  42
BRANCH  41  58
ATOM     56  N   UNK     1       4.765  -6.046  27.824  0.00  0.00    -0.305 N 
ATOM     57  H   UNK     1       4.249  -5.263  27.433  0.00  0.00    +0.149 HD
ATOM     58  C   UNK     1       6.132  -5.871  27.863  0.00  0.00    +0.235 C 
ATOM     59  O   UNK     1       6.845  -6.460  28.678  0.00  0.00    -0.274 OA
BRANCH  56  60
ATOM     60  C   UNK     1       4.028  -6.702  28.902  0.00  0.00    +0.200 C 
BRANCH  60  63
ATOM     61  N   UNK     1       2.440  -4.946  28.416  0.00  0.00    -0.314 N 
ATOM     62  H   UNK     1       3.248  -4.478  28.017  0.00  0.00    +0.149 HD
ATOM     63  C   UNK     1       2.629  -6.141  29.065  0.00  0.00    +0.230 C 
ATOM     64  O   UNK     1       1.725  -6.739  29.644  0.00  0.00    -0.274 OA
BRANCH  61  65
ATOM     65  C   UNK     1       1.203  -4.251  28.482  0.00  0.00    +0.105 C 
BRANCH  65  66
ATOM     66  C   UNK     1       1.318  -3.006  27.650  0.00  0.00    +0.034 C 
BRANCH  66  67
ATOM     67  C   UNK     1       2.790  -2.705  27.494  0.00  0.00    +0.082 C 
BRANCH  67  68
ATOM     68  N   UNK     1       3.031  -1.609  26.605  0.00  0.00    -0.316 NA
ATOM     69  H   UNK     1       2.172  -1.321  26.144  0.00  0.00    +0.122 HD
BRANCH  68  70
ATOM     70  C   UNK     1       3.873  -0.552  27.156  0.00  0.00    +0.081 C 
BRANCH  70  71
ATOM     71  C   UNK     1       3.334   0.899  27.089  0.00  0.00    +0.016 C 
BRANCH  71  72
ATOM     72  C   UNK     1       3.851   1.758  25.931  0.00  0.00    +0.016 C 
BRANCH  72  73
ATOM     73  C   UNK     1       3.114   3.003  25.465  0.00  0.00    +0.077 C 
BRANCH  73  74
ATOM     74  N   UNK     1       4.135   4.048  25.279  0.00  0.00    -0.330 NA
ATOM     75  H   UNK     1       4.683   3.864  24.437  0.00  0.00    +0.118 HD
ATOM     76  H   UNK     1       3.704   4.959  25.145  0.00  0.00    +0.118 HD
ENDBRANCH  73  74
ENDBRANCH  72  73
ENDBRANCH  71  72
ENDBRANCH  70  71
ENDBRANCH  68  70
ENDBRANCH  67  68
ENDBRANCH  66  67
ENDBRANCH  65  66
ENDBRANCH  61  65
ENDBRANCH  60  63
ENDBRANCH  56  60
ENDBRANCH  41  58
ENDBRANCH  40  41
ENDBRANCH   1  40
TORSDOF 43
ENDMDL
MODEL 6
REMARK VINA RESULT:      -4.0      2.349      5.602
REMARK  Name = 
REMARK  43 active torsions:
REMARK  status: ('A' for Active; 'I' for Inactive)
REMARK    1  A    between atoms: N_1  and  C_2
REMARK    2  A    between atoms: C_2  and  C_3
REMARK    3  A    between atoms: C_3  and  C_4
REMARK    4  A    between atoms: C_4  and  C_5
REMARK    5  A    between atoms: C_5  and  N_6
REMARK    6  A    between atoms: N_6  and  C_7
REMARK    7  A    between atoms: C_7  and  C_8
REMARK    8  A    between atoms: C_8  and  C_9
REMARK    9  A    between atoms: C_9  and  N_10
REMARK   10  A    between atoms: C_11  and  C_13
REMARK   11  A    between atoms: C_13  and  N_14
REMARK   12  A    between atoms: C_15  and  C_17
REMARK   13  A    between atoms: C_17  and  C_19
REMARK   14  A    between atoms: C_17  and  N_52
REMARK   15  A    between atoms: C_19  and  S_20
REMARK   16  A    between atoms: S_20  and  S_21
REMARK   17  A    between atoms: S_21  and  C_22
REMARK   18  A    between atoms: C_22  and  C_23
REMARK   19  A    between atoms: C_23  and  N_25
REMARK   20  A    between atoms: C_23  and  C_36
REMARK   21  A    between atoms: C_26  and  C_28
REMARK   22  A    between atoms: C_28  and  C_29
REMARK   23  A    between atoms: C_29  and  C_30
REMARK   24  A    between atoms: C_30  and  N_32
REMARK   25  A    between atoms: C_30  and  C_33
REMARK   26  A    between atoms: C_33  and  O_34
REMARK   27  A    between atoms: N_38  and  C_39
REMARK   28  A    between atoms: C_39  and  C_40
REMARK   29  A    between atoms: N_42  and  C_43
REMARK   30  A    between atoms: C_43  and  C_44
REMARK   31  A    between atoms: C_44  and  C_45
REMARK   32  A    between atoms: C_45  and  N_46
REMARK   33  A    between atoms: N_46  and  C_47
REMARK   34  A    between atoms: C_47  and  C_48
REMARK   35  A    between atoms: C_48  and  C_49
REMARK   36  A    between atoms: C_49  and  C_50
REMARK   37  A    between atoms: C_50  and  N_51
REMARK   38  A    between atoms: C_53  and  C_55
REMARK   39  A    between atoms: C_55  and  C_56
REMARK   40  A    between atoms: C_56  and  C_57
REMARK   41  A    between atoms: C_57  and  N_59
REMARK   42  A    between atoms: C_57  and  C_60
REMARK   43  A    between atoms: C_60  and  O_61
REMARK                            x       y       z     vdW  Elec       q    Type
REMARK                         _______ _______ _______ _____ _____    ______ ____
ROOT
ATOM      1  S   UNK     1       8.860  -3.025  25.077  0.00  0.00    -0.091 S 
ENDROOT
BRANCH   1   2
ATOM      2  S   UNK     1       8.219  -4.440  26.410  0.00  0.00    -0.091 S 
BRANCH   2   3
ATOM      3  C   UNK     1       6.399  -4.205  26.495  0.00  0.00    +0.112 C 
BRANCH   3   4
ATOM      4  C   UNK     1       5.718  -4.331  27.860  0.00  0.00    +0.169 C 
BRANCH   4   5
ATOM      5  C   UNK     1       5.106  -5.745  27.932  0.00  0.00    +0.235 C 
ATOM      6  N   UNK     1       3.732  -5.819  28.076  0.00  0.00    -0.305 N 
ATOM      7  H   UNK     1       3.158  -4.978  28.012  0.00  0.00    +0.149 HD
ATOM      8  O   UNK     1       5.801  -6.740  27.956  0.00  0.00    -0.274 OA
BRANCH   6   9
ATOM      9  C   UNK     1       3.049  -7.099  28.314  0.00  0.00    +0.200 C 
BRANCH   9  10
ATOM     10  C   UNK     1       1.762  -7.282  27.499  0.00  0.00    +0.230 C 
ATOM     11  N   UNK     1       1.824  -8.287  26.550  0.00  0.00    -0.314 N 
ATOM     12  H   UNK     1       2.710  -8.758  26.417  0.00  0.00    +0.149 HD
ATOM     13  O   UNK     1       0.763  -6.554  27.670  0.00  0.00    -0.274 OA
BRANCH  11  14
ATOM     14  C   UNK     1       0.727  -8.705  25.663  0.00  0.00    +0.105 C 
BRANCH  14  15
ATOM     15  C   UNK     1       0.443  -7.828  24.430  0.00  0.00    +0.034 C 
BRANCH  15  16
ATOM     16  C   UNK     1       1.476  -7.914  23.288  0.00  0.00    +0.082 C 
BRANCH  16  17
ATOM     17  N   UNK     1       2.836  -7.980  23.736  0.00  0.00    -0.316 NA
ATOM     18  H   UNK     1       3.303  -8.513  23.008  0.00  0.00    +0.122 HD
BRANCH  17  19
ATOM     19  C   UNK     1       3.401  -6.611  23.739  0.00  0.00    +0.081 C 
BRANCH  19  20
ATOM     20  C   UNK     1       4.782  -6.764  24.335  0.00  0.00    +0.016 C 
BRANCH  20  21
ATOM     21  C   UNK     1       5.818  -6.002  23.499  0.00  0.00    +0.016 C 
BRANCH  21  22
ATOM     22  C   UNK     1       5.215  -5.574  22.181  0.00  0.00    +0.077 C 
BRANCH  22  23
ATOM     23  N   UNK     1       4.950  -4.144  22.233  0.00  0.00    -0.330 NA
ATOM     24  H   UNK     1       5.539  -3.675  21.547  0.00  0.00    +0.118 HD
ATOM     25  H   UNK     1       3.988  -3.968  21.947  0.00  0.00    +0.118 HD
ENDBRANCH  22  23
ENDBRANCH  21  22
ENDBRANCH  20  21
ENDBRANCH  19  20
ENDBRANCH  17  19
ENDBRANCH  16  17
ENDBRANCH  15  16
ENDBRANCH  14  15
ENDBRANCH  11  14
ENDBRANCH   9  10
ENDBRANCH   6   9
ENDBRANCH   4   5
BRANCH   4  26
ATOM     26  N   UNK     1       4.609  -3.375  28.025  0.00  0.00    -0.303 N 
ATOM     27  H   UNK     1       4.054  -3.203  27.199  0.00  0.00    +0.149 HD
ATOM     28  C   UNK     1       4.052  -3.086  29.264  0.00  0.00    +0.214 C 
ATOM     29  O   UNK     1       4.504  -3.548  30.305  0.00  0.00    -0.276 OA
BRANCH  28  30
ATOM     30  C   UNK     1       2.896  -2.105  29.193  0.00  0.00    +0.098 C 
BRANCH  30  31
ATOM     31  C   UNK     1       1.627  -2.780  28.648  0.00  0.00    +0.039 C 
BRANCH  31  32
ATOM     32  C   UNK     1       1.293  -2.381  27.199  0.00  0.00    +0.161 C 
BRANCH  32  33
ATOM     33  N   UNK     1       2.127  -1.223  26.760  0.00  0.00    -0.318 NA
ATOM     34  H   UNK     1       1.488  -0.437  26.592  0.00  0.00    +0.119 HD
ATOM     35  H   UNK     1       2.669  -0.906  27.571  0.00  0.00    +0.119 HD
ENDBRANCH  32  33
BRANCH  32  36
ATOM     36  C   UNK     1       1.591  -3.565  26.262  0.00  0.00    +0.322 C 
ATOM     37  O   UNK     1       2.697  -3.886  25.853  0.00  0.00    -0.249 OA
BRANCH  36  38
ATOM     38  O   UNK     1       0.450  -4.220  25.919  0.00  0.00    -0.480 OA
ATOM     39  H   UNK     1      -0.104  -4.259  26.735  0.00  0.00    +0.295 HD
ENDBRANCH  36  38
ENDBRANCH  32  36
ENDBRANCH  31  32
ENDBRANCH  30  31
ENDBRANCH  28  30
ENDBRANCH   4  26
ENDBRANCH   3   4
ENDBRANCH   2   3
ENDBRANCH   1   2
BRANCH   1  40
ATOM     40  C   UNK     1       7.351  -2.662  24.103  0.00  0.00    +0.112 C 
BRANCH  40  41
ATOM     41  C   UNK     1       6.875  -1.202  24.164  0.00  0.00    +0.169 C 
BRANCH  41  42
ATOM     42  N   UNK     1       7.013  -0.561  25.463  0.00  0.00    -0.303 N 
ATOM     43  H   UNK     1       7.815   0.039  25.609  0.00  0.00    +0.149 HD
ATOM     44  C   UNK     1       5.959  -0.477  26.341  0.00  0.00    +0.214 C 
ATOM     45  O   UNK     1       4.884  -1.042  26.174  0.00  0.00    -0.276 OA
BRANCH  44  46
ATOM     46  C   UNK     1       6.240   0.358  27.562  0.00  0.00    +0.098 C 
BRANCH  46  47
ATOM     47  C   UNK     1       5.311   1.573  27.613  0.00  0.00    +0.039 C 
BRANCH  47  48
ATOM     48  C   UNK     1       5.588   2.588  26.499  0.00  0.00    +0.161 C 
BRANCH  48  49
ATOM     49  N   UNK     1       5.085   2.096  25.185  0.00  0.00    -0.318 NA
ATOM     50  H   UNK     1       4.304   1.455  25.373  0.00  0.00    +0.119 HD
ATOM     51  H   UNK     1       4.645   2.883  24.698  0.00  0.00    +0.119 HD
ENDBRANCH  48  49
BRANCH  48  52
ATOM     52  C   UNK     1       7.103   2.830  26.387  0.00  0.00    +0.322 C 
ATOM     53  O   UNK     1       7.798   2.533  25.433  0.00  0.00    -0.249 OA
BRANCH  52  54
ATOM     54  O   UNK     1       7.568   3.501  27.476  0.00  0.00    -0.480 OA
ATOM     55  H   UNK     1       8.541   3.320  27.516  0.00  0.00    +0.295 HD
ENDBRANCH  52  54
ENDBRANCH  48  52
ENDBRANCH  47  48
ENDBRANCH  46  47
ENDBRANCH  44  46
ENDBRANCH  41  42
BRANCH  41  58
ATOM     56  N   UNK     1       6.880   1.013  23.029  0.00  0.00    -0.305 N 
ATOM     57  H   UNK     1       6.001   1.152  23.519  0.00  0.00    +0.149 HD
ATOM     58  C   UNK     1       7.317  -0.294  22.991  0.00  0.00    +0.235 C 
ATOM     59  O   UNK     1       8.060  -0.710  22.101  0.00  0.00    -0.274 OA
BRANCH  56  60
ATOM     60  C   UNK     1       7.019   1.919  21.890  0.00  0.00    +0.200 C 
BRANCH  60  63
ATOM     61  N   UNK     1       7.591   4.267  21.925  0.00  0.00    -0.314 N 
ATOM     62  H   UNK     1       8.506   3.935  21.635  0.00  0.00    +0.149 HD
ATOM     63  C   UNK     1       6.626   3.342  22.237  0.00  0.00    +0.230 C 
ATOM     64  O   UNK     1       5.519   3.650  22.671  0.00  0.00    -0.274 OA
BRANCH  61  65
ATOM     65  C   UNK     1       7.418   5.648  22.208  0.00  0.00    +0.105 C 
BRANCH  65  66
ATOM     66  C   UNK     1       8.059   5.941  23.533  0.00  0.00    +0.034 C 
BRANCH  66  67
ATOM     67  C   UNK     1       9.511   5.536  23.428  0.00  0.00    +0.082 C 
BRANCH  67  68
ATOM     68  N   UNK     1       9.782   4.299  24.097  0.00  0.00    -0.316 NA
ATOM     69  H   UNK     1       8.919   3.812  24.320  0.00  0.00    +0.122 HD
BRANCH  68  70
ATOM     70  C   UNK     1      10.854   3.509  23.503  0.00  0.00    +0.081 C 
BRANCH  70  71
ATOM     71  C   UNK     1      10.448   2.285  22.643  0.00  0.00    +0.016 C 
BRANCH  71  72
ATOM     72  C   UNK     1      10.537   0.918  23.330  0.00  0.00    +0.016 C 
BRANCH  72  73
ATOM     73  C   UNK     1      11.059   0.766  24.749  0.00  0.00    +0.077 C 
BRANCH  73  74
ATOM     74  N   UNK     1       9.915   0.336  25.571  0.00  0.00    -0.330 NA
ATOM     75  H   UNK     1      10.028  -0.638  25.855  0.00  0.00    +0.118 HD
ATOM     76  H   UNK     1       9.859   0.879  26.429  0.00  0.00    +0.118 HD
ENDBRANCH  73  74
ENDBRANCH  72  73
ENDBRANCH  71  72
ENDBRANCH  70  71
ENDBRANCH  68  70
ENDBRANCH  67  68
ENDBRANCH  66  67
ENDBRANCH  65  66
ENDBRANCH  61  65
ENDBRANCH  60  63
ENDBRANCH  56  60
ENDBRANCH  41  58
ENDBRANCH  40  41
ENDBRANCH   1  40
TORSDOF 43
ENDMDL
MODEL 7
REMARK VINA RESULT:      -3.8      2.195      8.902
REMARK  Name = 
REMARK  43 active torsions:
REMARK  status: ('A' for Active; 'I' for Inactive)
REMARK    1  A    between atoms: N_1  and  C_2
REMARK    2  A    between atoms: C_2  and  C_3
REMARK    3  A    between atoms: C_3  and  C_4
REMARK    4  A    between atoms: C_4  and  C_5
REMARK    5  A    between atoms: C_5  and  N_6
REMARK    6  A    between atoms: N_6  and  C_7
REMARK    7  A    between atoms: C_7  and  C_8
REMARK    8  A    between atoms: C_8  and  C_9
REMARK    9  A    between atoms: C_9  and  N_10
REMARK   10  A    between atoms: C_11  and  C_13
REMARK   11  A    between atoms: C_13  and  N_14
REMARK   12  A    between atoms: C_15  and  C_17
REMARK   13  A    between atoms: C_17  and  C_19
REMARK   14  A    between atoms: C_17  and  N_52
REMARK   15  A    between atoms: C_19  and  S_20
REMARK   16  A    between atoms: S_20  and  S_21
REMARK   17  A    between atoms: S_21  and  C_22
REMARK   18  A    between atoms: C_22  and  C_23
REMARK   19  A    between atoms: C_23  and  N_25
REMARK   20  A    between atoms: C_23  and  C_36
REMARK   21  A    between atoms: C_26  and  C_28
REMARK   22  A    between atoms: C_28  and  C_29
REMARK   23  A    between atoms: C_29  and  C_30
REMARK   24  A    between atoms: C_30  and  N_32
REMARK   25  A    between atoms: C_30  and  C_33
REMARK   26  A    between atoms: C_33  and  O_34
REMARK   27  A    between atoms: N_38  and  C_39
REMARK   28  A    between atoms: C_39  and  C_40
REMARK   29  A    between atoms: N_42  and  C_43
REMARK   30  A    between atoms: C_43  and  C_44
REMARK   31  A    between atoms: C_44  and  C_45
REMARK   32  A    between atoms: C_45  and  N_46
REMARK   33  A    between atoms: N_46  and  C_47
REMARK   34  A    between atoms: C_47  and  C_48
REMARK   35  A    between atoms: C_48  and  C_49
REMARK   36  A    between atoms: C_49  and  C_50
REMARK   37  A    between atoms: C_50  and  N_51
REMARK   38  A    between atoms: C_53  and  C_55
REMARK   39  A    between atoms: C_55  and  C_56
REMARK   40  A    between atoms: C_56  and  C_57
REMARK   41  A    between atoms: C_57  and  N_59
REMARK   42  A    between atoms: C_57  and  C_60
REMARK   43  A    between atoms: C_60  and  O_61
REMARK                            x       y       z     vdW  Elec       q    Type
REMARK                         _______ _______ _______ _____ _____    ______ ____
ROOT
ATOM      1  S   UNK     1       8.881  -5.231  25.148  0.00  0.00    -0.091 S 
ENDROOT
BRANCH   1   2
ATOM      2  S   UNK     1       8.943  -3.333  24.382  0.00  0.00    -0.091 S 
BRANCH   2   3
ATOM      3  C   UNK     1       8.658  -2.240  25.830  0.00  0.00    +0.112 C 
BRANCH   3   4
ATOM      4  C   UNK     1       8.978  -0.750  25.684  0.00  0.00    +0.169 C 
BRANCH   4   5
ATOM      5  C   UNK     1       7.771   0.029  26.245  0.00  0.00    +0.235 C 
ATOM      6  N   UNK     1       7.978   0.731  27.419  0.00  0.00    -0.305 N 
ATOM      7  H   UNK     1       8.915   0.820  27.811  0.00  0.00    +0.149 HD
ATOM      8  O   UNK     1       6.670  -0.047  25.736  0.00  0.00    -0.274 OA
BRANCH   6   9
ATOM      9  C   UNK     1       6.869   1.381  28.135  0.00  0.00    +0.200 C 
BRANCH   9  10
ATOM     10  C   UNK     1       7.071   2.884  28.368  0.00  0.00    +0.230 C 
ATOM     11  N   UNK     1       7.123   3.640  27.210  0.00  0.00    -0.314 N 
ATOM     12  H   UNK     1       7.101   3.151  26.324  0.00  0.00    +0.149 HD
ATOM     13  O   UNK     1       7.208   3.362  29.512  0.00  0.00    -0.274 OA
BRANCH  11  14
ATOM     14  C   UNK     1       7.265   5.102  27.140  0.00  0.00    +0.105 C 
BRANCH  14  15
ATOM     15  C   UNK     1       6.208   5.876  26.330  0.00  0.00    +0.034 C 
BRANCH  15  16
ATOM     16  C   UNK     1       4.750   5.405  26.500  0.00  0.00    +0.082 C 
BRANCH  16  17
ATOM     17  N   UNK     1       4.384   4.320  25.638  0.00  0.00    -0.316 NA
ATOM     18  H   UNK     1       4.573   3.494  26.199  0.00  0.00    +0.122 HD
BRANCH  17  19
ATOM     19  C   UNK     1       2.925   4.383  25.389  0.00  0.00    +0.081 C 
BRANCH  19  20
ATOM     20  C   UNK     1       2.643   3.233  24.448  0.00  0.00    +0.016 C 
BRANCH  20  21
ATOM     21  C   UNK     1       2.274   3.757  23.054  0.00  0.00    +0.016 C 
BRANCH  21  22
ATOM     22  C   UNK     1       3.286   3.289  22.034  0.00  0.00    +0.077 C 
BRANCH  22  23
ATOM     23  N   UNK     1       4.430   2.729  22.738  0.00  0.00    -0.330 NA
ATOM     24  H   UNK     1       4.963   2.149  22.092  0.00  0.00    +0.118 HD
ATOM     25  H   UNK     1       5.055   3.483  23.021  0.00  0.00    +0.118 HD
ENDBRANCH  22  23
ENDBRANCH  21  22
ENDBRANCH  20  21
ENDBRANCH  19  20
ENDBRANCH  17  19
ENDBRANCH  16  17
ENDBRANCH  15  16
ENDBRANCH  14  15
ENDBRANCH  11  14
ENDBRANCH   9  10
ENDBRANCH   6   9
ENDBRANCH   4   5
BRANCH   4  26
ATOM     26  N   UNK     1       9.132  -0.344  24.275  0.00  0.00    -0.303 N 
ATOM     27  H   UNK     1       8.316  -0.469  23.693  0.00  0.00    +0.149 HD
ATOM     28  C   UNK     1      10.104   0.556  23.861  0.00  0.00    +0.214 C 
ATOM     29  O   UNK     1      10.946   1.005  24.630  0.00  0.00    -0.276 OA
BRANCH  28  30
ATOM     30  C   UNK     1      10.055   0.859  22.375  0.00  0.00    +0.098 C 
BRANCH  30  31
ATOM     31  C   UNK     1       9.678   2.327  22.120  0.00  0.00    +0.039 C 
BRANCH  31  32
ATOM     32  C   UNK     1       8.171   2.609  22.261  0.00  0.00    +0.161 C 
BRANCH  32  33
ATOM     33  N   UNK     1       7.379   1.353  22.107  0.00  0.00    -0.318 NA
ATOM     34  H   UNK     1       6.389   1.605  22.213  0.00  0.00    +0.119 HD
ATOM     35  H   UNK     1       7.437   1.068  21.124  0.00  0.00    +0.119 HD
ENDBRANCH  32  33
BRANCH  32  36
ATOM     36  C   UNK     1       7.888   3.182  23.660  0.00  0.00    +0.322 C 
ATOM     37  O   UNK     1       6.877   2.983  24.318  0.00  0.00    -0.249 OA
BRANCH  36  38
ATOM     38  O   UNK     1       8.911   3.970  24.086  0.00  0.00    -0.480 OA
ATOM     39  H   UNK     1       8.497   4.756  24.516  0.00  0.00    +0.295 HD
ENDBRANCH  36  38
ENDBRANCH  32  36
ENDBRANCH  31  32
ENDBRANCH  30  31
ENDBRANCH  28  30
ENDBRANCH   4  26
ENDBRANCH   3   4
ENDBRANCH   2   3
ENDBRANCH   1   2
BRANCH   1  40
ATOM     40  C   UNK     1       8.287  -4.965  26.860  0.00  0.00    +0.112 C 
BRANCH  40  41
ATOM     41  C   UNK     1       6.758  -4.931  27.018  0.00  0.00    +0.169 C 
BRANCH  41  42
ATOM     42  N   UNK     1       6.010  -4.850  25.773  0.00  0.00    -0.303 N 
ATOM     43  H   UNK     1       5.966  -5.680  25.195  0.00  0.00    +0.149 HD
ATOM     44  C   UNK     1       5.119  -3.832  25.533  0.00  0.00    +0.214 C 
ATOM     45  O   UNK     1       4.985  -2.856  26.261  0.00  0.00    -0.276 OA
BRANCH  44  46
ATOM     46  C   UNK     1       4.321  -3.998  24.267  0.00  0.00    +0.098 C 
BRANCH  46  47
ATOM     47  C   UNK     1       5.247  -4.225  23.069  0.00  0.00    +0.039 C 
BRANCH  47  48
ATOM     48  C   UNK     1       5.034  -5.583  22.394  0.00  0.00    +0.161 C 
BRANCH  48  49
ATOM     49  N   UNK     1       5.122  -6.696  23.382  0.00  0.00    -0.318 NA
ATOM     50  H   UNK     1       4.552  -6.432  24.195  0.00  0.00    +0.119 HD
ATOM     51  H   UNK     1       4.631  -7.507  22.991  0.00  0.00    +0.119 HD
ENDBRANCH  48  49
BRANCH  48  52
ATOM     52  C   UNK     1       6.110  -5.797  21.315  0.00  0.00    +0.322 C 
ATOM     53  O   UNK     1       5.975  -5.572  20.127  0.00  0.00    -0.249 OA
BRANCH  52  54
ATOM     54  O   UNK     1       7.282  -6.204  21.875  0.00  0.00    -0.480 OA
ATOM     55  H   UNK     1       7.077  -7.040  22.366  0.00  0.00    +0.295 HD
ENDBRANCH  52  54
ENDBRANCH  48  52
ENDBRANCH  47  48
ENDBRANCH  46  47
ENDBRANCH  44  46
ENDBRANCH  41  42
BRANCH  41  58
ATOM     56  N   UNK     1       4.801  -6.176  27.921  0.00  0.00    -0.305 N 
ATOM     57  H   UNK     1       4.265  -5.395  27.554  0.00  0.00    +0.149 HD
ATOM     58  C   UNK     1       6.156  -5.946  28.020  0.00  0.00    +0.235 C 
ATOM     59  O   UNK     1       6.865  -6.548  28.828  0.00  0.00    -0.274 OA
BRANCH  56  60
ATOM     60  C   UNK     1       4.056  -6.921  28.934  0.00  0.00    +0.200 C 
BRANCH  60  63
ATOM     61  N   UNK     1       2.212  -6.249  27.523  0.00  0.00    -0.314 N 
ATOM     62  H   UNK     1       2.932  -5.749  27.009  0.00  0.00    +0.149 HD
ATOM     63  C   UNK     1       2.560  -6.883  28.690  0.00  0.00    +0.230 C 
ATOM     64  O   UNK     1       1.743  -7.444  29.415  0.00  0.00    -0.274 OA
BRANCH  61  65
ATOM     65  C   UNK     1       0.854  -6.085  27.141  0.00  0.00    +0.105 C 
BRANCH  65  66
ATOM     66  C   UNK     1       0.480  -4.644  27.339  0.00  0.00    +0.034 C 
BRANCH  66  67
ATOM     67  C   UNK     1       1.580  -3.807  26.728  0.00  0.00    +0.082 C 
BRANCH  67  68
ATOM     68  N   UNK     1       2.277  -3.026  27.705  0.00  0.00    -0.316 NA
ATOM     69  H   UNK     1       3.190  -2.745  27.359  0.00  0.00    +0.122 HD
BRANCH  68  70
ATOM     70  C   UNK     1       1.468  -1.999  28.352  0.00  0.00    +0.081 C 
BRANCH  70  71
ATOM     71  C   UNK     1       0.976  -0.820  27.475  0.00  0.00    +0.016 C 
BRANCH  71  72
ATOM     72  C   UNK     1       1.827   0.453  27.516  0.00  0.00    +0.016 C 
BRANCH  72  73
ATOM     73  C   UNK     1       3.345   0.402  27.571  0.00  0.00    +0.077 C 
BRANCH  73  74
ATOM     74  N   UNK     1       3.783  -0.314  26.360  0.00  0.00    -0.330 NA
ATOM     75  H   UNK     1       4.571  -0.927  26.574  0.00  0.00    +0.118 HD
ATOM     76  H   UNK     1       3.043  -0.915  26.006  0.00  0.00    +0.118 HD
ENDBRANCH  73  74
ENDBRANCH  72  73
ENDBRANCH  71  72
ENDBRANCH  70  71
ENDBRANCH  68  70
ENDBRANCH  67  68
ENDBRANCH  66  67
ENDBRANCH  65  66
ENDBRANCH  61  65
ENDBRANCH  60  63
ENDBRANCH  56  60
ENDBRANCH  41  58
ENDBRANCH  40  41
ENDBRANCH   1  40
TORSDOF 43
ENDMDL
MODEL 8
REMARK VINA RESULT:      -3.8      2.612      5.900
REMARK  Name = 
REMARK  43 active torsions:
REMARK  status: ('A' for Active; 'I' for Inactive)
REMARK    1  A    between atoms: N_1  and  C_2
REMARK    2  A    between atoms: C_2  and  C_3
REMARK    3  A    between atoms: C_3  and  C_4
REMARK    4  A    between atoms: C_4  and  C_5
REMARK    5  A    between atoms: C_5  and  N_6
REMARK    6  A    between atoms: N_6  and  C_7
REMARK    7  A    between atoms: C_7  and  C_8
REMARK    8  A    between atoms: C_8  and  C_9
REMARK    9  A    between atoms: C_9  and  N_10
REMARK   10  A    between atoms: C_11  and  C_13
REMARK   11  A    between atoms: C_13  and  N_14
REMARK   12  A    between atoms: C_15  and  C_17
REMARK   13  A    between atoms: C_17  and  C_19
REMARK   14  A    between atoms: C_17  and  N_52
REMARK   15  A    between atoms: C_19  and  S_20
REMARK   16  A    between atoms: S_20  and  S_21
REMARK   17  A    between atoms: S_21  and  C_22
REMARK   18  A    between atoms: C_22  and  C_23
REMARK   19  A    between atoms: C_23  and  N_25
REMARK   20  A    between atoms: C_23  and  C_36
REMARK   21  A    between atoms: C_26  and  C_28
REMARK   22  A    between atoms: C_28  and  C_29
REMARK   23  A    between atoms: C_29  and  C_30
REMARK   24  A    between atoms: C_30  and  N_32
REMARK   25  A    between atoms: C_30  and  C_33
REMARK   26  A    between atoms: C_33  and  O_34
REMARK   27  A    between atoms: N_38  and  C_39
REMARK   28  A    between atoms: C_39  and  C_40
REMARK   29  A    between atoms: N_42  and  C_43
REMARK   30  A    between atoms: C_43  and  C_44
REMARK   31  A    between atoms: C_44  and  C_45
REMARK   32  A    between atoms: C_45  and  N_46
REMARK   33  A    between atoms: N_46  and  C_47
REMARK   34  A    between atoms: C_47  and  C_48
REMARK   35  A    between atoms: C_48  and  C_49
REMARK   36  A    between atoms: C_49  and  C_50
REMARK   37  A    between atoms: C_50  and  N_51
REMARK   38  A    between atoms: C_53  and  C_55
REMARK   39  A    between atoms: C_55  and  C_56
REMARK   40  A    between atoms: C_56  and  C_57
REMARK   41  A    between atoms: C_57  and  N_59
REMARK   42  A    between atoms: C_57  and  C_60
REMARK   43  A    between atoms: C_60  and  O_61
REMARK                            x       y       z     vdW  Elec       q    Type
REMARK                         _______ _______ _______ _____ _____    ______ ____
ROOT
ATOM      1  S   UNK     1       5.010  -0.248  27.652  0.00  0.00    -0.091 S 
ENDROOT
BRANCH   1   2
ATOM      2  S   UNK     1       2.977  -0.217  27.412  0.00  0.00    -0.091 S 
BRANCH   2   3
ATOM      3  C   UNK     1       2.542  -1.936  26.937  0.00  0.00    +0.112 C 
BRANCH   3   4
ATOM      4  C   UNK     1       3.680  -2.944  26.752  0.00  0.00    +0.169 C 
BRANCH   4   5
ATOM      5  C   UNK     1       3.602  -3.452  25.298  0.00  0.00    +0.235 C 
ATOM      6  N   UNK     1       2.846  -4.590  25.079  0.00  0.00    -0.305 N 
ATOM      7  H   UNK     1       2.278  -4.987  25.828  0.00  0.00    +0.149 HD
ATOM      8  O   UNK     1       4.247  -2.937  24.407  0.00  0.00    -0.274 OA
BRANCH   6   9
ATOM      9  C   UNK     1       2.824  -5.261  23.770  0.00  0.00    +0.200 C 
BRANCH   9  10
ATOM     10  C   UNK     1       4.035  -6.166  23.511  0.00  0.00    +0.230 C 
ATOM     11  N   UNK     1       4.948  -5.655  22.605  0.00  0.00    -0.314 N 
ATOM     12  H   UNK     1       4.717  -4.786  22.140  0.00  0.00    +0.149 HD
ATOM     13  O   UNK     1       4.155  -7.282  24.057  0.00  0.00    -0.274 OA
BRANCH  11  14
ATOM     14  C   UNK     1       6.214  -6.288  22.205  0.00  0.00    +0.105 C 
BRANCH  14  15
ATOM     15  C   UNK     1       7.484  -5.419  22.254  0.00  0.00    +0.034 C 
BRANCH  15  16
ATOM     16  C   UNK     1       7.371  -4.104  23.051  0.00  0.00    +0.082 C 
BRANCH  16  17
ATOM     17  N   UNK     1       7.224  -4.289  24.464  0.00  0.00    -0.316 NA
ATOM     18  H   UNK     1       7.885  -5.029  24.680  0.00  0.00    +0.122 HD
BRANCH  17  19
ATOM     19  C   UNK     1       7.671  -3.057  25.153  0.00  0.00    +0.081 C 
BRANCH  19  20
ATOM     20  C   UNK     1       8.943  -2.655  24.441  0.00  0.00    +0.016 C 
BRANCH  20  21
ATOM     21  C   UNK     1       9.099  -1.129  24.434  0.00  0.00    +0.016 C 
BRANCH  21  22
ATOM     22  C   UNK     1       7.745  -0.464  24.535  0.00  0.00    +0.077 C 
BRANCH  22  23
ATOM     23  N   UNK     1       7.342  -0.027  23.207  0.00  0.00    -0.330 NA
ATOM     24  H   UNK     1       6.375  -0.303  23.048  0.00  0.00    +0.118 HD
ATOM     25  H   UNK     1       7.355   0.991  23.167  0.00  0.00    +0.118 HD
ENDBRANCH  22  23
ENDBRANCH  21  22
ENDBRANCH  20  21
ENDBRANCH  19  20
ENDBRANCH  17  19
ENDBRANCH  16  17
ENDBRANCH  15  16
ENDBRANCH  14  15
ENDBRANCH  11  14
ENDBRANCH   9  10
ENDBRANCH   6   9
ENDBRANCH   4   5
BRANCH   4  26
ATOM     26  N   UNK     1       3.536  -4.122  27.626  0.00  0.00    -0.303 N 
ATOM     27  H   UNK     1       3.539  -5.017  27.156  0.00  0.00    +0.149 HD
ATOM     28  C   UNK     1       3.840  -4.088  28.980  0.00  0.00    +0.214 C 
ATOM     29  O   UNK     1       4.170  -3.053  29.547  0.00  0.00    -0.276 OA
BRANCH  28  30
ATOM     30  C   UNK     1       3.655  -5.424  29.675  0.00  0.00    +0.098 C 
BRANCH  30  31
ATOM     31  C   UNK     1       4.462  -6.530  28.977  0.00  0.00    +0.039 C 
BRANCH  31  32
ATOM     32  C   UNK     1       5.980  -6.271  28.968  0.00  0.00    +0.161 C 
BRANCH  32  33
ATOM     33  N   UNK     1       6.728  -7.480  29.422  0.00  0.00    -0.318 NA
ATOM     34  H   UNK     1       6.376  -7.720  30.357  0.00  0.00    +0.119 HD
ATOM     35  H   UNK     1       6.415  -8.272  28.851  0.00  0.00    +0.119 HD
ENDBRANCH  32  33
BRANCH  32  36
ATOM     36  C   UNK     1       6.433  -5.942  27.534  0.00  0.00    +0.322 C 
ATOM     37  O   UNK     1       5.700  -5.862  26.559  0.00  0.00    -0.249 OA
BRANCH  36  38
ATOM     38  O   UNK     1       7.779  -5.760  27.473  0.00  0.00    -0.480 OA
ATOM     39  H   UNK     1       8.088  -5.658  28.405  0.00  0.00    +0.295 HD
ENDBRANCH  36  38
ENDBRANCH  32  36
ENDBRANCH  31  32
ENDBRANCH  30  31
ENDBRANCH  28  30
ENDBRANCH   4  26
ENDBRANCH   3   4
ENDBRANCH   2   3
ENDBRANCH   1   2
BRANCH   1  40
ATOM     40  C   UNK     1       5.561   1.216  26.697  0.00  0.00    +0.112 C 
BRANCH  40  41
ATOM     41  C   UNK     1       4.444   2.204  26.323  0.00  0.00    +0.169 C 
BRANCH  41  42
ATOM     42  N   UNK     1       4.409   3.424  27.115  0.00  0.00    -0.303 N 
ATOM     43  H   UNK     1       5.209   4.042  27.064  0.00  0.00    +0.149 HD
ATOM     44  C   UNK     1       3.235   3.909  27.640  0.00  0.00    +0.214 C 
ATOM     45  O   UNK     1       2.171   3.301  27.611  0.00  0.00    -0.276 OA
BRANCH  44  46
ATOM     46  C   UNK     1       3.363   5.260  28.291  0.00  0.00    +0.098 C 
BRANCH  46  47
ATOM     47  C   UNK     1       4.485   5.256  29.332  0.00  0.00    +0.039 C 
BRANCH  47  48
ATOM     48  C   UNK     1       5.714   6.060  28.895  0.00  0.00    +0.161 C 
BRANCH  48  49
ATOM     49  N   UNK     1       5.572   6.540  27.491  0.00  0.00    -0.318 NA
ATOM     50  H   UNK     1       5.783   7.545  27.485  0.00  0.00    +0.119 HD
ATOM     51  H   UNK     1       6.330   6.127  26.937  0.00  0.00    +0.119 HD
ENDBRANCH  48  49
BRANCH  48  52
ATOM     52  C   UNK     1       6.969   5.174  28.988  0.00  0.00    +0.322 C 
ATOM     53  O   UNK     1       7.195   4.195  28.303  0.00  0.00    -0.249 OA
BRANCH  52  54
ATOM     54  O   UNK     1       7.849   5.677  29.897  0.00  0.00    -0.480 OA
ATOM     55  H   UNK     1       8.651   5.948  29.382  0.00  0.00    +0.295 HD
ENDBRANCH  52  54
ENDBRANCH  48  52
ENDBRANCH  47  48
ENDBRANCH  46  47
ENDBRANCH  44  46
ENDBRANCH  41  42
BRANCH  41  58
ATOM     56  N   UNK     1       5.379   2.472  24.032  0.00  0.00    -0.305 N 
ATOM     57  H   UNK     1       6.223   2.758  24.521  0.00  0.00    +0.149 HD
ATOM     58  C   UNK     1       4.241   2.459  24.810  0.00  0.00    +0.235 C 
ATOM     59  O   UNK     1       3.116   2.593  24.327  0.00  0.00    -0.274 OA
BRANCH  56  60
ATOM     60  C   UNK     1       5.373   2.925  22.643  0.00  0.00    +0.200 C 
BRANCH  60  63
ATOM     61  N   UNK     1       6.816   4.801  22.151  0.00  0.00    -0.314 N 
ATOM     62  H   UNK     1       7.543   4.092  22.121  0.00  0.00    +0.149 HD
ATOM     63  C   UNK     1       5.550   4.427  22.528  0.00  0.00    +0.230 C 
ATOM     64  O   UNK     1       4.629   5.228  22.667  0.00  0.00    -0.274 OA
BRANCH  61  65
ATOM     65  C   UNK     1       7.181   6.168  22.023  0.00  0.00    +0.105 C 
BRANCH  65  66
ATOM     66  C   UNK     1       7.464   6.709  23.395  0.00  0.00    +0.034 C 
BRANCH  66  67
ATOM     67  C   UNK     1       8.966   6.769  23.552  0.00  0.00    +0.082 C 
BRANCH  67  68
ATOM     68  N   UNK     1       9.620   5.626  22.990  0.00  0.00    -0.316 NA
ATOM     69  H   UNK     1      10.156   5.884  22.166  0.00  0.00    +0.122 HD
BRANCH  68  70
ATOM     70  C   UNK     1      10.277   4.762  23.964  0.00  0.00    +0.081 C 
BRANCH  70  71
ATOM     71  C   UNK     1      11.199   3.643  23.418  0.00  0.00    +0.016 C 
BRANCH  71  72
ATOM     72  C   UNK     1      10.592   2.238  23.354  0.00  0.00    +0.016 C 
BRANCH  72  73
ATOM     73  C   UNK     1      10.031   1.665  22.063  0.00  0.00    +0.077 C 
BRANCH  73  74
ATOM     74  N   UNK     1       8.886   2.514  21.693  0.00  0.00    -0.330 NA
ATOM     75  H   UNK     1       8.879   3.367  22.253  0.00  0.00    +0.118 HD
ATOM     76  H   UNK     1       8.952   2.811  20.722  0.00  0.00    +0.118 HD
ENDBRANCH  73  74
ENDBRANCH  72  73
ENDBRANCH  71  72
ENDBRANCH  70  71
ENDBRANCH  68  70
ENDBRANCH  67  68
ENDBRANCH  66  67
ENDBRANCH  65  66
ENDBRANCH  61  65
ENDBRANCH  60  63
ENDBRANCH  56  60
ENDBRANCH  41  58
ENDBRANCH  40  41
ENDBRANCH   1  40
TORSDOF 43
ENDMDL
MODEL 9
REMARK VINA RESULT:      -3.8      2.148      3.529
REMARK  Name = 
REMARK  43 active torsions:
REMARK  status: ('A' for Active; 'I' for Inactive)
REMARK    1  A    between atoms: N_1  and  C_2
REMARK    2  A    between atoms: C_2  and  C_3
REMARK    3  A    between atoms: C_3  and  C_4
REMARK    4  A    between atoms: C_4  and  C_5
REMARK    5  A    between atoms: C_5  and  N_6
REMARK    6  A    between atoms: N_6  and  C_7
REMARK    7  A    between atoms: C_7  and  C_8
REMARK    8  A    between atoms: C_8  and  C_9
REMARK    9  A    between atoms: C_9  and  N_10
REMARK   10  A    between atoms: C_11  and  C_13
REMARK   11  A    between atoms: C_13  and  N_14
REMARK   12  A    between atoms: C_15  and  C_17
REMARK   13  A    between atoms: C_17  and  C_19
REMARK   14  A    between atoms: C_17  and  N_52
REMARK   15  A    between atoms: C_19  and  S_20
REMARK   16  A    between atoms: S_20  and  S_21
REMARK   17  A    between atoms: S_21  and  C_22
REMARK   18  A    between atoms: C_22  and  C_23
REMARK   19  A    between atoms: C_23  and  N_25
REMARK   20  A    between atoms: C_23  and  C_36
REMARK   21  A    between atoms: C_26  and  C_28
REMARK   22  A    between atoms: C_28  and  C_29
REMARK   23  A    between atoms: C_29  and  C_30
REMARK   24  A    between atoms: C_30  and  N_32
REMARK   25  A    between atoms: C_30  and  C_33
REMARK   26  A    between atoms: C_33  and  O_34
REMARK   27  A    between atoms: N_38  and  C_39
REMARK   28  A    between atoms: C_39  and  C_40
REMARK   29  A    between atoms: N_42  and  C_43
REMARK   30  A    between atoms: C_43  and  C_44
REMARK   31  A    between atoms: C_44  and  C_45
REMARK   32  A    between atoms: C_45  and  N_46
REMARK   33  A    between atoms: N_46  and  C_47
REMARK   34  A    between atoms: C_47  and  C_48
REMARK   35  A    between atoms: C_48  and  C_49
REMARK   36  A    between atoms: C_49  and  C_50
REMARK   37  A    between atoms: C_50  and  N_51
REMARK   38  A    between atoms: C_53  and  C_55
REMARK   39  A    between atoms: C_55  and  C_56
REMARK   40  A    between atoms: C_56  and  C_57
REMARK   41  A    between atoms: C_57  and  N_59
REMARK   42  A    between atoms: C_57  and  C_60
REMARK   43  A    between atoms: C_60  and  O_61
REMARK                            x       y       z     vdW  Elec       q    Type
REMARK                         _______ _______ _______ _____ _____    ______ ____
ROOT
ATOM      1  S   UNK     1       8.615  -0.643  23.286  0.00  0.00    -0.091 S 
ENDROOT
BRANCH   1   2
ATOM      2  S   UNK     1       6.852  -1.680  23.367  0.00  0.00    -0.091 S 
BRANCH   2   3
ATOM      3  C   UNK     1       7.098  -3.100  22.229  0.00  0.00    +0.112 C 
BRANCH   3   4
ATOM      4  C   UNK     1       7.568  -4.430  22.826  0.00  0.00    +0.169 C 
BRANCH   4   5
ATOM      5  C   UNK     1       6.458  -5.465  22.553  0.00  0.00    +0.235 C 
ATOM      6  N   UNK     1       5.328  -5.387  23.349  0.00  0.00    -0.305 N 
ATOM      7  H   UNK     1       5.200  -4.605  23.991  0.00  0.00    +0.149 HD
ATOM      8  O   UNK     1       6.606  -6.362  21.748  0.00  0.00    -0.274 OA
BRANCH   6   9
ATOM      9  C   UNK     1       4.274  -6.410  23.294  0.00  0.00    +0.200 C 
BRANCH   9  10
ATOM     10  C   UNK     1       2.874  -5.884  23.640  0.00  0.00    +0.230 C 
ATOM     11  N   UNK     1       2.495  -6.089  24.955  0.00  0.00    -0.314 N 
ATOM     12  H   UNK     1       3.118  -6.621  25.549  0.00  0.00    +0.149 HD
ATOM     13  O   UNK     1       2.140  -5.348  22.785  0.00  0.00    -0.274 OA
BRANCH  11  14
ATOM     14  C   UNK     1       1.231  -5.651  25.567  0.00  0.00    +0.105 C 
BRANCH  14  15
ATOM     15  C   UNK     1       0.904  -6.188  26.972  0.00  0.00    +0.034 C 
BRANCH  15  16
ATOM     16  C   UNK     1       1.520  -7.555  27.333  0.00  0.00    +0.082 C 
BRANCH  16  17
ATOM     17  N   UNK     1       2.805  -7.468  27.962  0.00  0.00    -0.316 NA
ATOM     18  H   UNK     1       3.276  -6.731  27.444  0.00  0.00    +0.122 HD
BRANCH  17  19
ATOM     19  C   UNK     1       2.620  -7.005  29.356  0.00  0.00    +0.081 C 
BRANCH  19  20
ATOM     20  C   UNK     1       3.963  -6.435  29.756  0.00  0.00    +0.016 C 
BRANCH  20  21
ATOM     21  C   UNK     1       3.788  -5.071  30.436  0.00  0.00    +0.016 C 
BRANCH  21  22
ATOM     22  C   UNK     1       2.982  -4.145  29.554  0.00  0.00    +0.077 C 
BRANCH  22  23
ATOM     23  N   UNK     1       3.863  -3.106  29.043  0.00  0.00    -0.330 NA
ATOM     24  H   UNK     1       3.661  -2.960  28.055  0.00  0.00    +0.118 HD
ATOM     25  H   UNK     1       3.651  -2.224  29.508  0.00  0.00    +0.118 HD
ENDBRANCH  22  23
ENDBRANCH  21  22
ENDBRANCH  20  21
ENDBRANCH  19  20
ENDBRANCH  17  19
ENDBRANCH  16  17
ENDBRANCH  15  16
ENDBRANCH  14  15
ENDBRANCH  11  14
ENDBRANCH   9  10
ENDBRANCH   6   9
ENDBRANCH   4   5
BRANCH   4  26
ATOM     26  N   UNK     1       7.739  -4.361  24.288  0.00  0.00    -0.303 N 
ATOM     27  H   UNK     1       7.027  -4.826  24.833  0.00  0.00    +0.149 HD
ATOM     28  C   UNK     1       8.968  -4.113  24.884  0.00  0.00    +0.214 C 
ATOM     29  O   UNK     1       9.971  -3.856  24.227  0.00  0.00    -0.276 OA
BRANCH  28  30
ATOM     30  C   UNK     1       8.919  -4.125  26.401  0.00  0.00    +0.098 C 
BRANCH  30  31
ATOM     31  C   UNK     1       7.977  -5.224  26.917  0.00  0.00    +0.039 C 
BRANCH  31  32
ATOM     32  C   UNK     1       6.631  -4.687  27.438  0.00  0.00    +0.161 C 
BRANCH  32  33
ATOM     33  N   UNK     1       6.495  -3.228  27.153  0.00  0.00    -0.318 NA
ATOM     34  H   UNK     1       7.439  -2.825  27.183  0.00  0.00    +0.119 HD
ATOM     35  H   UNK     1       6.235  -3.127  26.167  0.00  0.00    +0.119 HD
ENDBRANCH  32  33
BRANCH  32  36
ATOM     36  C   UNK     1       5.479  -5.420  26.729  0.00  0.00    +0.322 C 
ATOM     37  O   UNK     1       5.438  -6.620  26.495  0.00  0.00    -0.249 OA
BRANCH  36  38
ATOM     38  O   UNK     1       4.493  -4.556  26.370  0.00  0.00    -0.480 OA
ATOM     39  H   UNK     1       4.474  -4.551  25.383  0.00  0.00    +0.295 HD
ENDBRANCH  36  38
ENDBRANCH  32  36
ENDBRANCH  31  32
ENDBRANCH  30  31
ENDBRANCH  28  30
ENDBRANCH   4  26
ENDBRANCH   3   4
ENDBRANCH   2   3
ENDBRANCH   1   2
BRANCH   1  40
ATOM     40  C   UNK     1       8.851  -0.095  25.018  0.00  0.00    +0.112 C 
BRANCH  40  41
ATOM     41  C   UNK     1       8.152   1.225  25.382  0.00  0.00    +0.169 C 
BRANCH  41  42
ATOM     42  N   UNK     1       7.581   1.952  24.258  0.00  0.00    -0.303 N 
ATOM     43  H   UNK     1       6.582   1.883  24.111  0.00  0.00    +0.149 HD
ATOM     44  C   UNK     1       8.273   2.956  23.623  0.00  0.00    +0.214 C 
ATOM     45  O   UNK     1       9.448   3.223  23.846  0.00  0.00    -0.276 OA
BRANCH  44  46
ATOM     46  C   UNK     1       7.468   3.701  22.592  0.00  0.00    +0.098 C 
BRANCH  46  47
ATOM     47  C   UNK     1       6.678   4.841  23.240  0.00  0.00    +0.039 C 
BRANCH  47  48
ATOM     48  C   UNK     1       7.192   6.229  22.845  0.00  0.00    +0.161 C 
BRANCH  48  49
ATOM     49  N   UNK     1       7.468   6.305  21.383  0.00  0.00    -0.318 NA
ATOM     50  H   UNK     1       7.563   5.342  21.036  0.00  0.00    +0.119 HD
ATOM     51  H   UNK     1       6.623   6.652  20.917  0.00  0.00    +0.119 HD
ENDBRANCH  48  49
BRANCH  48  52
ATOM     52  C   UNK     1       8.492   6.533  23.609  0.00  0.00    +0.322 C 
ATOM     53  O   UNK     1       8.563   6.904  24.765  0.00  0.00    -0.249 OA
BRANCH  52  54
ATOM     54  O   UNK     1       9.581   6.255  22.840  0.00  0.00    -0.480 OA
ATOM     55  H   UNK     1       9.866   7.118  22.445  0.00  0.00    +0.295 HD
ENDBRANCH  52  54
ENDBRANCH  48  52
ENDBRANCH  47  48
ENDBRANCH  46  47
ENDBRANCH  44  46
ENDBRANCH  41  42
BRANCH  41  58
ATOM     56  N   UNK     1       6.422   0.059  26.739  0.00  0.00    -0.305 N 
ATOM     57  H   UNK     1       6.186  -0.394  25.861  0.00  0.00    +0.149 HD
ATOM     58  C   UNK     1       7.214   1.180  26.612  0.00  0.00    +0.235 C 
ATOM     59  O   UNK     1       7.215   2.079  27.454  0.00  0.00    -0.274 OA
BRANCH  56  60
ATOM     60  C   UNK     1       5.331  -0.024  27.707  0.00  0.00    +0.200 C 
BRANCH  60  63
ATOM     61  N   UNK     1       4.104   2.041  27.974  0.00  0.00    -0.314 N 
ATOM     62  H   UNK     1       4.750   2.196  28.743  0.00  0.00    +0.149 HD
ATOM     63  C   UNK     1       4.147   0.838  27.314  0.00  0.00    +0.230 C 
ATOM     64  O   UNK     1       3.355   0.533  26.426  0.00  0.00    -0.274 OA
BRANCH  61  65
ATOM     65  C   UNK     1       3.049   2.968  27.763  0.00  0.00    +0.105 C 
BRANCH  65  66
ATOM     66  C   UNK     1       3.647   4.261  27.289  0.00  0.00    +0.034 C 
BRANCH  66  67
ATOM     67  C   UNK     1       3.143   4.501  25.885  0.00  0.00    +0.082 C 
BRANCH  67  68
ATOM     68  N   UNK     1       2.933   3.282  25.165  0.00  0.00    -0.316 NA
ATOM     69  H   UNK     1       2.681   2.526  25.797  0.00  0.00    +0.122 HD
BRANCH  68  70
ATOM     70  C   UNK     1       2.135   3.422  23.951  0.00  0.00    +0.081 C 
BRANCH  70  71
ATOM     71  C   UNK     1       2.873   3.303  22.594  0.00  0.00    +0.016 C 
BRANCH  71  72
ATOM     72  C   UNK     1       2.963   4.584  21.759  0.00  0.00    +0.016 C 
BRANCH  72  73
ATOM     73  C   UNK     1       3.228   5.939  22.395  0.00  0.00    +0.077 C 
BRANCH  73  74
ATOM     74  N   UNK     1       4.048   6.697  21.435  0.00  0.00    -0.330 NA
ATOM     75  H   UNK     1       4.343   6.095  20.665  0.00  0.00    +0.118 HD
ATOM     76  H   UNK     1       3.511   7.453  21.016  0.00  0.00    +0.118 HD
ENDBRANCH  73  74
ENDBRANCH  72  73
ENDBRANCH  71  72
ENDBRANCH  70  71
ENDBRANCH  68  70
ENDBRANCH  67  68
ENDBRANCH  66  67
ENDBRANCH  65  66
ENDBRANCH  61  65
ENDBRANCH  60  63
ENDBRANCH  56  60
ENDBRANCH  41  58
ENDBRANCH  40  41
ENDBRANCH   1  40
TORSDOF 43
ENDMDL
