MODEL 1
REMARK VINA RESULT:      -3.9      0.000      0.000
REMARK  Name = 
REMARK  2 active torsions:
REMARK  status: ('A' for Active; 'I' for Inactive)
REMARK    1  A    between atoms: O_1  and  C_2
REMARK    2  A    between atoms: C_2  and  C_4
REMARK                            x       y       z     vdW  Elec       q    Type
REMARK                         _______ _______ _______ _____ _____    ______ ____
ROOT
ATOM      1  C   UNL     1       9.577   0.515  22.861  0.00  0.00    +0.226 C 
ATOM      2  O   UNL     1      10.380  -0.437  23.597  0.00  0.00    -0.365 OA
ATOM      3  C   UNL     1      10.194  -1.730  22.993  0.00  0.00    +0.161 C 
ATOM      4  C   UNL     1       9.268  -1.554  21.806  0.00  0.00    +0.031 C 
ATOM      5  C   UNL     1       9.402  -0.087  21.485  0.00  0.00    +0.045 C 
ENDROOT
BRANCH   1   6
ATOM      6  C   UNL     1      10.271   1.870  22.816  0.00  0.00    +0.334 C 
ATOM      7  O   UNL     1      10.775   2.429  23.777  0.00  0.00    -0.248 OA
BRANCH   6   8
ATOM      8  O   UNL     1      10.262   2.400  21.565  0.00  0.00    -0.479 OA
ATOM      9  H   UNL     1      10.759   3.250  21.596  0.00  0.00    +0.295 HD
ENDBRANCH   6   8
ENDBRANCH   1   6
TORSDOF 2
ENDMDL
MODEL 2
REMARK VINA RESULT:      -3.9      1.561      3.521
REMARK  Name = 
REMARK  2 active torsions:
REMARK  status: ('A' for Active; 'I' for Inactive)
REMARK    1  A    between atoms: O_1  and  C_2
REMARK    2  A    between atoms: C_2  and  C_4
REMARK                            x       y       z     vdW  Elec       q    Type
REMARK                         _______ _______ _______ _____ _____    ______ ____
ROOT
ATOM      1  C   UNL     1       9.729  -0.079  23.154  0.00  0.00    +0.226 C 
ATOM      2  O   UNL     1       9.746   0.763  21.978  0.00  0.00    -0.365 OA
ATOM      3  C   UNL     1      10.204   2.068  22.378  0.00  0.00    +0.161 C 
ATOM      4  C   UNL     1      10.523   2.009  23.859  0.00  0.00    +0.031 C 
ATOM      5  C   UNL     1      10.732   0.537  24.104  0.00  0.00    +0.045 C 
ENDROOT
BRANCH   1   6
ATOM      6  C   UNL     1      10.086  -1.512  22.784  0.00  0.00    +0.334 C 
ATOM      7  O   UNL     1      10.212  -2.428  23.581  0.00  0.00    -0.248 OA
BRANCH   6   8
ATOM      8  O   UNL     1      10.256  -1.661  21.444  0.00  0.00    -0.479 OA
ATOM      9  H   UNL     1       9.507  -1.204  20.995  0.00  0.00    +0.295 HD
ENDBRANCH   6   8
ENDBRANCH   1   6
TORSDOF 2
ENDMDL
MODEL 3
REMARK VINA RESULT:      -3.7      1.445      1.826
REMARK  Name = 
REMARK  2 active torsions:
REMARK  status: ('A' for Active; 'I' for Inactive)
REMARK    1  A    between atoms: O_1  and  C_2
REMARK    2  A    between atoms: C_2  and  C_4
REMARK                            x       y       z     vdW  Elec       q    Type
REMARK                         _______ _______ _______ _____ _____    ______ ____
ROOT
ATOM      1  C   UNL     1       8.719   0.248  22.394  0.00  0.00    +0.226 C 
ATOM      2  O   UNL     1       9.205   0.352  23.752  0.00  0.00    -0.365 OA
ATOM      3  C   UNL     1      10.041  -0.792  24.009  0.00  0.00    +0.161 C 
ATOM      4  C   UNL     1      10.104  -1.611  22.735  0.00  0.00    +0.031 C 
ATOM      5  C   UNL     1       9.732  -0.611  21.670  0.00  0.00    +0.045 C 
ENDROOT
BRANCH   1   6
ATOM      6  C   UNL     1       8.585   1.632  21.772  0.00  0.00    +0.334 C 
ATOM      7  O   UNL     1       7.528   2.210  21.576  0.00  0.00    -0.248 OA
BRANCH   6   8
ATOM      8  O   UNL     1       9.795   2.160  21.450  0.00  0.00    -0.479 OA
ATOM      9  H   UNL     1      10.300   1.472  20.956  0.00  0.00    +0.295 HD
ENDBRANCH   6   8
ENDBRANCH   1   6
TORSDOF 2
ENDMDL
MODEL 4
REMARK VINA RESULT:      -3.6      1.658      3.599
REMARK  Name = 
REMARK  2 active torsions:
REMARK  status: ('A' for Active; 'I' for Inactive)
REMARK    1  A    between atoms: O_1  and  C_2
REMARK    2  A    between atoms: C_2  and  C_4
REMARK                            x       y       z     vdW  Elec       q    Type
REMARK                         _______ _______ _______ _____ _____    ______ ____
ROOT
ATOM      1  C   UNL     1      10.176  -0.886  22.606  0.00  0.00    +0.226 C 
ATOM      2  O   UNL     1      10.274  -0.060  23.789  0.00  0.00    -0.365 OA
ATOM      3  C   UNL     1      10.169   1.315  23.375  0.00  0.00    +0.161 C 
ATOM      4  C   UNL     1       9.954   1.329  21.875  0.00  0.00    +0.031 C 
ATOM      5  C   UNL     1       9.420  -0.052  21.595  0.00  0.00    +0.045 C 
ENDROOT
BRANCH   1   6
ATOM      6  C   UNL     1       9.462  -2.192  22.928  0.00  0.00    +0.334 C 
ATOM      7  O   UNL     1       8.384  -2.531  22.468  0.00  0.00    -0.248 OA
BRANCH   6   8
ATOM      8  O   UNL     1      10.171  -2.951  23.805  0.00  0.00    -0.479 OA
ATOM      9  H   UNL     1      11.045  -3.146  23.393  0.00  0.00    +0.295 HD
ENDBRANCH   6   8
ENDBRANCH   1   6
TORSDOF 2
ENDMDL
MODEL 5
REMARK VINA RESULT:      -3.5      5.255      6.230
REMARK  Name = 
REMARK  2 active torsions:
REMARK  status: ('A' for Active; 'I' for Inactive)
REMARK    1  A    between atoms: O_1  and  C_2
REMARK    2  A    between atoms: C_2  and  C_4
REMARK                            x       y       z     vdW  Elec       q    Type
REMARK                         _______ _______ _______ _____ _____    ______ ____
ROOT
ATOM      1  C   UNL     1       7.964  -4.518  24.387  0.00  0.00    +0.226 C 
ATOM      2  O   UNL     1       7.555  -5.437  23.349  0.00  0.00    -0.365 OA
ATOM      3  C   UNL     1       7.197  -4.661  22.190  0.00  0.00    +0.161 C 
ATOM      4  C   UNL     1       7.440  -3.202  22.521  0.00  0.00    +0.031 C 
ATOM      5  C   UNL     1       8.421  -3.271  23.663  0.00  0.00    +0.045 C 
ENDROOT
BRANCH   1   6
ATOM      6  C   UNL     1       9.070  -5.133  25.234  0.00  0.00    +0.334 C 
ATOM      7  O   UNL     1      10.265  -5.007  25.021  0.00  0.00    -0.248 OA
BRANCH   6   8
ATOM      8  O   UNL     1       8.569  -5.856  26.270  0.00  0.00    -0.479 OA
ATOM      9  H   UNL     1       7.899  -6.479  25.904  0.00  0.00    +0.295 HD
ENDBRANCH   6   8
ENDBRANCH   1   6
TORSDOF 2
ENDMDL
MODEL 6
REMARK VINA RESULT:      -3.5      6.285      7.096
REMARK  Name = 
REMARK  2 active torsions:
REMARK  status: ('A' for Active; 'I' for Inactive)
REMARK    1  A    between atoms: O_1  and  C_2
REMARK    2  A    between atoms: C_2  and  C_4
REMARK                            x       y       z     vdW  Elec       q    Type
REMARK                         _______ _______ _______ _____ _____    ______ ____
ROOT
ATOM      1  C   UNL     1       7.413  -4.659  25.455  0.00  0.00    +0.226 C 
ATOM      2  O   UNL     1       6.279  -5.478  25.089  0.00  0.00    -0.365 OA
ATOM      3  C   UNL     1       6.184  -5.481  23.652  0.00  0.00    +0.161 C 
ATOM      4  C   UNL     1       7.339  -4.661  23.114  0.00  0.00    +0.031 C 
ATOM      5  C   UNL     1       8.328  -4.678  24.251  0.00  0.00    +0.045 C 
ENDROOT
BRANCH   1   6
ATOM      6  C   UNL     1       8.088  -5.214  26.703  0.00  0.00    +0.334 C 
ATOM      7  O   UNL     1       7.503  -5.730  27.642  0.00  0.00    -0.248 OA
BRANCH   6   8
ATOM      8  O   UNL     1       9.437  -5.065  26.656  0.00  0.00    -0.479 OA
ATOM      9  H   UNL     1       9.717  -5.163  25.716  0.00  0.00    +0.295 HD
ENDBRANCH   6   8
ENDBRANCH   1   6
TORSDOF 2
ENDMDL
MODEL 7
REMARK VINA RESULT:      -3.4      1.771      2.407
REMARK  Name = 
REMARK  2 active torsions:
REMARK  status: ('A' for Active; 'I' for Inactive)
REMARK    1  A    between atoms: O_1  and  C_2
REMARK    2  A    between atoms: C_2  and  C_4
REMARK                            x       y       z     vdW  Elec       q    Type
REMARK                         _______ _______ _______ _____ _____    ______ ____
ROOT
ATOM      1  C   UNL     1       9.463   0.329  23.632  0.00  0.00    +0.226 C 
ATOM      2  O   UNL     1       9.387  -1.051  23.204  0.00  0.00    -0.365 OA
ATOM      3  C   UNL     1       9.191  -1.060  21.778  0.00  0.00    +0.161 C 
ATOM      4  C   UNL     1       9.190   0.380  21.305  0.00  0.00    +0.031 C 
ATOM      5  C   UNL     1       9.913   1.103  22.413  0.00  0.00    +0.045 C 
ENDROOT
BRANCH   1   6
ATOM      6  C   UNL     1      10.432   0.471  24.798  0.00  0.00    +0.334 C 
ATOM      7  O   UNL     1      11.611   0.768  24.694  0.00  0.00    -0.248 OA
BRANCH   6   8
ATOM      8  O   UNL     1       9.828   0.221  25.989  0.00  0.00    -0.479 OA
ATOM      9  H   UNL     1       9.066   0.841  26.075  0.00  0.00    +0.295 HD
ENDBRANCH   6   8
ENDBRANCH   1   6
TORSDOF 2
ENDMDL
MODEL 8
REMARK VINA RESULT:      -3.4      1.736      3.473
REMARK  Name = 
REMARK  2 active torsions:
REMARK  status: ('A' for Active; 'I' for Inactive)
REMARK    1  A    between atoms: O_1  and  C_2
REMARK    2  A    between atoms: C_2  and  C_4
REMARK                            x       y       z     vdW  Elec       q    Type
REMARK                         _______ _______ _______ _____ _____    ______ ____
ROOT
ATOM      1  C   UNL     1      10.475   0.524  23.854  0.00  0.00    +0.226 C 
ATOM      2  O   UNL     1      10.168   1.839  24.371  0.00  0.00    -0.365 OA
ATOM      3  C   UNL     1       9.960   2.716  23.248  0.00  0.00    +0.161 C 
ATOM      4  C   UNL     1      10.105   1.889  21.986  0.00  0.00    +0.031 C 
ATOM      5  C   UNL     1       9.863   0.482  22.472  0.00  0.00    +0.045 C 
ENDROOT
BRANCH   1   6
ATOM      6  C   UNL     1       9.908  -0.552  24.771  0.00  0.00    +0.334 C 
ATOM      7  O   UNL     1       9.683  -1.705  24.439  0.00  0.00    -0.248 OA
BRANCH   6   8
ATOM      8  O   UNL     1       9.673  -0.076  26.022  0.00  0.00    -0.479 OA
ATOM      9  H   UNL     1       8.986  -0.649  26.435  0.00  0.00    +0.295 HD
ENDBRANCH   6   8
ENDBRANCH   1   6
TORSDOF 2
ENDMDL
MODEL 9
REMARK VINA RESULT:      -3.4      1.189      1.712
REMARK  Name = 
REMARK  2 active torsions:
REMARK  status: ('A' for Active; 'I' for Inactive)
REMARK    1  A    between atoms: O_1  and  C_2
REMARK    2  A    between atoms: C_2  and  C_4
REMARK                            x       y       z     vdW  Elec       q    Type
REMARK                         _______ _______ _______ _____ _____    ______ ____
ROOT
ATOM      1  C   UNL     1       9.488   0.344  23.366  0.00  0.00    +0.226 C 
ATOM      2  O   UNL     1       9.614  -1.038  23.776  0.00  0.00    -0.365 OA
ATOM      3  C   UNL     1       9.482  -1.859  22.601  0.00  0.00    +0.161 C 
ATOM      4  C   UNL     1       9.311  -0.936  21.411  0.00  0.00    +0.031 C 
ATOM      5  C   UNL     1       9.884   0.367  21.906  0.00  0.00    +0.045 C 
ENDROOT
BRANCH   1   6
ATOM      6  C   UNL     1      10.379   1.234  24.221  0.00  0.00    +0.334 C 
ATOM      7  O   UNL     1      10.728   2.365  23.924  0.00  0.00    -0.248 OA
BRANCH   6   8
ATOM      8  O   UNL     1      10.753   0.617  25.373  0.00  0.00    -0.479 OA
ATOM      9  H   UNL     1      10.495   1.201  26.123  0.00  0.00    +0.295 HD
ENDBRANCH   6   8
ENDBRANCH   1   6
TORSDOF 2
ENDMDL
