MODEL 1
REMARK VINA RESULT:      -6.3      0.000      0.000
REMARK  Name = 
REMARK  8 active torsions:
REMARK  status: ('A' for Active; 'I' for Inactive)
REMARK    1  A    between atoms: O_1  and  C_2
REMARK    2  A    between atoms: C_2  and  C_3
REMARK    3  A    between atoms: C_6  and  O_8
REMARK    4  A    between atoms: O_8  and  C_9
REMARK    5  A    between atoms: C_14  and  N_15
REMARK    6  A    between atoms: C_18  and  O_20
REMARK    7  A    between atoms: C_21  and  O_23
REMARK    8  A    between atoms: C_24  and  O_26
REMARK                            x       y       z     vdW  Elec       q    Type
REMARK                         _______ _______ _______ _____ _____    ______ ____
ROOT
ATOM      1  C   UNL     1       6.700  -4.262  26.353  0.00  0.00    +0.179 C 
ATOM      2  C   UNL     1       7.756  -5.378  26.286  0.00  0.00    +0.177 C 
ATOM      3  C   UNL     1       9.099  -4.801  25.804  0.00  0.00    +0.180 C 
ATOM      4  C   UNL     1       8.954  -3.955  24.516  0.00  0.00    +0.214 C 
ATOM      5  C   UNL     1       7.880  -2.882  24.818  0.00  0.00    +0.340 C 
ATOM      6  O   UNL     1       6.650  -3.546  25.114  0.00  0.00    -0.331 OA
ENDROOT
BRANCH   2   7
ATOM      7  O   UNL     1       7.871  -5.969  27.585  0.00  0.00    -0.386 OA
ATOM      8  H   UNL     1       7.887  -5.259  28.251  0.00  0.00    +0.210 HD
ENDBRANCH   2   7
BRANCH   3   9
ATOM      9  O   UNL     1      10.054  -5.852  25.625  0.00  0.00    -0.386 OA
ATOM     10  H   UNL     1      10.495  -5.984  26.490  0.00  0.00    +0.210 HD
ENDBRANCH   3   9
BRANCH   4  11
ATOM     11  O   UNL     1      10.249  -3.427  24.202  0.00  0.00    -0.383 OA
ATOM     12  H   UNL     1      10.350  -3.371  23.235  0.00  0.00    +0.210 HD
ENDBRANCH   4  11
BRANCH   1  13
ATOM     13  C   UNL     1       5.312  -4.844  26.659  0.00  0.00    +0.190 C 
BRANCH  13  14
ATOM     14  O   UNL     1       5.313  -6.250  26.402  0.00  0.00    -0.392 OA
ATOM     15  H   UNL     1       6.075  -6.426  25.824  0.00  0.00    +0.210 HD
ENDBRANCH  13  14
ENDBRANCH   1  13
BRANCH   5  16
ATOM     16  O   UNL     1       7.689  -1.926  23.762  0.00  0.00    -0.454 OA
BRANCH  16  17
ATOM     17  C   UNL     1       8.184  -0.657  24.016  0.00  0.00    +0.201 A 
ATOM     18  C   UNL     1       9.146  -0.072  23.172  0.00  0.00    +0.314 A 
ATOM     19  C   UNL     1       9.603   1.249  23.417  0.00  0.00    +0.088 A 
ATOM     20  C   UNL     1       9.127   1.979  24.507  0.00  0.00    +0.007 A 
ATOM     21  C   UNL     1       8.219   1.394  25.369  0.00  0.00    +0.004 A 
ATOM     22  C   UNL     1       7.761   0.093  25.132  0.00  0.00    +0.053 A 
BRANCH  18  23
ATOM     23  N   UNL     1       9.731  -0.770  22.015  0.00  0.00    +0.083 N 
ATOM     24  O   UNL     1       9.335  -0.430  20.887  0.00  0.00    +0.042 OA
ATOM     25  O   UNL     1      10.595  -1.636  22.199  0.00  0.00    -0.576 OA
ENDBRANCH  18  23
ENDBRANCH  16  17
ENDBRANCH   5  16
TORSDOF 8
ENDMDL
MODEL 2
REMARK VINA RESULT:      -6.1      2.805      6.126
REMARK  Name = 
REMARK  8 active torsions:
REMARK  status: ('A' for Active; 'I' for Inactive)
REMARK    1  A    between atoms: O_1  and  C_2
REMARK    2  A    between atoms: C_2  and  C_3
REMARK    3  A    between atoms: C_6  and  O_8
REMARK    4  A    between atoms: O_8  and  C_9
REMARK    5  A    between atoms: C_14  and  N_15
REMARK    6  A    between atoms: C_18  and  O_20
REMARK    7  A    between atoms: C_21  and  O_23
REMARK    8  A    between atoms: C_24  and  O_26
REMARK                            x       y       z     vdW  Elec       q    Type
REMARK                         _______ _______ _______ _____ _____    ______ ____
ROOT
ATOM      1  C   UNL     1       8.464   0.263  22.709  0.00  0.00    +0.179 C 
ATOM      2  C   UNL     1       9.202   0.786  23.953  0.00  0.00    +0.177 C 
ATOM      3  C   UNL     1       9.512  -0.380  24.907  0.00  0.00    +0.180 C 
ATOM      4  C   UNL     1       8.270  -1.255  25.200  0.00  0.00    +0.214 C 
ATOM      5  C   UNL     1       7.715  -1.698  23.824  0.00  0.00    +0.340 C 
ATOM      6  O   UNL     1       7.336  -0.530  23.094  0.00  0.00    -0.331 OA
ENDROOT
BRANCH   2   7
ATOM      7  O   UNL     1      10.396   1.450  23.524  0.00  0.00    -0.386 OA
ATOM      8  H   UNL     1      11.063   0.778  23.299  0.00  0.00    +0.210 HD
ENDBRANCH   2   7
BRANCH   3   9
ATOM      9  O   UNL     1      10.092   0.113  26.120  0.00  0.00    -0.386 OA
ATOM     10  H   UNL     1       9.364   0.186  26.772  0.00  0.00    +0.210 HD
ENDBRANCH   3   9
BRANCH   4  11
ATOM     11  O   UNL     1       8.693  -2.333  26.044  0.00  0.00    -0.383 OA
ATOM     12  H   UNL     1       9.655  -2.458  25.953  0.00  0.00    +0.210 HD
ENDBRANCH   4  11
BRANCH   1  13
ATOM     13  C   UNL     1       7.988   1.429  21.829  0.00  0.00    +0.190 C 
BRANCH  13  14
ATOM     14  O   UNL     1       9.114   2.059  21.214  0.00  0.00    -0.392 OA
ATOM     15  H   UNL     1       9.097   1.804  20.276  0.00  0.00    +0.210 HD
ENDBRANCH  13  14
ENDBRANCH   1  13
BRANCH   5  16
ATOM     16  O   UNL     1       6.613  -2.618  23.901  0.00  0.00    -0.454 OA
BRANCH  16  17
ATOM     17  C   UNL     1       6.672  -3.687  23.022  0.00  0.00    +0.201 A 
ATOM     18  C   UNL     1       7.401  -4.848  23.342  0.00  0.00    +0.314 A 
ATOM     19  C   UNL     1       7.407  -5.955  22.454  0.00  0.00    +0.088 A 
ATOM     20  C   UNL     1       6.715  -5.903  21.243  0.00  0.00    +0.007 A 
ATOM     21  C   UNL     1       6.037  -4.749  20.899  0.00  0.00    +0.004 A 
ATOM     22  C   UNL     1       6.023  -3.655  21.772  0.00  0.00    +0.053 A 
BRANCH  18  23
ATOM     23  N   UNL     1       8.187  -4.989  24.578  0.00  0.00    +0.083 N 
ATOM     24  O   UNL     1       9.417  -4.826  24.492  0.00  0.00    +0.042 OA
ATOM     25  O   UNL     1       7.609  -5.237  25.643  0.00  0.00    -0.576 OA
ENDBRANCH  18  23
ENDBRANCH  16  17
ENDBRANCH   5  16
TORSDOF 8
ENDMDL
MODEL 3
REMARK VINA RESULT:      -5.8      2.616      6.209
REMARK  Name = 
REMARK  8 active torsions:
REMARK  status: ('A' for Active; 'I' for Inactive)
REMARK    1  A    between atoms: O_1  and  C_2
REMARK    2  A    between atoms: C_2  and  C_3
REMARK    3  A    between atoms: C_6  and  O_8
REMARK    4  A    between atoms: O_8  and  C_9
REMARK    5  A    between atoms: C_14  and  N_15
REMARK    6  A    between atoms: C_18  and  O_20
REMARK    7  A    between atoms: C_21  and  O_23
REMARK    8  A    between atoms: C_24  and  O_26
REMARK                            x       y       z     vdW  Elec       q    Type
REMARK                         _______ _______ _______ _____ _____    ______ ____
ROOT
ATOM      1  C   UNL     1       6.849   0.089  23.507  0.00  0.00    +0.179 C 
ATOM      2  C   UNL     1       7.853   1.088  22.907  0.00  0.00    +0.177 C 
ATOM      3  C   UNL     1       8.766   0.372  21.897  0.00  0.00    +0.180 C 
ATOM      4  C   UNL     1       9.391  -0.921  22.473  0.00  0.00    +0.214 C 
ATOM      5  C   UNL     1       8.211  -1.786  22.980  0.00  0.00    +0.340 C 
ATOM      6  O   UNL     1       7.532  -1.065  24.009  0.00  0.00    -0.331 OA
ENDROOT
BRANCH   2   7
ATOM      7  O   UNL     1       7.119   2.154  22.294  0.00  0.00    -0.386 OA
ATOM      8  H   UNL     1       7.543   2.999  22.526  0.00  0.00    +0.210 HD
ENDBRANCH   2   7
BRANCH   3   9
ATOM      9  O   UNL     1       9.778   1.267  21.424  0.00  0.00    -0.386 OA
ATOM     10  H   UNL     1      10.292   1.553  22.207  0.00  0.00    +0.210 HD
ENDBRANCH   3   9
BRANCH   4  11
ATOM     11  O   UNL     1      10.165  -1.526  21.429  0.00  0.00    -0.383 OA
ATOM     12  H   UNL     1       9.710  -2.326  21.111  0.00  0.00    +0.210 HD
ENDBRANCH   4  11
BRANCH   1  13
ATOM     13  C   UNL     1       6.048   0.740  24.645  0.00  0.00    +0.190 C 
BRANCH  13  14
ATOM     14  O   UNL     1       4.957   1.485  24.100  0.00  0.00    -0.392 OA
ATOM     15  H   UNL     1       5.347   2.221  23.598  0.00  0.00    +0.210 HD
ENDBRANCH  13  14
ENDBRANCH   1  13
BRANCH   5  16
ATOM     16  O   UNL     1       8.596  -3.088  23.453  0.00  0.00    -0.454 OA
BRANCH  16  17
ATOM     17  C   UNL     1       7.616  -4.063  23.366  0.00  0.00    +0.201 A 
ATOM     18  C   UNL     1       7.055  -4.632  24.524  0.00  0.00    +0.314 A 
ATOM     19  C   UNL     1       6.014  -5.591  24.417  0.00  0.00    +0.088 A 
ATOM     20  C   UNL     1       5.548  -6.004  23.169  0.00  0.00    +0.007 A 
ATOM     21  C   UNL     1       6.128  -5.487  22.025  0.00  0.00    +0.004 A 
ATOM     22  C   UNL     1       7.151  -4.538  22.123  0.00  0.00    +0.053 A 
BRANCH  18  23
ATOM     23  N   UNL     1       7.497  -4.286  25.885  0.00  0.00    +0.083 N 
ATOM     24  O   UNL     1       6.973  -3.293  26.418  0.00  0.00    +0.042 OA
ATOM     25  O   UNL     1       8.341  -4.992  26.450  0.00  0.00    -0.576 OA
ENDBRANCH  18  23
ENDBRANCH  16  17
ENDBRANCH   5  16
TORSDOF 8
ENDMDL
MODEL 4
REMARK VINA RESULT:      -5.8      2.731      6.249
REMARK  Name = 
REMARK  8 active torsions:
REMARK  status: ('A' for Active; 'I' for Inactive)
REMARK    1  A    between atoms: O_1  and  C_2
REMARK    2  A    between atoms: C_2  and  C_3
REMARK    3  A    between atoms: C_6  and  O_8
REMARK    4  A    between atoms: O_8  and  C_9
REMARK    5  A    between atoms: C_14  and  N_15
REMARK    6  A    between atoms: C_18  and  O_20
REMARK    7  A    between atoms: C_21  and  O_23
REMARK    8  A    between atoms: C_24  and  O_26
REMARK                            x       y       z     vdW  Elec       q    Type
REMARK                         _______ _______ _______ _____ _____    ______ ____
ROOT
ATOM      1  C   UNL     1       9.341  -0.157  24.656  0.00  0.00    +0.179 C 
ATOM      2  C   UNL     1       8.506   0.841  23.835  0.00  0.00    +0.177 C 
ATOM      3  C   UNL     1       7.138   0.225  23.496  0.00  0.00    +0.180 C 
ATOM      4  C   UNL     1       7.259  -1.191  22.883  0.00  0.00    +0.214 C 
ATOM      5  C   UNL     1       8.097  -2.028  23.881  0.00  0.00    +0.340 C 
ATOM      6  O   UNL     1       9.388  -1.428  24.000  0.00  0.00    -0.331 OA
ENDROOT
BRANCH   2   7
ATOM      7  O   UNL     1       8.369   2.047  24.595  0.00  0.00    -0.386 OA
ATOM      8  H   UNL     1       8.376   1.821  25.543  0.00  0.00    +0.210 HD
ENDBRANCH   2   7
BRANCH   3   9
ATOM      9  O   UNL     1       6.402   1.098  22.633  0.00  0.00    -0.386 OA
ATOM     10  H   UNL     1       6.133   1.869  23.174  0.00  0.00    +0.210 HD
ENDBRANCH   3   9
BRANCH   4  11
ATOM     11  O   UNL     1       5.930  -1.681  22.666  0.00  0.00    -0.383 OA
ATOM     12  H   UNL     1       5.585  -2.059  23.495  0.00  0.00    +0.210 HD
ENDBRANCH   4  11
BRANCH   1  13
ATOM     13  C   UNL     1      10.773   0.365  24.854  0.00  0.00    +0.190 C 
BRANCH  13  14
ATOM     14  O   UNL     1      10.971   1.537  24.060  0.00  0.00    -0.392 OA
ATOM     15  H   UNL     1      10.640   2.287  24.584  0.00  0.00    +0.210 HD
ENDBRANCH  13  14
ENDBRANCH   1  13
BRANCH   5  16
ATOM     16  O   UNL     1       8.221  -3.416  23.527  0.00  0.00    -0.454 OA
BRANCH  16  17
ATOM     17  C   UNL     1       7.300  -4.263  24.121  0.00  0.00    +0.201 A 
ATOM     18  C   UNL     1       6.438  -5.055  23.342  0.00  0.00    +0.314 A 
ATOM     19  C   UNL     1       5.537  -5.958  23.966  0.00  0.00    +0.088 A 
ATOM     20  C   UNL     1       5.474  -6.055  25.357  0.00  0.00    +0.007 A 
ATOM     21  C   UNL     1       6.282  -5.244  26.131  0.00  0.00    +0.004 A 
ATOM     22  C   UNL     1       7.176  -4.356  25.522  0.00  0.00    +0.053 A 
BRANCH  18  23
ATOM     23  N   UNL     1       6.407  -5.003  21.871  0.00  0.00    +0.083 N 
ATOM     24  O   UNL     1       7.106  -5.829  21.258  0.00  0.00    +0.042 OA
ATOM     25  O   UNL     1       5.685  -4.173  21.305  0.00  0.00    -0.576 OA
ENDBRANCH  18  23
ENDBRANCH  16  17
ENDBRANCH   5  16
TORSDOF 8
ENDMDL
MODEL 5
REMARK VINA RESULT:      -5.8      2.846      5.857
REMARK  Name = 
REMARK  8 active torsions:
REMARK  status: ('A' for Active; 'I' for Inactive)
REMARK    1  A    between atoms: O_1  and  C_2
REMARK    2  A    between atoms: C_2  and  C_3
REMARK    3  A    between atoms: C_6  and  O_8
REMARK    4  A    between atoms: O_8  and  C_9
REMARK    5  A    between atoms: C_14  and  N_15
REMARK    6  A    between atoms: C_18  and  O_20
REMARK    7  A    between atoms: C_21  and  O_23
REMARK    8  A    between atoms: C_24  and  O_26
REMARK                            x       y       z     vdW  Elec       q    Type
REMARK                         _______ _______ _______ _____ _____    ______ ____
ROOT
ATOM      1  C   UNL     1       8.099  -0.900  25.773  0.00  0.00    +0.179 C 
ATOM      2  C   UNL     1       9.265  -0.014  25.304  0.00  0.00    +0.177 C 
ATOM      3  C   UNL     1       9.745  -0.469  23.916  0.00  0.00    +0.180 C 
ATOM      4  C   UNL     1      10.010  -1.993  23.848  0.00  0.00    +0.214 C 
ATOM      5  C   UNL     1       8.707  -2.682  24.322  0.00  0.00    +0.340 C 
ATOM      6  O   UNL     1       8.450  -2.284  25.670  0.00  0.00    -0.331 OA
ENDROOT
BRANCH   2   7
ATOM      7  O   UNL     1       8.820   1.347  25.290  0.00  0.00    -0.386 OA
ATOM      8  H   UNL     1       7.869   1.362  25.083  0.00  0.00    +0.210 HD
ENDBRANCH   2   7
BRANCH   3   9
ATOM      9  O   UNL     1      10.905   0.272  23.525  0.00  0.00    -0.386 OA
ATOM     10  H   UNL     1      11.440  -0.318  22.954  0.00  0.00    +0.210 HD
ENDBRANCH   3   9
BRANCH   4  11
ATOM     11  O   UNL     1      10.390  -2.303  22.502  0.00  0.00    -0.383 OA
ATOM     12  H   UNL     1      11.048  -1.655  22.193  0.00  0.00    +0.210 HD
ENDBRANCH   4  11
BRANCH   1  13
ATOM     13  C   UNL     1       7.721  -0.579  27.227  0.00  0.00    +0.190 C 
BRANCH  13  14
ATOM     14  O   UNL     1       8.886  -0.170  27.947  0.00  0.00    -0.392 OA
ATOM     15  H   UNL     1       8.957   0.794  27.836  0.00  0.00    +0.210 HD
ENDBRANCH  13  14
ENDBRANCH   1  13
BRANCH   5  16
ATOM     16  O   UNL     1       8.728  -4.116  24.221  0.00  0.00    -0.454 OA
BRANCH  16  17
ATOM     17  C   UNL     1       7.566  -4.693  23.735  0.00  0.00    +0.201 A 
ATOM     18  C   UNL     1       6.566  -5.155  24.609  0.00  0.00    +0.314 A 
ATOM     19  C   UNL     1       5.359  -5.694  24.094  0.00  0.00    +0.088 A 
ATOM     20  C   UNL     1       5.154  -5.799  22.718  0.00  0.00    +0.007 A 
ATOM     21  C   UNL     1       6.152  -5.393  21.851  0.00  0.00    +0.004 A 
ATOM     22  C   UNL     1       7.342  -4.856  22.353  0.00  0.00    +0.053 A 
BRANCH  18  23
ATOM     23  N   UNL     1       6.700  -5.116  26.075  0.00  0.00    +0.083 N 
ATOM     24  O   UNL     1       7.467  -5.943  26.599  0.00  0.00    +0.042 OA
ATOM     25  O   UNL     1       6.075  -4.266  26.722  0.00  0.00    -0.576 OA
ENDBRANCH  18  23
ENDBRANCH  16  17
ENDBRANCH   5  16
TORSDOF 8
ENDMDL
MODEL 6
REMARK VINA RESULT:      -5.7      2.579      6.197
REMARK  Name = 
REMARK  8 active torsions:
REMARK  status: ('A' for Active; 'I' for Inactive)
REMARK    1  A    between atoms: O_1  and  C_2
REMARK    2  A    between atoms: C_2  and  C_3
REMARK    3  A    between atoms: C_6  and  O_8
REMARK    4  A    between atoms: O_8  and  C_9
REMARK    5  A    between atoms: C_14  and  N_15
REMARK    6  A    between atoms: C_18  and  O_20
REMARK    7  A    between atoms: C_21  and  O_23
REMARK    8  A    between atoms: C_24  and  O_26
REMARK                            x       y       z     vdW  Elec       q    Type
REMARK                         _______ _______ _______ _____ _____    ______ ____
ROOT
ATOM      1  C   UNL     1       9.720   0.415  23.045  0.00  0.00    +0.179 C 
ATOM      2  C   UNL     1       8.905   1.079  24.168  0.00  0.00    +0.177 C 
ATOM      3  C   UNL     1       8.994   0.233  25.450  0.00  0.00    +0.180 C 
ATOM      4  C   UNL     1       8.674  -1.260  25.201  0.00  0.00    +0.214 C 
ATOM      5  C   UNL     1       9.625  -1.727  24.071  0.00  0.00    +0.340 C 
ATOM      6  O   UNL     1       9.344  -0.958  22.900  0.00  0.00    -0.331 OA
ENDROOT
BRANCH   2   7
ATOM      7  O   UNL     1       9.411   2.403  24.372  0.00  0.00    -0.386 OA
ATOM      8  H   UNL     1       8.879   2.838  25.062  0.00  0.00    +0.210 HD
ENDBRANCH   2   7
BRANCH   3   9
ATOM      9  O   UNL     1       8.143   0.780  26.464  0.00  0.00    -0.386 OA
ATOM     10  H   UNL     1       7.786   0.022  26.972  0.00  0.00    +0.210 HD
ENDBRANCH   3   9
BRANCH   4  11
ATOM     11  O   UNL     1       8.846  -1.950  26.445  0.00  0.00    -0.383 OA
ATOM     12  H   UNL     1       9.519  -2.646  26.339  0.00  0.00    +0.210 HD
ENDBRANCH   4  11
BRANCH   1  13
ATOM     13  C   UNL     1       9.501   1.145  21.710  0.00  0.00    +0.190 C 
BRANCH  13  14
ATOM     14  O   UNL     1      10.335   2.304  21.655  0.00  0.00    -0.392 OA
ATOM     15  H   UNL     1      10.282   2.727  22.529  0.00  0.00    +0.210 HD
ENDBRANCH  13  14
ENDBRANCH   1  13
BRANCH   5  16
ATOM     16  O   UNL     1       9.546  -3.132  23.778  0.00  0.00    -0.454 OA
BRANCH  16  17
ATOM     17  C   UNL     1       8.271  -3.615  23.534  0.00  0.00    +0.201 A 
ATOM     18  C   UNL     1       7.669  -4.541  24.406  0.00  0.00    +0.314 A 
ATOM     19  C   UNL     1       6.341  -4.986  24.171  0.00  0.00    +0.088 A 
ATOM     20  C   UNL     1       5.623  -4.534  23.063  0.00  0.00    +0.007 A 
ATOM     21  C   UNL     1       6.225  -3.663  22.175  0.00  0.00    +0.004 A 
ATOM     22  C   UNL     1       7.531  -3.217  22.403  0.00  0.00    +0.053 A 
BRANCH  18  23
ATOM     23  N   UNL     1       8.354  -5.100  25.584  0.00  0.00    +0.083 N 
ATOM     24  O   UNL     1       7.918  -4.775  26.702  0.00  0.00    +0.042 OA
ATOM     25  O   UNL     1       9.305  -5.874  25.425  0.00  0.00    -0.576 OA
ENDBRANCH  18  23
ENDBRANCH  16  17
ENDBRANCH   5  16
TORSDOF 8
ENDMDL
MODEL 7
REMARK VINA RESULT:      -5.7      2.461      3.596
REMARK  Name = 
REMARK  8 active torsions:
REMARK  status: ('A' for Active; 'I' for Inactive)
REMARK    1  A    between atoms: O_1  and  C_2
REMARK    2  A    between atoms: C_2  and  C_3
REMARK    3  A    between atoms: C_6  and  O_8
REMARK    4  A    between atoms: O_8  and  C_9
REMARK    5  A    between atoms: C_14  and  N_15
REMARK    6  A    between atoms: C_18  and  O_20
REMARK    7  A    between atoms: C_21  and  O_23
REMARK    8  A    between atoms: C_24  and  O_26
REMARK                            x       y       z     vdW  Elec       q    Type
REMARK                         _______ _______ _______ _____ _____    ______ ____
ROOT
ATOM      1  C   UNL     1       8.844  -3.850  24.799  0.00  0.00    +0.179 C 
ATOM      2  C   UNL     1       7.697  -4.488  23.998  0.00  0.00    +0.177 C 
ATOM      3  C   UNL     1       7.094  -3.456  23.031  0.00  0.00    +0.180 C 
ATOM      4  C   UNL     1       6.742  -2.121  23.732  0.00  0.00    +0.214 C 
ATOM      5  C   UNL     1       8.036  -1.644  24.436  0.00  0.00    +0.340 C 
ATOM      6  O   UNL     1       8.411  -2.626  25.403  0.00  0.00    -0.331 OA
ENDROOT
BRANCH   2   7
ATOM      7  O   UNL     1       8.214  -5.627  23.300  0.00  0.00    -0.386 OA
ATOM      8  H   UNL     1       9.143  -5.758  23.561  0.00  0.00    +0.210 HD
ENDBRANCH   2   7
BRANCH   3   9
ATOM      9  O   UNL     1       5.951  -4.006  22.369  0.00  0.00    -0.386 OA
ATOM     10  H   UNL     1       5.488  -3.259  21.935  0.00  0.00    +0.210 HD
ENDBRANCH   3   9
BRANCH   4  11
ATOM     11  O   UNL     1       6.248  -1.226  22.727  0.00  0.00    -0.383 OA
ATOM     12  H   UNL     1       5.357  -1.506  22.453  0.00  0.00    +0.210 HD
ENDBRANCH   4  11
BRANCH   1  13
ATOM     13  C   UNL     1       9.343  -4.807  25.893  0.00  0.00    +0.190 C 
BRANCH  13  14
ATOM     14  O   UNL     1      10.457  -5.557  25.404  0.00  0.00    -0.392 OA
ATOM     15  H   UNL     1      11.004  -4.939  24.890  0.00  0.00    +0.210 HD
ENDBRANCH  13  14
ENDBRANCH   1  13
BRANCH   5  16
ATOM     16  O   UNL     1       7.928  -0.350  25.053  0.00  0.00    -0.454 OA
BRANCH  16  17
ATOM     17  C   UNL     1       8.784   0.617  24.553  0.00  0.00    +0.201 A 
ATOM     18  C   UNL     1       8.284   1.795  23.968  0.00  0.00    +0.314 A 
ATOM     19  C   UNL     1       9.175   2.800  23.510  0.00  0.00    +0.088 A 
ATOM     20  C   UNL     1      10.556   2.628  23.607  0.00  0.00    +0.007 A 
ATOM     21  C   UNL     1      11.057   1.453  24.135  0.00  0.00    +0.004 A 
ATOM     22  C   UNL     1      10.184   0.460  24.594  0.00  0.00    +0.053 A 
BRANCH  18  23
ATOM     23  N   UNL     1       6.845   2.057  23.793  0.00  0.00    +0.083 N 
ATOM     24  O   UNL     1       6.321   1.664  22.736  0.00  0.00    +0.042 OA
ATOM     25  O   UNL     1       6.216   2.626  24.692  0.00  0.00    -0.576 OA
ENDBRANCH  18  23
ENDBRANCH  16  17
ENDBRANCH   5  16
TORSDOF 8
ENDMDL
MODEL 8
REMARK VINA RESULT:      -5.7      2.372      3.288
REMARK  Name = 
REMARK  8 active torsions:
REMARK  status: ('A' for Active; 'I' for Inactive)
REMARK    1  A    between atoms: O_1  and  C_2
REMARK    2  A    between atoms: C_2  and  C_3
REMARK    3  A    between atoms: C_6  and  O_8
REMARK    4  A    between atoms: O_8  and  C_9
REMARK    5  A    between atoms: C_14  and  N_15
REMARK    6  A    between atoms: C_18  and  O_20
REMARK    7  A    between atoms: C_21  and  O_23
REMARK    8  A    between atoms: C_24  and  O_26
REMARK                            x       y       z     vdW  Elec       q    Type
REMARK                         _______ _______ _______ _____ _____    ______ ____
ROOT
ATOM      1  C   UNL     1       6.542  -4.619  23.007  0.00  0.00    +0.179 C 
ATOM      2  C   UNL     1       6.372  -5.598  24.181  0.00  0.00    +0.177 C 
ATOM      3  C   UNL     1       6.907  -4.961  25.476  0.00  0.00    +0.180 C 
ATOM      4  C   UNL     1       8.331  -4.378  25.307  0.00  0.00    +0.214 C 
ATOM      5  C   UNL     1       8.263  -3.402  24.106  0.00  0.00    +0.340 C 
ATOM      6  O   UNL     1       7.891  -4.144  22.943  0.00  0.00    -0.331 OA
ENDROOT
BRANCH   2   7
ATOM      7  O   UNL     1       4.985  -5.934  24.292  0.00  0.00    -0.386 OA
ATOM      8  H   UNL     1       4.779  -6.629  23.641  0.00  0.00    +0.210 HD
ENDBRANCH   2   7
BRANCH   3   9
ATOM      9  O   UNL     1       6.863  -5.908  26.548  0.00  0.00    -0.386 OA
ATOM     10  H   UNL     1       6.354  -5.490  27.274  0.00  0.00    +0.210 HD
ENDBRANCH   3   9
BRANCH   4  11
ATOM     11  O   UNL     1       8.694  -3.765  26.550  0.00  0.00    -0.383 OA
ATOM     12  H   UNL     1       7.893  -3.605  27.079  0.00  0.00    +0.210 HD
ENDBRANCH   4  11
BRANCH   1  13
ATOM     13  C   UNL     1       6.179  -5.298  21.677  0.00  0.00    +0.190 C 
BRANCH  13  14
ATOM     14  O   UNL     1       6.144  -6.715  21.854  0.00  0.00    -0.392 OA
ATOM     15  H   UNL     1       6.932  -6.950  22.374  0.00  0.00    +0.210 HD
ENDBRANCH  13  14
ENDBRANCH   1  13
BRANCH   5  16
ATOM     16  O   UNL     1       9.480  -2.676  23.868  0.00  0.00    -0.454 OA
BRANCH  16  17
ATOM     17  C   UNL     1       9.319  -1.418  23.311  0.00  0.00    +0.201 A 
ATOM     18  C   UNL     1       8.821  -0.346  24.074  0.00  0.00    +0.314 A 
ATOM     19  C   UNL     1       8.713   0.949  23.504  0.00  0.00    +0.088 A 
ATOM     20  C   UNL     1       9.072   1.176  22.175  0.00  0.00    +0.007 A 
ATOM     21  C   UNL     1       9.515   0.118  21.402  0.00  0.00    +0.004 A 
ATOM     22  C   UNL     1       9.629  -1.160  21.960  0.00  0.00    +0.053 A 
BRANCH  18  23
ATOM     23  N   UNL     1       8.387  -0.489  25.474  0.00  0.00    +0.083 N 
ATOM     24  O   UNL     1       7.167  -0.428  25.700  0.00  0.00    +0.042 OA
ATOM     25  O   UNL     1       9.232  -0.684  26.357  0.00  0.00    -0.576 OA
ENDBRANCH  18  23
ENDBRANCH  16  17
ENDBRANCH   5  16
TORSDOF 8
ENDMDL
MODEL 9
REMARK VINA RESULT:      -5.6      2.424      3.755
REMARK  Name = 
REMARK  8 active torsions:
REMARK  status: ('A' for Active; 'I' for Inactive)
REMARK    1  A    between atoms: O_1  and  C_2
REMARK    2  A    between atoms: C_2  and  C_3
REMARK    3  A    between atoms: C_6  and  O_8
REMARK    4  A    between atoms: O_8  and  C_9
REMARK    5  A    between atoms: C_14  and  N_15
REMARK    6  A    between atoms: C_18  and  O_20
REMARK    7  A    between atoms: C_21  and  O_23
REMARK    8  A    between atoms: C_24  and  O_26
REMARK                            x       y       z     vdW  Elec       q    Type
REMARK                         _______ _______ _______ _____ _____    ______ ____
ROOT
ATOM      1  C   UNL     1       8.568  -3.956  24.010  0.00  0.00    +0.179 C 
ATOM      2  C   UNL     1       7.535  -4.947  23.447  0.00  0.00    +0.177 C 
ATOM      3  C   UNL     1       6.746  -4.289  22.302  0.00  0.00    +0.180 C 
ATOM      4  C   UNL     1       6.182  -2.901  22.690  0.00  0.00    +0.214 C 
ATOM      5  C   UNL     1       7.386  -2.065  23.188  0.00  0.00    +0.340 C 
ATOM      6  O   UNL     1       7.940  -2.711  24.335  0.00  0.00    -0.331 OA
ENDROOT
BRANCH   2   7
ATOM      7  O   UNL     1       8.228  -6.120  23.006  0.00  0.00    -0.386 OA
ATOM      8  H   UNL     1       8.264  -6.757  23.743  0.00  0.00    +0.210 HD
ENDBRANCH   2   7
BRANCH   3   9
ATOM      9  O   UNL     1       5.705  -5.161  21.852  0.00  0.00    -0.386 OA
ATOM     10  H   UNL     1       6.135  -5.995  21.570  0.00  0.00    +0.210 HD
ENDBRANCH   3   9
BRANCH   4  11
ATOM     11  O   UNL     1       5.525  -2.366  21.534  0.00  0.00    -0.383 OA
ATOM     12  H   UNL     1       4.651  -2.020  21.788  0.00  0.00    +0.210 HD
ENDBRANCH   4  11
BRANCH   1  13
ATOM     13  C   UNL     1       9.242  -4.528  25.267  0.00  0.00    +0.190 C 
BRANCH  13  14
ATOM     14  O   UNL     1      10.384  -5.301  24.891  0.00  0.00    -0.392 OA
ATOM     15  H   UNL     1      10.568  -5.903  25.632  0.00  0.00    +0.210 HD
ENDBRANCH  13  14
ENDBRANCH   1  13
BRANCH   5  16
ATOM     16  O   UNL     1       7.067  -0.696  23.491  0.00  0.00    -0.454 OA
BRANCH  16  17
ATOM     17  C   UNL     1       8.117   0.199  23.361  0.00  0.00    +0.201 A 
ATOM     18  C   UNL     1       8.771   0.717  24.493  0.00  0.00    +0.314 A 
ATOM     19  C   UNL     1       9.879   1.591  24.341  0.00  0.00    +0.088 A 
ATOM     20  C   UNL     1      10.320   1.970  23.073  0.00  0.00    +0.007 A 
ATOM     21  C   UNL     1       9.652   1.505  21.955  0.00  0.00    +0.004 A 
ATOM     22  C   UNL     1       8.562   0.640  22.098  0.00  0.00    +0.053 A 
BRANCH  18  23
ATOM     23  N   UNL     1       8.363   0.402  25.872  0.00  0.00    +0.083 N 
ATOM     24  O   UNL     1       7.434   1.070  26.357  0.00  0.00    +0.042 OA
ATOM     25  O   UNL     1       8.931  -0.513  26.482  0.00  0.00    -0.576 OA
ENDBRANCH  18  23
ENDBRANCH  16  17
ENDBRANCH   5  16
TORSDOF 8
ENDMDL
