MODEL 1
REMARK VINA RESULT:      -6.5      0.000      0.000
REMARK  Name = 
REMARK  2 active torsions:
REMARK  status: ('A' for Active; 'I' for Inactive)
REMARK    1  A    between atoms: C_1  and  C_2
REMARK    2  A    between atoms: N_4  and  C_5
REMARK                            x       y       z     vdW  Elec       q    Type
REMARK                         _______ _______ _______ _____ _____    ______ ____
ROOT
ATOM      1  C   UNL     1       7.942  -2.891  22.773  0.00  0.00    +0.043 A 
ATOM      2  C   UNL     1       8.580  -1.991  21.925  0.00  0.00    +0.034 A 
ATOM      3  C   UNL     1       8.944  -0.724  22.382  0.00  0.00    +0.004 A 
ATOM      4  C   UNL     1       8.701  -0.344  23.723  0.00  0.00    +0.097 A 
ATOM      5  N   UNL     1       9.080   0.890  24.147  0.00  0.00    -0.253 NA
ATOM      6  C   UNL     1       9.676   1.744  23.289  0.00  0.00    +0.111 A 
ATOM      7  C   UNL     1       9.931   1.444  21.969  0.00  0.00    +0.020 A 
ATOM      8  C   UNL     1       8.074  -1.258  24.592  0.00  0.00    +0.099 A 
ATOM      9  N   UNL     1       7.867  -0.920  25.892  0.00  0.00    -0.253 NA
ATOM     10  C   UNL     1       7.302  -1.800  26.740  0.00  0.00    +0.111 A 
ATOM     11  C   UNL     1       6.888  -3.054  26.364  0.00  0.00    +0.020 A 
ATOM     12  C   UNL     1       7.073  -3.418  25.040  0.00  0.00    +0.013 A 
ATOM     13  C   UNL     1       9.556   0.191  21.511  0.00  0.00    +0.011 A 
ATOM     14  C   UNL     1       7.673  -2.533  24.115  0.00  0.00    +0.024 A 
ENDROOT
BRANCH   1  17
ATOM     15  C   UNL     1       6.143  -5.760  21.158  0.00  0.00    +0.109 C 
ATOM     16  C   UNL     1       6.321  -4.348  21.647  0.00  0.00    +0.214 C 
ATOM     17  N   UNL     1       7.542  -4.151  22.268  0.00  0.00    -0.285 N 
ATOM     18  H   UNL     1       8.269  -4.814  22.039  0.00  0.00    +0.155 HD
ATOM     19  O   UNL     1       5.461  -3.491  21.472  0.00  0.00    -0.276 OA
ENDBRANCH   1  17
TORSDOF 1
ENDMDL
MODEL 2
REMARK VINA RESULT:      -6.1      2.413      4.395
REMARK  Name = 
REMARK  2 active torsions:
REMARK  status: ('A' for Active; 'I' for Inactive)
REMARK    1  A    between atoms: C_1  and  C_2
REMARK    2  A    between atoms: N_4  and  C_5
REMARK                            x       y       z     vdW  Elec       q    Type
REMARK                         _______ _______ _______ _____ _____    ______ ____
ROOT
ATOM      1  C   UNL     1       6.875  -3.724  25.513  0.00  0.00    +0.043 A 
ATOM      2  C   UNL     1       7.735  -2.642  25.673  0.00  0.00    +0.034 A 
ATOM      3  C   UNL     1       8.481  -2.166  24.594  0.00  0.00    +0.004 A 
ATOM      4  C   UNL     1       8.351  -2.752  23.312  0.00  0.00    +0.097 A 
ATOM      5  N   UNL     1       9.077  -2.259  22.276  0.00  0.00    -0.253 NA
ATOM      6  C   UNL     1       9.919  -1.223  22.475  0.00  0.00    +0.111 A 
ATOM      7  C   UNL     1      10.104  -0.614  23.696  0.00  0.00    +0.020 A 
ATOM      8  C   UNL     1       7.467  -3.835  23.140  0.00  0.00    +0.099 A 
ATOM      9  N   UNL     1       7.305  -4.384  21.907  0.00  0.00    -0.253 NA
ATOM     10  C   UNL     1       6.434  -5.394  21.724  0.00  0.00    +0.111 A 
ATOM     11  C   UNL     1       5.685  -5.941  22.737  0.00  0.00    +0.020 A 
ATOM     12  C   UNL     1       5.842  -5.409  24.007  0.00  0.00    +0.013 A 
ATOM     13  C   UNL     1       9.373  -1.097  24.771  0.00  0.00    +0.011 A 
ATOM     14  C   UNL     1       6.736  -4.340  24.247  0.00  0.00    +0.024 A 
ENDROOT
BRANCH   1  17
ATOM     15  C   UNL     1       5.781  -5.484  28.641  0.00  0.00    +0.109 C 
ATOM     16  C   UNL     1       6.706  -5.151  27.502  0.00  0.00    +0.214 C 
ATOM     17  N   UNL     1       6.167  -4.215  26.635  0.00  0.00    -0.285 N 
ATOM     18  H   UNL     1       5.426  -3.639  27.009  0.00  0.00    +0.155 HD
ATOM     19  O   UNL     1       7.818  -5.659  27.404  0.00  0.00    -0.276 OA
ENDBRANCH   1  17
TORSDOF 1
ENDMDL
MODEL 3
REMARK VINA RESULT:      -6.1      1.647      1.647
REMARK  Name = 
REMARK  2 active torsions:
REMARK  status: ('A' for Active; 'I' for Inactive)
REMARK    1  A    between atoms: C_1  and  C_2
REMARK    2  A    between atoms: N_4  and  C_5
REMARK                            x       y       z     vdW  Elec       q    Type
REMARK                         _______ _______ _______ _____ _____    ______ ____
ROOT
ATOM      1  C   UNL     1       7.350  -2.351  22.627  0.00  0.00    +0.043 A 
ATOM      2  C   UNL     1       8.380  -1.663  21.995  0.00  0.00    +0.034 A 
ATOM      3  C   UNL     1       8.695  -0.357  22.372  0.00  0.00    +0.004 A 
ATOM      4  C   UNL     1       7.995   0.278  23.426  0.00  0.00    +0.097 A 
ATOM      5  N   UNL     1       8.331   1.544  23.784  0.00  0.00    -0.253 NA
ATOM      6  C   UNL     1       9.322   2.188  23.132  0.00  0.00    +0.111 A 
ATOM      7  C   UNL     1      10.034   1.637  22.090  0.00  0.00    +0.020 A 
ATOM      8  C   UNL     1       6.964  -0.422  24.083  0.00  0.00    +0.099 A 
ATOM      9  N   UNL     1       6.308   0.162  25.121  0.00  0.00    -0.253 NA
ATOM     10  C   UNL     1       5.347  -0.513  25.780  0.00  0.00    +0.111 A 
ATOM     11  C   UNL     1       4.957  -1.788  25.454  0.00  0.00    +0.020 A 
ATOM     12  C   UNL     1       5.599  -2.400  24.389  0.00  0.00    +0.013 A 
ATOM     13  C   UNL     1       9.712   0.344  21.706  0.00  0.00    +0.011 A 
ATOM     14  C   UNL     1       6.623  -1.737  23.674  0.00  0.00    +0.024 A 
ENDROOT
BRANCH   1  17
ATOM     15  C   UNL     1       7.057  -6.060  22.142  0.00  0.00    +0.109 C 
ATOM     16  C   UNL     1       7.597  -4.790  22.741  0.00  0.00    +0.214 C 
ATOM     17  N   UNL     1       7.023  -3.657  22.191  0.00  0.00    -0.285 N 
ATOM     18  H   UNL     1       6.129  -3.788  21.738  0.00  0.00    +0.155 HD
ATOM     19  O   UNL     1       8.436  -4.803  23.637  0.00  0.00    -0.276 OA
ENDBRANCH   1  17
TORSDOF 1
ENDMDL
MODEL 4
REMARK VINA RESULT:      -6.0      2.282      2.699
REMARK  Name = 
REMARK  2 active torsions:
REMARK  status: ('A' for Active; 'I' for Inactive)
REMARK    1  A    between atoms: C_1  and  C_2
REMARK    2  A    between atoms: N_4  and  C_5
REMARK                            x       y       z     vdW  Elec       q    Type
REMARK                         _______ _______ _______ _____ _____    ______ ____
ROOT
ATOM      1  C   UNL     1       6.321  -2.825  24.140  0.00  0.00    +0.043 A 
ATOM      2  C   UNL     1       6.498  -1.682  23.366  0.00  0.00    +0.034 A 
ATOM      3  C   UNL     1       7.780  -1.250  23.024  0.00  0.00    +0.004 A 
ATOM      4  C   UNL     1       8.920  -1.984  23.429  0.00  0.00    +0.097 A 
ATOM      5  N   UNL     1      10.156  -1.550  23.069  0.00  0.00    -0.253 NA
ATOM      6  C   UNL     1      10.288  -0.424  22.337  0.00  0.00    +0.111 A 
ATOM      7  C   UNL     1       9.224   0.344  21.920  0.00  0.00    +0.020 A 
ATOM      8  C   UNL     1       8.747  -3.153  24.196  0.00  0.00    +0.099 A 
ATOM      9  N   UNL     1       9.831  -3.887  24.562  0.00  0.00    -0.253 NA
ATOM     10  C   UNL     1       9.673  -5.026  25.262  0.00  0.00    +0.111 A 
ATOM     11  C   UNL     1       8.451  -5.504  25.664  0.00  0.00    +0.020 A 
ATOM     12  C   UNL     1       7.330  -4.766  25.318  0.00  0.00    +0.013 A 
ATOM     13  C   UNL     1       7.951  -0.077  22.272  0.00  0.00    +0.011 A 
ATOM     14  C   UNL     1       7.443  -3.570  24.572  0.00  0.00    +0.024 A 
ENDROOT
BRANCH   1  17
ATOM     15  C   UNL     1       2.888  -4.324  24.338  0.00  0.00    +0.109 C 
ATOM     16  C   UNL     1       4.219  -4.015  23.710  0.00  0.00    +0.214 C 
ATOM     17  N   UNL     1       5.012  -3.212  24.511  0.00  0.00    -0.285 N 
ATOM     18  H   UNL     1       4.785  -3.205  25.496  0.00  0.00    +0.155 HD
ATOM     19  O   UNL     1       4.538  -4.468  22.615  0.00  0.00    -0.276 OA
ENDBRANCH   1  17
TORSDOF 1
ENDMDL
MODEL 5
REMARK VINA RESULT:      -5.9      2.740      6.366
REMARK  Name = 
REMARK  2 active torsions:
REMARK  status: ('A' for Active; 'I' for Inactive)
REMARK    1  A    between atoms: C_1  and  C_2
REMARK    2  A    between atoms: N_4  and  C_5
REMARK                            x       y       z     vdW  Elec       q    Type
REMARK                         _______ _______ _______ _____ _____    ______ ____
ROOT
ATOM      1  C   UNL     1       7.409  -3.393  24.699  0.00  0.00    +0.043 A 
ATOM      2  C   UNL     1       7.240  -3.646  26.057  0.00  0.00    +0.034 A 
ATOM      3  C   UNL     1       6.456  -4.718  26.485  0.00  0.00    +0.004 A 
ATOM      4  C   UNL     1       5.846  -5.584  25.547  0.00  0.00    +0.097 A 
ATOM      5  N   UNL     1       5.101  -6.630  25.990  0.00  0.00    -0.253 NA
ATOM      6  C   UNL     1       4.941  -6.830  27.315  0.00  0.00    +0.111 A 
ATOM      7  C   UNL     1       5.494  -6.019  28.281  0.00  0.00    +0.020 A 
ATOM      8  C   UNL     1       6.031  -5.345  24.171  0.00  0.00    +0.099 A 
ATOM      9  N   UNL     1       5.481  -6.190  23.260  0.00  0.00    -0.253 NA
ATOM     10  C   UNL     1       5.683  -5.992  21.943  0.00  0.00    +0.111 A 
ATOM     11  C   UNL     1       6.415  -4.946  21.439  0.00  0.00    +0.020 A 
ATOM     12  C   UNL     1       6.973  -4.060  22.346  0.00  0.00    +0.013 A 
ATOM     13  C   UNL     1       6.262  -4.945  27.856  0.00  0.00    +0.011 A 
ATOM     14  C   UNL     1       6.800  -4.233  23.739  0.00  0.00    +0.024 A 
ENDROOT
BRANCH   1  17
ATOM     15  C   UNL     1      10.102  -1.040  23.563  0.00  0.00    +0.109 C 
ATOM     16  C   UNL     1       9.523  -2.354  24.012  0.00  0.00    +0.214 C 
ATOM     17  N   UNL     1       8.171  -2.270  24.296  0.00  0.00    -0.285 N 
ATOM     18  H   UNL     1       7.676  -1.497  23.874  0.00  0.00    +0.155 HD
ATOM     19  O   UNL     1      10.207  -3.371  24.081  0.00  0.00    -0.276 OA
ENDBRANCH   1  17
TORSDOF 1
ENDMDL
MODEL 6
REMARK VINA RESULT:      -5.9      2.556      5.815
REMARK  Name = 
REMARK  2 active torsions:
REMARK  status: ('A' for Active; 'I' for Inactive)
REMARK    1  A    between atoms: C_1  and  C_2
REMARK    2  A    between atoms: N_4  and  C_5
REMARK                            x       y       z     vdW  Elec       q    Type
REMARK                         _______ _______ _______ _____ _____    ______ ____
ROOT
ATOM      1  C   UNL     1       8.648  -0.121  25.453  0.00  0.00    +0.043 A 
ATOM      2  C   UNL     1       8.484  -1.211  26.302  0.00  0.00    +0.034 A 
ATOM      3  C   UNL     1       8.617  -2.513  25.816  0.00  0.00    +0.004 A 
ATOM      4  C   UNL     1       8.953  -2.746  24.461  0.00  0.00    +0.097 A 
ATOM      5  N   UNL     1       9.093  -4.022  24.017  0.00  0.00    -0.253 NA
ATOM      6  C   UNL     1       8.903  -5.054  24.865  0.00  0.00    +0.111 A 
ATOM      7  C   UNL     1       8.562  -4.900  26.191  0.00  0.00    +0.020 A 
ATOM      8  C   UNL     1       9.140  -1.645  23.602  0.00  0.00    +0.099 A 
ATOM      9  N   UNL     1       9.499  -1.853  22.307  0.00  0.00    -0.253 NA
ATOM     10  C   UNL     1       9.717  -0.807  21.488  0.00  0.00    +0.111 A 
ATOM     11  C   UNL     1       9.579   0.502  21.878  0.00  0.00    +0.020 A 
ATOM     12  C   UNL     1       9.198   0.742  23.189  0.00  0.00    +0.013 A 
ATOM     13  C   UNL     1       8.416  -3.608  26.670  0.00  0.00    +0.011 A 
ATOM     14  C   UNL     1       8.970  -0.324  24.091  0.00  0.00    +0.024 A 
ENDROOT
BRANCH   1  17
ATOM     15  C   UNL     1       7.272   3.177  26.596  0.00  0.00    +0.109 C 
ATOM     16  C   UNL     1       7.227   1.813  25.963  0.00  0.00    +0.214 C 
ATOM     17  N   UNL     1       8.460   1.185  25.963  0.00  0.00    -0.285 N 
ATOM     18  H   UNL     1       9.129   1.523  26.641  0.00  0.00    +0.155 HD
ATOM     19  O   UNL     1       6.183   1.336  25.529  0.00  0.00    -0.276 OA
ENDBRANCH   1  17
TORSDOF 1
ENDMDL
MODEL 7
REMARK VINA RESULT:      -5.7      3.306      5.699
REMARK  Name = 
REMARK  2 active torsions:
REMARK  status: ('A' for Active; 'I' for Inactive)
REMARK    1  A    between atoms: C_1  and  C_2
REMARK    2  A    between atoms: N_4  and  C_5
REMARK                            x       y       z     vdW  Elec       q    Type
REMARK                         _______ _______ _______ _____ _____    ______ ____
ROOT
ATOM      1  C   UNL     1       8.646   2.993  23.330  0.00  0.00    +0.043 A 
ATOM      2  C   UNL     1       9.210   2.091  22.433  0.00  0.00    +0.034 A 
ATOM      3  C   UNL     1       9.356   0.747  22.779  0.00  0.00    +0.004 A 
ATOM      4  C   UNL     1       8.903   0.272  24.033  0.00  0.00    +0.097 A 
ATOM      5  N   UNL     1       9.043  -1.044  24.339  0.00  0.00    -0.253 NA
ATOM      6  C   UNL     1       9.616  -1.884  23.452  0.00  0.00    +0.111 A 
ATOM      7  C   UNL     1      10.090  -1.487  22.221  0.00  0.00    +0.020 A 
ATOM      8  C   UNL     1       8.313   1.177  24.937  0.00  0.00    +0.099 A 
ATOM      9  N   UNL     1       7.841   0.728  26.130  0.00  0.00    -0.253 NA
ATOM     10  C   UNL     1       7.241   1.578  26.985  0.00  0.00    +0.111 A 
ATOM     11  C   UNL     1       7.084   2.918  26.734  0.00  0.00    +0.020 A 
ATOM     12  C   UNL     1       7.571   3.406  25.532  0.00  0.00    +0.013 A 
ATOM     13  C   UNL     1       9.958  -0.149  21.883  0.00  0.00    +0.011 A 
ATOM     14  C   UNL     1       8.198   2.550  24.596  0.00  0.00    +0.024 A 
ENDROOT
BRANCH   1  17
ATOM     15  C   UNL     1       7.548   6.377  22.136  0.00  0.00    +0.109 C 
ATOM     16  C   UNL     1       7.421   4.899  22.386  0.00  0.00    +0.214 C 
ATOM     17  N   UNL     1       8.554   4.359  22.970  0.00  0.00    -0.285 N 
ATOM     18  H   UNL     1       9.159   5.010  23.451  0.00  0.00    +0.155 HD
ATOM     19  O   UNL     1       6.397   4.282  22.110  0.00  0.00    -0.276 OA
ENDBRANCH   1  17
TORSDOF 1
ENDMDL
MODEL 8
REMARK VINA RESULT:      -5.7      4.220      6.751
REMARK  Name = 
REMARK  2 active torsions:
REMARK  status: ('A' for Active; 'I' for Inactive)
REMARK    1  A    between atoms: C_1  and  C_2
REMARK    2  A    between atoms: N_4  and  C_5
REMARK                            x       y       z     vdW  Elec       q    Type
REMARK                         _______ _______ _______ _____ _____    ______ ____
ROOT
ATOM      1  C   UNL     1       3.992  -6.808  24.162  0.00  0.00    +0.043 A 
ATOM      2  C   UNL     1       3.857  -7.025  25.529  0.00  0.00    +0.034 A 
ATOM      3  C   UNL     1       4.853  -6.608  26.413  0.00  0.00    +0.004 A 
ATOM      4  C   UNL     1       6.000  -5.928  25.939  0.00  0.00    +0.097 A 
ATOM      5  N   UNL     1       6.947  -5.518  26.823  0.00  0.00    -0.253 NA
ATOM      6  C   UNL     1       6.792  -5.768  28.140  0.00  0.00    +0.111 A 
ATOM      7  C   UNL     1       5.709  -6.435  28.668  0.00  0.00    +0.020 A 
ATOM      8  C   UNL     1       6.132  -5.687  24.557  0.00  0.00    +0.099 A 
ATOM      9  N   UNL     1       7.210  -5.004  24.092  0.00  0.00    -0.253 NA
ATOM     10  C   UNL     1       7.327  -4.735  22.778  0.00  0.00    +0.111 A 
ATOM     11  C   UNL     1       6.409  -5.136  21.839  0.00  0.00    +0.020 A 
ATOM     12  C   UNL     1       5.307  -5.849  22.285  0.00  0.00    +0.013 A 
ATOM     13  C   UNL     1       4.726  -6.861  27.788  0.00  0.00    +0.011 A 
ATOM     14  C   UNL     1       5.134  -6.144  23.657  0.00  0.00    +0.024 A 
ENDROOT
BRANCH   1  17
ATOM     15  C   UNL     1       0.992  -7.224  21.947  0.00  0.00    +0.109 C 
ATOM     16  C   UNL     1       1.895  -6.517  22.920  0.00  0.00    +0.214 C 
ATOM     17  N   UNL     1       2.988  -7.284  23.285  0.00  0.00    -0.285 N 
ATOM     18  H   UNL     1       3.238  -8.031  22.651  0.00  0.00    +0.155 HD
ATOM     19  O   UNL     1       1.664  -5.375  23.304  0.00  0.00    -0.276 OA
ENDBRANCH   1  17
TORSDOF 1
ENDMDL
MODEL 9
REMARK VINA RESULT:      -5.7      3.288      4.560
REMARK  Name = 
REMARK  2 active torsions:
REMARK  status: ('A' for Active; 'I' for Inactive)
REMARK    1  A    between atoms: C_1  and  C_2
REMARK    2  A    between atoms: N_4  and  C_5
REMARK                            x       y       z     vdW  Elec       q    Type
REMARK                         _______ _______ _______ _____ _____    ______ ____
ROOT
ATOM      1  C   UNL     1       5.226  -6.019  24.381  0.00  0.00    +0.043 A 
ATOM      2  C   UNL     1       6.002  -5.260  23.511  0.00  0.00    +0.034 A 
ATOM      3  C   UNL     1       7.039  -4.464  23.999  0.00  0.00    +0.004 A 
ATOM      4  C   UNL     1       7.341  -4.441  25.381  0.00  0.00    +0.097 A 
ATOM      5  N   UNL     1       8.366  -3.670  25.828  0.00  0.00    -0.253 NA
ATOM      6  C   UNL     1       9.082  -2.929  24.956  0.00  0.00    +0.111 A 
ATOM      7  C   UNL     1       8.835  -2.895  23.602  0.00  0.00    +0.020 A 
ATOM      8  C   UNL     1       6.572  -5.223  26.264  0.00  0.00    +0.099 A 
ATOM      9  N   UNL     1       6.873  -5.238  27.589  0.00  0.00    -0.253 NA
ATOM     10  C   UNL     1       6.168  -6.012  28.437  0.00  0.00    +0.111 A 
ATOM     11  C   UNL     1       5.115  -6.800  28.043  0.00  0.00    +0.020 A 
ATOM     12  C   UNL     1       4.776  -6.790  26.699  0.00  0.00    +0.013 A 
ATOM     13  C   UNL     1       7.795  -3.675  23.119  0.00  0.00    +0.011 A 
ATOM     14  C   UNL     1       5.495  -6.004  25.769  0.00  0.00    +0.024 A 
ENDROOT
BRANCH   1  17
ATOM     15  C   UNL     1       1.974  -7.211  22.937  0.00  0.00    +0.109 C 
ATOM     16  C   UNL     1       2.943  -6.207  23.500  0.00  0.00    +0.214 C 
ATOM     17  N   UNL     1       4.151  -6.779  23.863  0.00  0.00    -0.285 N 
ATOM     18  H   UNL     1       4.371  -7.664  23.426  0.00  0.00    +0.155 HD
ATOM     19  O   UNL     1       2.662  -5.016  23.588  0.00  0.00    -0.276 OA
ENDBRANCH   1  17
TORSDOF 1
ENDMDL
