MODEL 1
REMARK VINA RESULT:      -6.4      0.000      0.000
REMARK  Name = 
REMARK  6 active torsions:
REMARK  status: ('A' for Active; 'I' for Inactive)
REMARK    1  A    between atoms: C_2  and  C_3
REMARK    2  A    between atoms: C_2  and  N_4
REMARK    3  A    between atoms: C_2  and  C_18
REMARK    4  A    between atoms: N_4  and  C_5
REMARK    5  A    between atoms: C_6  and  N_7
REMARK    6  A    between atoms: N_7  and  C_8
REMARK                            x       y       z     vdW  Elec       q    Type
REMARK                         _______ _______ _______ _____ _____    ______ ____
ROOT
ATOM      1  C   UNL     1       7.744  -2.586  22.349  0.00  0.00    +0.104 C 
ATOM      2  C   UNL     1       7.087  -3.897  22.582  0.00  0.00    +0.250 C 
ATOM      3  O   UNL     1       7.347  -5.074  22.532  0.00  0.00    -0.282 OA
ATOM      4  C   UNL     1       5.876  -3.149  23.012  0.00  0.00    +0.250 C 
ATOM      5  O   UNL     1       4.777  -3.523  23.350  0.00  0.00    -0.282 OA
ATOM      6  C   UNL     1       6.652  -1.896  22.815  0.00  0.00    +0.108 C 
ENDROOT
BRANCH   1   7
ATOM      7  N   UNL     1       8.936  -2.257  21.892  0.00  0.00    -0.333 N 
ATOM      8  H   UNL     1       9.289  -2.707  21.047  0.00  0.00    +0.147 HD
BRANCH   7   9
ATOM      9  C   UNL     1      10.037  -1.862  22.781  0.00  0.00    +0.098 C 
ATOM     10  C   UNL     1       9.793  -2.554  24.125  0.00  0.00    +0.033 C 
BRANCH   9  11
ATOM     11  C   UNL     1      10.131  -0.351  22.922  0.00  0.00    -0.028 A 
ATOM     12  C   UNL     1       9.776   0.480  21.843  0.00  0.00    +0.005 A 
ATOM     13  C   UNL     1       9.867   1.871  21.946  0.00  0.00    +0.000 A 
ATOM     14  C   UNL     1      10.309   2.458  23.130  0.00  0.00    +0.000 A 
ATOM     15  C   UNL     1      10.670   1.652  24.206  0.00  0.00    +0.000 A 
ATOM     16  C   UNL     1      10.584   0.260  24.104  0.00  0.00    +0.005 A 
ENDBRANCH   9  11
ENDBRANCH   7   9
ENDBRANCH   1   7
BRANCH   6  17
ATOM     17  N   UNL     1       6.394  -0.627  23.014  0.00  0.00    -0.310 N 
ATOM     18  H   UNL     1       5.855  -0.139  22.295  0.00  0.00    +0.152 HD
BRANCH  17  19
ATOM     19  C   UNL     1       6.720   0.244  24.076  0.00  0.00    +0.034 A 
ATOM     20  C   UNL     1       7.174  -0.179  25.320  0.00  0.00    +0.043 A 
ATOM     21  C   UNL     1       7.510   0.774  26.273  0.00  0.00    +0.112 A 
ATOM     22  N   UNL     1       7.442   2.104  26.066  0.00  0.00    -0.263 NA
ATOM     23  C   UNL     1       7.022   2.502  24.857  0.00  0.00    +0.112 A 
ATOM     24  C   UNL     1       6.654   1.626  23.840  0.00  0.00    +0.043 A 
ENDBRANCH  17  19
ENDBRANCH   6  17
TORSDOF 5
ENDMDL
MODEL 2
REMARK VINA RESULT:      -6.0      2.909      4.329
REMARK  Name = 
REMARK  6 active torsions:
REMARK  status: ('A' for Active; 'I' for Inactive)
REMARK    1  A    between atoms: C_2  and  C_3
REMARK    2  A    between atoms: C_2  and  N_4
REMARK    3  A    between atoms: C_2  and  C_18
REMARK    4  A    between atoms: N_4  and  C_5
REMARK    5  A    between atoms: C_6  and  N_7
REMARK    6  A    between atoms: N_7  and  C_8
REMARK                            x       y       z     vdW  Elec       q    Type
REMARK                         _______ _______ _______ _____ _____    ______ ____
ROOT
ATOM      1  C   UNL     1       7.265  -1.938  23.118  0.00  0.00    +0.104 C 
ATOM      2  C   UNL     1       6.575  -0.705  23.574  0.00  0.00    +0.250 C 
ATOM      3  O   UNL     1       6.576   0.481  23.354  0.00  0.00    -0.282 OA
ATOM      4  C   UNL     1       5.740  -1.567  24.452  0.00  0.00    +0.250 C 
ATOM      5  O   UNL     1       4.881  -1.300  25.261  0.00  0.00    -0.282 OA
ATOM      6  C   UNL     1       6.446  -2.740  23.873  0.00  0.00    +0.108 C 
ENDROOT
BRANCH   1   7
ATOM      7  N   UNL     1       8.264  -2.140  22.282  0.00  0.00    -0.333 N 
ATOM      8  H   UNL     1       8.193  -2.883  21.587  0.00  0.00    +0.147 HD
BRANCH   7   9
ATOM      9  C   UNL     1       9.664  -1.899  22.658  0.00  0.00    +0.098 C 
ATOM     10  C   UNL     1       9.923  -2.698  23.939  0.00  0.00    +0.033 C 
BRANCH   9  11
ATOM     11  C   UNL     1       9.951  -0.417  22.838  0.00  0.00    -0.028 A 
ATOM     12  C   UNL     1      10.406   0.066  24.079  0.00  0.00    +0.005 A 
ATOM     13  C   UNL     1      10.664   1.426  24.271  0.00  0.00    +0.000 A 
ATOM     14  C   UNL     1      10.476   2.329  23.226  0.00  0.00    +0.000 A 
ATOM     15  C   UNL     1      10.021   1.871  21.993  0.00  0.00    +0.000 A 
ATOM     16  C   UNL     1       9.758   0.511  21.800  0.00  0.00    +0.005 A 
ENDBRANCH   9  11
ENDBRANCH   7   9
ENDBRANCH   1   7
BRANCH   6  17
ATOM     17  N   UNL     1       6.328  -4.037  24.023  0.00  0.00    -0.310 N 
ATOM     18  H   UNL     1       6.265  -4.603  23.174  0.00  0.00    +0.152 HD
BRANCH  17  19
ATOM     19  C   UNL     1       6.273  -4.850  25.175  0.00  0.00    +0.034 A 
ATOM     20  C   UNL     1       7.131  -4.723  26.260  0.00  0.00    +0.043 A 
ATOM     21  C   UNL     1       6.950  -5.550  27.362  0.00  0.00    +0.112 A 
ATOM     22  N   UNL     1       5.972  -6.472  27.460  0.00  0.00    -0.263 NA
ATOM     23  C   UNL     1       5.137  -6.573  26.416  0.00  0.00    +0.112 A 
ATOM     24  C   UNL     1       5.241  -5.797  25.266  0.00  0.00    +0.043 A 
ENDBRANCH  17  19
ENDBRANCH   6  17
TORSDOF 5
ENDMDL
MODEL 3
REMARK VINA RESULT:      -6.0      4.642      7.403
REMARK  Name = 
REMARK  6 active torsions:
REMARK  status: ('A' for Active; 'I' for Inactive)
REMARK    1  A    between atoms: C_2  and  C_3
REMARK    2  A    between atoms: C_2  and  N_4
REMARK    3  A    between atoms: C_2  and  C_18
REMARK    4  A    between atoms: N_4  and  C_5
REMARK    5  A    between atoms: C_6  and  N_7
REMARK    6  A    between atoms: N_7  and  C_8
REMARK                            x       y       z     vdW  Elec       q    Type
REMARK                         _______ _______ _______ _____ _____    ______ ____
ROOT
ATOM      1  C   UNL     1      10.777   5.427  24.011  0.00  0.00    +0.104 C 
ATOM      2  C   UNL     1      12.063   6.084  24.357  0.00  0.00    +0.250 C 
ATOM      3  O   UNL     1      12.481   6.965  25.067  0.00  0.00    -0.282 OA
ATOM      4  C   UNL     1      12.736   5.108  23.459  0.00  0.00    +0.250 C 
ATOM      5  O   UNL     1      13.892   4.987  23.124  0.00  0.00    -0.282 OA
ATOM      6  C   UNL     1      11.406   4.481  23.240  0.00  0.00    +0.108 C 
ENDROOT
BRANCH   1   7
ATOM      7  N   UNL     1       9.530   5.677  24.358  0.00  0.00    -0.333 N 
ATOM      8  H   UNL     1       9.197   5.376  25.275  0.00  0.00    +0.147 HD
BRANCH   7   9
ATOM      9  C   UNL     1       8.434   5.711  23.381  0.00  0.00    +0.098 C 
ATOM     10  C   UNL     1       7.560   6.917  23.736  0.00  0.00    +0.033 C 
BRANCH   9  11
ATOM     11  C   UNL     1       7.644   4.411  23.377  0.00  0.00    -0.028 A 
ATOM     12  C   UNL     1       7.434   3.712  24.579  0.00  0.00    +0.005 A 
ATOM     13  C   UNL     1       6.722   2.509  24.596  0.00  0.00    +0.000 A 
ATOM     14  C   UNL     1       6.203   1.985  23.414  0.00  0.00    +0.000 A 
ATOM     15  C   UNL     1       6.406   2.660  22.214  0.00  0.00    +0.000 A 
ATOM     16  C   UNL     1       7.122   3.861  22.193  0.00  0.00    +0.005 A 
ENDBRANCH   9  11
ENDBRANCH   7   9
ENDBRANCH   1   7
BRANCH   6  17
ATOM     17  N   UNL     1      10.996   3.430  22.573  0.00  0.00    -0.310 N 
ATOM     18  H   UNL     1      11.035   3.477  21.553  0.00  0.00    +0.152 HD
BRANCH  17  19
ATOM     19  C   UNL     1      10.491   2.183  23.001  0.00  0.00    +0.034 A 
ATOM     20  C   UNL     1      10.471   1.763  24.325  0.00  0.00    +0.043 A 
ATOM     21  C   UNL     1       9.905   0.532  24.632  0.00  0.00    +0.112 A 
ATOM     22  N   UNL     1       9.347  -0.290  23.721  0.00  0.00    -0.263 NA
ATOM     23  C   UNL     1       9.354   0.133  22.449  0.00  0.00    +0.112 A 
ATOM     24  C   UNL     1       9.904   1.345  22.040  0.00  0.00    +0.043 A 
ENDBRANCH  17  19
ENDBRANCH   6  17
TORSDOF 5
ENDMDL
MODEL 4
REMARK VINA RESULT:      -5.9      3.047      5.169
REMARK  Name = 
REMARK  6 active torsions:
REMARK  status: ('A' for Active; 'I' for Inactive)
REMARK    1  A    between atoms: C_2  and  C_3
REMARK    2  A    between atoms: C_2  and  N_4
REMARK    3  A    between atoms: C_2  and  C_18
REMARK    4  A    between atoms: N_4  and  C_5
REMARK    5  A    between atoms: C_6  and  N_7
REMARK    6  A    between atoms: N_7  and  C_8
REMARK                            x       y       z     vdW  Elec       q    Type
REMARK                         _______ _______ _______ _____ _____    ______ ____
ROOT
ATOM      1  C   UNL     1       7.631  -4.187  26.554  0.00  0.00    +0.104 C 
ATOM      2  C   UNL     1       6.592  -4.746  27.455  0.00  0.00    +0.250 C 
ATOM      3  O   UNL     1       6.090  -4.519  28.529  0.00  0.00    -0.282 OA
ATOM      4  C   UNL     1       6.315  -5.765  26.408  0.00  0.00    +0.250 C 
ATOM      5  O   UNL     1       5.560  -6.709  26.383  0.00  0.00    -0.282 OA
ATOM      6  C   UNL     1       7.326  -5.081  25.559  0.00  0.00    +0.108 C 
ENDROOT
BRANCH   1   7
ATOM      7  N   UNL     1       8.484  -3.191  26.692  0.00  0.00    -0.333 N 
ATOM      8  H   UNL     1       9.140  -3.198  27.473  0.00  0.00    +0.147 HD
BRANCH   7   9
ATOM      9  C   UNL     1       8.159  -1.817  26.286  0.00  0.00    +0.098 C 
ATOM     10  C   UNL     1       6.650  -1.641  26.482  0.00  0.00    +0.033 C 
BRANCH   9  11
ATOM     11  C   UNL     1       8.588  -1.537  24.854  0.00  0.00    -0.028 A 
ATOM     12  C   UNL     1       9.667  -2.244  24.292  0.00  0.00    +0.005 A 
ATOM     13  C   UNL     1      10.086  -1.994  22.982  0.00  0.00    +0.000 A 
ATOM     14  C   UNL     1       9.434  -1.037  22.209  0.00  0.00    +0.000 A 
ATOM     15  C   UNL     1       8.368  -0.323  22.749  0.00  0.00    +0.000 A 
ATOM     16  C   UNL     1       7.949  -0.569  24.060  0.00  0.00    +0.005 A 
ENDBRANCH   9  11
ENDBRANCH   7   9
ENDBRANCH   1   7
BRANCH   6  17
ATOM     17  N   UNL     1       7.753  -5.260  24.333  0.00  0.00    -0.310 N 
ATOM     18  H   UNL     1       8.694  -5.643  24.216  0.00  0.00    +0.152 HD
BRANCH  17  19
ATOM     19  C   UNL     1       7.146  -5.026  23.081  0.00  0.00    +0.034 A 
ATOM     20  C   UNL     1       7.022  -5.985  22.083  0.00  0.00    +0.043 A 
ATOM     21  C   UNL     1       6.361  -5.651  20.907  0.00  0.00    +0.112 A 
ATOM     22  N   UNL     1       5.806  -4.446  20.670  0.00  0.00    -0.263 NA
ATOM     23  C   UNL     1       5.914  -3.534  21.647  0.00  0.00    +0.112 A 
ATOM     24  C   UNL     1       6.564  -3.768  22.855  0.00  0.00    +0.043 A 
ENDBRANCH  17  19
ENDBRANCH   6  17
TORSDOF 5
ENDMDL
MODEL 5
REMARK VINA RESULT:      -5.8      2.482      4.641
REMARK  Name = 
REMARK  6 active torsions:
REMARK  status: ('A' for Active; 'I' for Inactive)
REMARK    1  A    between atoms: C_2  and  C_3
REMARK    2  A    between atoms: C_2  and  N_4
REMARK    3  A    between atoms: C_2  and  C_18
REMARK    4  A    between atoms: N_4  and  C_5
REMARK    5  A    between atoms: C_6  and  N_7
REMARK    6  A    between atoms: N_7  and  C_8
REMARK                            x       y       z     vdW  Elec       q    Type
REMARK                         _______ _______ _______ _____ _____    ______ ____
ROOT
ATOM      1  C   UNL     1       9.075  -1.940  25.007  0.00  0.00    +0.104 C 
ATOM      2  C   UNL     1       8.526  -1.714  26.368  0.00  0.00    +0.250 C 
ATOM      3  O   UNL     1       8.413  -0.823  27.175  0.00  0.00    -0.282 OA
ATOM      4  C   UNL     1       8.054  -3.123  26.350  0.00  0.00    +0.250 C 
ATOM      5  O   UNL     1       7.496  -3.797  27.185  0.00  0.00    -0.282 OA
ATOM      6  C   UNL     1       8.575  -3.218  24.961  0.00  0.00    +0.108 C 
ENDROOT
BRANCH   1   7
ATOM      7  N   UNL     1       9.755  -1.168  24.183  0.00  0.00    -0.333 N 
ATOM      8  H   UNL     1      10.643  -0.770  24.489  0.00  0.00    +0.147 HD
BRANCH   7   9
ATOM      9  C   UNL     1       9.097  -0.299  23.198  0.00  0.00    +0.098 C 
ATOM     10  C   UNL     1       9.768  -0.571  21.848  0.00  0.00    +0.033 C 
BRANCH   9  11
ATOM     11  C   UNL     1       9.181   1.167  23.596  0.00  0.00    -0.028 A 
ATOM     12  C   UNL     1      10.222   1.972  23.099  0.00  0.00    +0.005 A 
ATOM     13  C   UNL     1      10.325   3.318  23.461  0.00  0.00    +0.000 A 
ATOM     14  C   UNL     1       9.389   3.885  24.323  0.00  0.00    +0.000 A 
ATOM     15  C   UNL     1       8.356   3.103  24.830  0.00  0.00    +0.000 A 
ATOM     16  C   UNL     1       8.253   1.755  24.472  0.00  0.00    +0.005 A 
ENDBRANCH   9  11
ENDBRANCH   7   9
ENDBRANCH   1   7
BRANCH   6  17
ATOM     17  N   UNL     1       8.559  -4.156  24.046  0.00  0.00    -0.310 N 
ATOM     18  H   UNL     1       9.315  -4.844  24.066  0.00  0.00    +0.152 HD
BRANCH  17  19
ATOM     19  C   UNL     1       7.662  -4.426  22.990  0.00  0.00    +0.034 A 
ATOM     20  C   UNL     1       7.452  -5.688  22.448  0.00  0.00    +0.043 A 
ATOM     21  C   UNL     1       6.506  -5.840  21.442  0.00  0.00    +0.112 A 
ATOM     22  N   UNL     1       5.752  -4.833  20.958  0.00  0.00    -0.263 NA
ATOM     23  C   UNL     1       5.947  -3.623  21.501  0.00  0.00    +0.112 A 
ATOM     24  C   UNL     1       6.876  -3.368  22.506  0.00  0.00    +0.043 A 
ENDBRANCH  17  19
ENDBRANCH   6  17
TORSDOF 5
ENDMDL
MODEL 6
REMARK VINA RESULT:      -5.7      3.026      5.837
REMARK  Name = 
REMARK  6 active torsions:
REMARK  status: ('A' for Active; 'I' for Inactive)
REMARK    1  A    between atoms: C_2  and  C_3
REMARK    2  A    between atoms: C_2  and  N_4
REMARK    3  A    between atoms: C_2  and  C_18
REMARK    4  A    between atoms: N_4  and  C_5
REMARK    5  A    between atoms: C_6  and  N_7
REMARK    6  A    between atoms: N_7  and  C_8
REMARK                            x       y       z     vdW  Elec       q    Type
REMARK                         _______ _______ _______ _____ _____    ______ ____
ROOT
ATOM      1  C   UNL     1       9.257  -0.665  24.160  0.00  0.00    +0.104 C 
ATOM      2  C   UNL     1       9.626   0.517  23.341  0.00  0.00    +0.250 C 
ATOM      3  O   UNL     1      10.005   1.653  23.488  0.00  0.00    -0.282 OA
ATOM      4  C   UNL     1       9.398  -0.321  22.134  0.00  0.00    +0.250 C 
ATOM      5  O   UNL     1       9.446  -0.063  20.954  0.00  0.00    -0.282 OA
ATOM      6  C   UNL     1       9.117  -1.459  23.049  0.00  0.00    +0.108 C 
ENDROOT
BRANCH   1   7
ATOM      7  N   UNL     1       9.146  -0.844  25.462  0.00  0.00    -0.333 N 
ATOM      8  H   UNL     1       9.897  -1.314  25.968  0.00  0.00    +0.147 HD
BRANCH   7   9
ATOM      9  C   UNL     1       7.849  -1.062  26.116  0.00  0.00    +0.098 C 
ATOM     10  C   UNL     1       7.899  -0.324  27.458  0.00  0.00    +0.033 C 
BRANCH   9  11
ATOM     11  C   UNL     1       7.546  -2.543  26.287  0.00  0.00    -0.028 A 
ATOM     12  C   UNL     1       8.599  -3.461  26.449  0.00  0.00    +0.005 A 
ATOM     13  C   UNL     1       8.345  -4.828  26.595  0.00  0.00    +0.000 A 
ATOM     14  C   UNL     1       7.035  -5.302  26.585  0.00  0.00    +0.000 A 
ATOM     15  C   UNL     1       5.980  -4.409  26.420  0.00  0.00    +0.000 A 
ATOM     16  C   UNL     1       6.232  -3.041  26.270  0.00  0.00    +0.005 A 
ENDBRANCH   9  11
ENDBRANCH   7   9
ENDBRANCH   1   7
BRANCH   6  17
ATOM     17  N   UNL     1       8.847  -2.728  22.865  0.00  0.00    -0.310 N 
ATOM     18  H   UNL     1       9.639  -3.371  22.796  0.00  0.00    +0.152 HD
BRANCH  17  19
ATOM     19  C   UNL     1       7.624  -3.422  22.744  0.00  0.00    +0.034 A 
ATOM     20  C   UNL     1       7.495  -4.801  22.860  0.00  0.00    +0.043 A 
ATOM     21  C   UNL     1       6.230  -5.368  22.770  0.00  0.00    +0.112 A 
ATOM     22  N   UNL     1       5.097  -4.660  22.592  0.00  0.00    -0.263 NA
ATOM     23  C   UNL     1       5.230  -3.329  22.501  0.00  0.00    +0.112 A 
ATOM     24  C   UNL     1       6.452  -2.668  22.570  0.00  0.00    +0.043 A 
ENDBRANCH  17  19
ENDBRANCH   6  17
TORSDOF 5
ENDMDL
MODEL 7
REMARK VINA RESULT:      -5.7      1.845      3.912
REMARK  Name = 
REMARK  6 active torsions:
REMARK  status: ('A' for Active; 'I' for Inactive)
REMARK    1  A    between atoms: C_2  and  C_3
REMARK    2  A    between atoms: C_2  and  N_4
REMARK    3  A    between atoms: C_2  and  C_18
REMARK    4  A    between atoms: N_4  and  C_5
REMARK    5  A    between atoms: C_6  and  N_7
REMARK    6  A    between atoms: N_7  and  C_8
REMARK                            x       y       z     vdW  Elec       q    Type
REMARK                         _______ _______ _______ _____ _____    ______ ____
ROOT
ATOM      1  C   UNL     1       7.980  -2.450  24.431  0.00  0.00    +0.104 C 
ATOM      2  C   UNL     1       7.927  -3.805  25.036  0.00  0.00    +0.250 C 
ATOM      3  O   UNL     1       7.127  -4.553  25.542  0.00  0.00    -0.282 OA
ATOM      4  C   UNL     1       9.367  -3.951  24.694  0.00  0.00    +0.250 C 
ATOM      5  O   UNL     1      10.160  -4.838  24.911  0.00  0.00    -0.282 OA
ATOM      6  C   UNL     1       9.289  -2.613  24.050  0.00  0.00    +0.108 C 
ENDROOT
BRANCH   1   7
ATOM      7  N   UNL     1       7.078  -1.497  24.306  0.00  0.00    -0.333 N 
ATOM      8  H   UNL     1       6.778  -1.211  23.374  0.00  0.00    +0.147 HD
BRANCH   7   9
ATOM      9  C   UNL     1       6.974  -0.384  25.260  0.00  0.00    +0.098 C 
ATOM     10  C   UNL     1       5.726  -0.642  26.110  0.00  0.00    +0.033 C 
BRANCH   9  11
ATOM     11  C   UNL     1       6.918   0.960  24.551  0.00  0.00    -0.028 A 
ATOM     12  C   UNL     1       6.518   1.029  23.205  0.00  0.00    +0.005 A 
ATOM     13  C   UNL     1       6.471   2.253  22.530  0.00  0.00    +0.000 A 
ATOM     14  C   UNL     1       6.820   3.429  23.189  0.00  0.00    +0.000 A 
ATOM     15  C   UNL     1       7.224   3.380  24.520  0.00  0.00    +0.000 A 
ATOM     16  C   UNL     1       7.275   2.157  25.195  0.00  0.00    +0.005 A 
ENDBRANCH   9  11
ENDBRANCH   7   9
ENDBRANCH   1   7
BRANCH   6  17
ATOM     17  N   UNL     1      10.139  -1.878  23.375  0.00  0.00    -0.310 N 
ATOM     18  H   UNL     1      10.895  -2.364  22.888  0.00  0.00    +0.152 HD
BRANCH  17  19
ATOM     19  C   UNL     1      10.222  -0.484  23.170  0.00  0.00    +0.034 A 
ATOM     20  C   UNL     1       9.870   0.151  21.985  0.00  0.00    +0.043 A 
ATOM     21  C   UNL     1       9.948   1.536  21.916  0.00  0.00    +0.112 A 
ATOM     22  N   UNL     1      10.331   2.322  22.942  0.00  0.00    -0.263 NA
ATOM     23  C   UNL     1      10.649   1.701  24.087  0.00  0.00    +0.112 A 
ATOM     24  C   UNL     1      10.611   0.320  24.253  0.00  0.00    +0.043 A 
ENDBRANCH  17  19
ENDBRANCH   6  17
TORSDOF 5
ENDMDL
MODEL 8
REMARK VINA RESULT:      -5.7      2.446      4.826
REMARK  Name = 
REMARK  6 active torsions:
REMARK  status: ('A' for Active; 'I' for Inactive)
REMARK    1  A    between atoms: C_2  and  C_3
REMARK    2  A    between atoms: C_2  and  N_4
REMARK    3  A    between atoms: C_2  and  C_18
REMARK    4  A    between atoms: N_4  and  C_5
REMARK    5  A    between atoms: C_6  and  N_7
REMARK    6  A    between atoms: N_7  and  C_8
REMARK                            x       y       z     vdW  Elec       q    Type
REMARK                         _______ _______ _______ _____ _____    ______ ____
ROOT
ATOM      1  C   UNL     1       8.386  -0.716  23.397  0.00  0.00    +0.104 C 
ATOM      2  C   UNL     1       9.496  -0.997  24.342  0.00  0.00    +0.250 C 
ATOM      3  O   UNL     1      10.148  -0.432  25.186  0.00  0.00    -0.282 OA
ATOM      4  C   UNL     1       9.468  -2.405  23.866  0.00  0.00    +0.250 C 
ATOM      5  O   UNL     1      10.158  -3.361  24.136  0.00  0.00    -0.282 OA
ATOM      6  C   UNL     1       8.311  -2.031  23.010  0.00  0.00    +0.108 C 
ENDROOT
BRANCH   1   7
ATOM      7  N   UNL     1       7.734   0.389  23.096  0.00  0.00    -0.333 N 
ATOM      8  H   UNL     1       6.715   0.401  23.155  0.00  0.00    +0.147 HD
BRANCH   7   9
ATOM      9  C   UNL     1       8.216   1.334  22.080  0.00  0.00    +0.098 C 
ATOM     10  C   UNL     1       9.115   0.542  21.126  0.00  0.00    +0.033 C 
BRANCH   9  11
ATOM     11  C   UNL     1       8.944   2.513  22.708  0.00  0.00    -0.028 A 
ATOM     12  C   UNL     1      10.344   2.487  22.836  0.00  0.00    +0.005 A 
ATOM     13  C   UNL     1      11.033   3.554  23.422  0.00  0.00    +0.000 A 
ATOM     14  C   UNL     1      10.336   4.666  23.887  0.00  0.00    +0.000 A 
ATOM     15  C   UNL     1       8.949   4.707  23.774  0.00  0.00    +0.000 A 
ATOM     16  C   UNL     1       8.258   3.640  23.193  0.00  0.00    +0.005 A 
ENDBRANCH   9  11
ENDBRANCH   7   9
ENDBRANCH   1   7
BRANCH   6  17
ATOM     17  N   UNL     1       7.522  -2.699  22.205  0.00  0.00    -0.310 N 
ATOM     18  H   UNL     1       7.537  -2.444  21.215  0.00  0.00    +0.152 HD
BRANCH  17  19
ATOM     19  C   UNL     1       6.617  -3.756  22.438  0.00  0.00    +0.034 A 
ATOM     20  C   UNL     1       5.316  -3.582  22.895  0.00  0.00    +0.043 A 
ATOM     21  C   UNL     1       4.499  -4.696  23.042  0.00  0.00    +0.112 A 
ATOM     22  N   UNL     1       4.881  -5.955  22.749  0.00  0.00    -0.263 NA
ATOM     23  C   UNL     1       6.131  -6.111  22.290  0.00  0.00    +0.112 A 
ATOM     24  C   UNL     1       7.027  -5.060  22.117  0.00  0.00    +0.043 A 
ENDBRANCH  17  19
ENDBRANCH   6  17
TORSDOF 5
ENDMDL
MODEL 9
REMARK VINA RESULT:      -5.6      3.274      4.548
REMARK  Name = 
REMARK  6 active torsions:
REMARK  status: ('A' for Active; 'I' for Inactive)
REMARK    1  A    between atoms: C_2  and  C_3
REMARK    2  A    between atoms: C_2  and  N_4
REMARK    3  A    between atoms: C_2  and  C_18
REMARK    4  A    between atoms: N_4  and  C_5
REMARK    5  A    between atoms: C_6  and  N_7
REMARK    6  A    between atoms: N_7  and  C_8
REMARK                            x       y       z     vdW  Elec       q    Type
REMARK                         _______ _______ _______ _____ _____    ______ ____
ROOT
ATOM      1  C   UNL     1       6.783  -3.375  23.046  0.00  0.00    +0.104 C 
ATOM      2  C   UNL     1       5.907  -3.674  21.885  0.00  0.00    +0.250 C 
ATOM      3  O   UNL     1       5.588  -3.187  20.828  0.00  0.00    -0.282 OA
ATOM      4  C   UNL     1       5.578  -4.968  22.539  0.00  0.00    +0.250 C 
ATOM      5  O   UNL     1       4.823  -5.859  22.227  0.00  0.00    -0.282 OA
ATOM      6  C   UNL     1       6.537  -4.600  23.615  0.00  0.00    +0.108 C 
ENDROOT
BRANCH   1   7
ATOM      7  N   UNL     1       7.520  -2.328  23.357  0.00  0.00    -0.333 N 
ATOM      8  H   UNL     1       7.096  -1.399  23.355  0.00  0.00    +0.147 HD
BRANCH   7   9
ATOM      9  C   UNL     1       8.954  -2.255  23.046  0.00  0.00    +0.098 C 
ATOM     10  C   UNL     1       9.688  -3.019  24.152  0.00  0.00    +0.033 C 
BRANCH   9  11
ATOM     11  C   UNL     1       9.431  -0.815  22.928  0.00  0.00    -0.028 A 
ATOM     12  C   UNL     1      10.185  -0.237  23.965  0.00  0.00    +0.005 A 
ATOM     13  C   UNL     1      10.623   1.088  23.884  0.00  0.00    +0.000 A 
ATOM     14  C   UNL     1      10.320   1.858  22.763  0.00  0.00    +0.000 A 
ATOM     15  C   UNL     1       9.571   1.305  21.729  0.00  0.00    +0.000 A 
ATOM     16  C   UNL     1       9.128  -0.019  21.810  0.00  0.00    +0.005 A 
ENDBRANCH   9  11
ENDBRANCH   7   9
ENDBRANCH   1   7
BRANCH   6  17
ATOM     17  N   UNL     1       6.978  -5.212  24.686  0.00  0.00    -0.310 N 
ATOM     18  H   UNL     1       7.969  -5.464  24.708  0.00  0.00    +0.152 HD
BRANCH  17  19
ATOM     19  C   UNL     1       6.333  -5.606  25.878  0.00  0.00    +0.034 A 
ATOM     20  C   UNL     1       5.130  -6.299  25.920  0.00  0.00    +0.043 A 
ATOM     21  C   UNL     1       4.613  -6.676  27.154  0.00  0.00    +0.112 A 
ATOM     22  N   UNL     1       5.218  -6.427  28.332  0.00  0.00    -0.263 NA
ATOM     23  C   UNL     1       6.388  -5.775  28.280  0.00  0.00    +0.112 A 
ATOM     24  C   UNL     1       6.982  -5.348  27.096  0.00  0.00    +0.043 A 
ENDBRANCH  17  19
ENDBRANCH   6  17
TORSDOF 5
ENDMDL
