MODEL 1
REMARK VINA RESULT:      -7.4      0.000      0.000
REMARK  Name = 
REMARK  9 active torsions:
REMARK  status: ('A' for Active; 'I' for Inactive)
REMARK    1  A    between atoms: C_1  and  C_2
REMARK    2  A    between atoms: C_2  and  O_3
REMARK    3  A    between atoms: C_2  and  C_4
REMARK    4  A    between atoms: C_2  and  C_13
REMARK    5  A    between atoms: C_4  and  O_5
REMARK    6  A    between atoms: O_5  and  C_6
REMARK    7  A    between atoms: N_15  and  C_16
REMARK    8  A    between atoms: C_18  and  C_25
REMARK    9  A    between atoms: C_19  and  N_22
REMARK                            x       y       z     vdW  Elec       q    Type
REMARK                         _______ _______ _______ _____ _____    ______ ____
ROOT
ATOM      1  C   UNL     1       9.505   0.130  22.654  0.00  0.00    +0.252 C 
ATOM      2  N   UNL     1       9.921   0.819  23.779  0.00  0.00    -0.283 N 
ATOM      3  H   UNL     1      10.501   0.343  24.456  0.00  0.00    +0.155 HD
ATOM      4  O   UNL     1       9.157   0.705  21.621  0.00  0.00    -0.272 OA
ENDROOT
BRANCH   2   5
ATOM      5  C   UNL     1       9.785   2.207  23.942  0.00  0.00    +0.034 A 
ATOM      6  C   UNL     1       8.586   2.811  24.331  0.00  0.00    +0.030 A 
ATOM      7  C   UNL     1       8.533   4.194  24.527  0.00  0.00    +0.087 A 
ATOM      8  C   UNL     1       9.672   4.960  24.277  0.00  0.00    +0.285 A 
ATOM      9  C   UNL     1      10.872   4.388  23.843  0.00  0.00    +0.133 A 
ATOM     10  C   UNL     1      10.922   2.990  23.729  0.00  0.00    +0.042 A 
BRANCH   9  11
ATOM     11  C   UNL     1      12.091   5.202  23.495  0.00  0.00    +0.424 C 
ATOM     12  F   UNL     1      13.154   4.432  23.148  0.00  0.00    -0.166 F 
ATOM     13  F   UNL     1      12.496   6.018  24.499  0.00  0.00    -0.166 F 
ATOM     14  F   UNL     1      11.874   6.029  22.430  0.00  0.00    -0.166 F 
ENDBRANCH   9  11
BRANCH   8  15
ATOM     15  N   UNL     1       9.573   6.397  24.518  0.00  0.00    +0.080 N 
ATOM     16  O   UNL     1       9.942   6.803  25.626  0.00  0.00    +0.041 OA
ATOM     17  O   UNL     1       9.114   7.093  23.609  0.00  0.00    -0.576 OA
ENDBRANCH   8  15
ENDBRANCH   2   5
BRANCH   1  19
ATOM     18  C   UNL     1       8.511  -2.026  21.913  0.00  0.00    +0.055 C 
ATOM     19  C   UNL     1       9.684  -1.418  22.694  0.00  0.00    +0.173 C 
BRANCH  19  20
ATOM     20  O   UNL     1      10.886  -1.814  22.015  0.00  0.00    -0.376 OA
ATOM     21  H   UNL     1      11.077  -1.166  21.315  0.00  0.00    +0.211 HD
ENDBRANCH  19  20
BRANCH  19  22
ATOM     22  C   UNL     1       9.740  -2.022  24.108  0.00  0.00    +0.273 C 
BRANCH  22  23
ATOM     23  O   UNL     1       9.778  -3.446  24.057  0.00  0.00    -0.489 OA
BRANCH  23  24
ATOM     24  C   UNL     1       8.878  -4.116  24.839  0.00  0.00    +0.121 A 
ATOM     25  C   UNL     1       7.686  -4.465  24.192  0.00  0.00    +0.048 A 
ATOM     26  C   UNL     1       6.686  -5.157  24.877  0.00  0.00    +0.042 A 
ATOM     27  C   UNL     1       6.882  -5.495  26.210  0.00  0.00    +0.124 A 
ATOM     28  F   UNL     1       5.927  -6.163  26.871  0.00  0.00    -0.205 F 
ATOM     29  C   UNL     1       8.057  -5.155  26.867  0.00  0.00    +0.042 A 
ATOM     30  C   UNL     1       9.060  -4.465  26.180  0.00  0.00    +0.048 A 
ENDBRANCH  23  24
ENDBRANCH  22  23
ENDBRANCH  19  22
ENDBRANCH   1  19
TORSDOF 8
ENDMDL
MODEL 2
REMARK VINA RESULT:      -7.4      3.155      8.300
REMARK  Name = 
REMARK  9 active torsions:
REMARK  status: ('A' for Active; 'I' for Inactive)
REMARK    1  A    between atoms: C_1  and  C_2
REMARK    2  A    between atoms: C_2  and  O_3
REMARK    3  A    between atoms: C_2  and  C_4
REMARK    4  A    between atoms: C_2  and  C_13
REMARK    5  A    between atoms: C_4  and  O_5
REMARK    6  A    between atoms: O_5  and  C_6
REMARK    7  A    between atoms: N_15  and  C_16
REMARK    8  A    between atoms: C_18  and  C_25
REMARK    9  A    between atoms: C_19  and  N_22
REMARK                            x       y       z     vdW  Elec       q    Type
REMARK                         _______ _______ _______ _____ _____    ______ ____
ROOT
ATOM      1  C   UNL     1       6.894   2.324  25.812  0.00  0.00    +0.252 C 
ATOM      2  N   UNL     1       8.105   1.682  26.000  0.00  0.00    -0.283 N 
ATOM      3  H   UNL     1       8.796   2.109  26.602  0.00  0.00    +0.155 HD
ATOM      4  O   UNL     1       5.881   1.725  25.446  0.00  0.00    -0.272 OA
ENDROOT
BRANCH   2   5
ATOM      5  C   UNL     1       8.363   0.362  25.594  0.00  0.00    +0.034 A 
ATOM      6  C   UNL     1       8.125  -0.744  26.413  0.00  0.00    +0.030 A 
ATOM      7  C   UNL     1       8.353  -2.035  25.928  0.00  0.00    +0.087 A 
ATOM      8  C   UNL     1       8.872  -2.195  24.642  0.00  0.00    +0.285 A 
ATOM      9  C   UNL     1       9.163  -1.103  23.816  0.00  0.00    +0.133 A 
ATOM     10  C   UNL     1       8.850   0.178  24.297  0.00  0.00    +0.042 A 
BRANCH   9  11
ATOM     11  C   UNL     1       9.792  -1.249  22.455  0.00  0.00    +0.424 C 
ATOM     12  F   UNL     1       9.008  -1.935  21.586  0.00  0.00    -0.166 F 
ATOM     13  F   UNL     1      10.998  -1.868  22.486  0.00  0.00    -0.166 F 
ATOM     14  F   UNL     1      10.027  -0.041  21.862  0.00  0.00    -0.166 F 
ENDBRANCH   9  11
BRANCH   8  15
ATOM     15  N   UNL     1       9.072  -3.562  24.171  0.00  0.00    +0.080 N 
ATOM     16  O   UNL     1       8.134  -4.084  23.558  0.00  0.00    +0.041 OA
ATOM     17  O   UNL     1      10.151  -4.100  24.436  0.00  0.00    -0.576 OA
ENDBRANCH   8  15
ENDBRANCH   2   5
BRANCH   1  19
ATOM     18  C   UNL     1       5.351   4.145  26.509  0.00  0.00    +0.055 C 
ATOM     19  C   UNL     1       6.830   3.812  26.272  0.00  0.00    +0.173 C 
BRANCH  19  20
ATOM     20  O   UNL     1       7.503   3.989  27.529  0.00  0.00    -0.376 OA
ATOM     21  H   UNL     1       7.115   3.380  28.180  0.00  0.00    +0.211 HD
ENDBRANCH  19  20
BRANCH  19  22
ATOM     22  C   UNL     1       7.441   4.818  25.282  0.00  0.00    +0.273 C 
BRANCH  22  23
ATOM     23  O   UNL     1       8.082   4.147  24.200  0.00  0.00    -0.489 OA
BRANCH  23  24
ATOM     24  C   UNL     1       9.396   4.456  23.972  0.00  0.00    +0.121 A 
ATOM     25  C   UNL     1      10.188   3.377  23.564  0.00  0.00    +0.048 A 
ATOM     26  C   UNL     1      11.545   3.558  23.294  0.00  0.00    +0.042 A 
ATOM     27  C   UNL     1      12.105   4.822  23.437  0.00  0.00    +0.124 A 
ATOM     28  F   UNL     1      13.407   5.002  23.175  0.00  0.00    -0.205 F 
ATOM     29  C   UNL     1      11.334   5.902  23.843  0.00  0.00    +0.042 A 
ATOM     30  C   UNL     1       9.974   5.721  24.110  0.00  0.00    +0.048 A 
ENDBRANCH  23  24
ENDBRANCH  22  23
ENDBRANCH  19  22
ENDBRANCH   1  19
TORSDOF 8
ENDMDL
MODEL 3
REMARK VINA RESULT:      -7.3      3.510      9.862
REMARK  Name = 
REMARK  9 active torsions:
REMARK  status: ('A' for Active; 'I' for Inactive)
REMARK    1  A    between atoms: C_1  and  C_2
REMARK    2  A    between atoms: C_2  and  O_3
REMARK    3  A    between atoms: C_2  and  C_4
REMARK    4  A    between atoms: C_2  and  C_13
REMARK    5  A    between atoms: C_4  and  O_5
REMARK    6  A    between atoms: O_5  and  C_6
REMARK    7  A    between atoms: N_15  and  C_16
REMARK    8  A    between atoms: C_18  and  C_25
REMARK    9  A    between atoms: C_19  and  N_22
REMARK                            x       y       z     vdW  Elec       q    Type
REMARK                         _______ _______ _______ _____ _____    ______ ____
ROOT
ATOM      1  C   UNL     1       8.091  -0.875  23.440  0.00  0.00    +0.252 C 
ATOM      2  N   UNL     1       8.176  -2.079  24.116  0.00  0.00    -0.283 N 
ATOM      3  H   UNL     1       8.875  -2.185  24.839  0.00  0.00    +0.155 HD
ATOM      4  O   UNL     1       7.065  -0.518  22.857  0.00  0.00    -0.272 OA
ENDROOT
BRANCH   2   5
ATOM      5  C   UNL     1       7.211  -3.097  24.028  0.00  0.00    +0.034 A 
ATOM      6  C   UNL     1       6.154  -3.219  24.933  0.00  0.00    +0.030 A 
ATOM      7  C   UNL     1       5.198  -4.223  24.757  0.00  0.00    +0.087 A 
ATOM      8  C   UNL     1       5.348  -5.127  23.704  0.00  0.00    +0.285 A 
ATOM      9  C   UNL     1       6.421  -5.056  22.810  0.00  0.00    +0.133 A 
ATOM     10  C   UNL     1       7.324  -3.991  22.961  0.00  0.00    +0.042 A 
BRANCH   9  11
ATOM     11  C   UNL     1       6.644  -6.064  21.713  0.00  0.00    +0.424 C 
ATOM     12  F   UNL     1       5.670  -6.034  20.769  0.00  0.00    -0.166 F 
ATOM     13  F   UNL     1       6.729  -7.339  22.166  0.00  0.00    -0.166 F 
ATOM     14  F   UNL     1       7.813  -5.847  21.041  0.00  0.00    -0.166 F 
ENDBRANCH   9  11
BRANCH   8  15
ATOM     15  N   UNL     1       4.311  -6.144  23.548  0.00  0.00    +0.080 N 
ATOM     16  O   UNL     1       3.358  -5.860  22.813  0.00  0.00    +0.041 OA
ATOM     17  O   UNL     1       4.454  -7.198  24.174  0.00  0.00    -0.576 OA
ENDBRANCH   8  15
ENDBRANCH   2   5
BRANCH   1  19
ATOM     18  C   UNL     1       9.452   0.351  25.122  0.00  0.00    +0.055 C 
ATOM     19  C   UNL     1       9.298   0.096  23.617  0.00  0.00    +0.173 C 
BRANCH  19  20
ATOM     20  O   UNL     1      10.518  -0.517  23.172  0.00  0.00    -0.376 OA
ATOM     21  H   UNL     1      10.884  -1.050  23.899  0.00  0.00    +0.211 HD
ENDBRANCH  19  20
BRANCH  19  22
ATOM     22  C   UNL     1       9.162   1.433  22.870  0.00  0.00    +0.273 C 
BRANCH  22  23
ATOM     23  O   UNL     1       8.840   2.492  23.768  0.00  0.00    -0.489 OA
BRANCH  23  24
ATOM     24  C   UNL     1       9.691   3.564  23.790  0.00  0.00    +0.121 A 
ATOM     25  C   UNL     1      10.987   3.292  23.336  0.00  0.00    +0.048 A 
ATOM     26  C   UNL     1      11.951   4.300  23.302  0.00  0.00    +0.042 A 
ATOM     27  C   UNL     1      11.614   5.579  23.727  0.00  0.00    +0.124 A 
ATOM     28  F   UNL     1      12.535   6.551  23.693  0.00  0.00    -0.205 F 
ATOM     29  C   UNL     1      10.334   5.865  24.182  0.00  0.00    +0.042 A 
ATOM     30  C   UNL     1       9.367   4.856  24.213  0.00  0.00    +0.048 A 
ENDBRANCH  23  24
ENDBRANCH  22  23
ENDBRANCH  19  22
ENDBRANCH   1  19
TORSDOF 8
ENDMDL
MODEL 4
REMARK VINA RESULT:      -7.2      2.949      9.151
REMARK  Name = 
REMARK  9 active torsions:
REMARK  status: ('A' for Active; 'I' for Inactive)
REMARK    1  A    between atoms: C_1  and  C_2
REMARK    2  A    between atoms: C_2  and  O_3
REMARK    3  A    between atoms: C_2  and  C_4
REMARK    4  A    between atoms: C_2  and  C_13
REMARK    5  A    between atoms: C_4  and  O_5
REMARK    6  A    between atoms: O_5  and  C_6
REMARK    7  A    between atoms: N_15  and  C_16
REMARK    8  A    between atoms: C_18  and  C_25
REMARK    9  A    between atoms: C_19  and  N_22
REMARK                            x       y       z     vdW  Elec       q    Type
REMARK                         _______ _______ _______ _____ _____    ______ ____
ROOT
ATOM      1  C   UNL     1       6.585   0.943  23.577  0.00  0.00    +0.252 C 
ATOM      2  N   UNL     1       7.686   0.191  23.208  0.00  0.00    -0.283 N 
ATOM      3  H   UNL     1       8.451   0.647  22.729  0.00  0.00    +0.155 HD
ATOM      4  O   UNL     1       5.820   0.594  24.478  0.00  0.00    -0.272 OA
ENDROOT
BRANCH   2   5
ATOM      5  C   UNL     1       7.922  -1.121  23.651  0.00  0.00    +0.034 A 
ATOM      6  C   UNL     1       8.746  -1.416  24.739  0.00  0.00    +0.030 A 
ATOM      7  C   UNL     1       8.896  -2.741  25.161  0.00  0.00    +0.087 A 
ATOM      8  C   UNL     1       8.258  -3.757  24.449  0.00  0.00    +0.285 A 
ATOM      9  C   UNL     1       7.464  -3.494  23.329  0.00  0.00    +0.133 A 
ATOM     10  C   UNL     1       7.266  -2.151  22.973  0.00  0.00    +0.042 A 
BRANCH   9  11
ATOM     11  C   UNL     1       6.827  -4.579  22.500  0.00  0.00    +0.424 C 
ATOM     12  F   UNL     1       5.946  -5.331  23.209  0.00  0.00    -0.166 F 
ATOM     13  F   UNL     1       7.727  -5.429  21.946  0.00  0.00    -0.166 F 
ATOM     14  F   UNL     1       6.116  -4.077  21.447  0.00  0.00    -0.166 F 
ENDBRANCH   9  11
BRANCH   8  15
ATOM     15  N   UNL     1       8.427  -5.121  24.942  0.00  0.00    +0.080 N 
ATOM     16  O   UNL     1       9.369  -5.771  24.475  0.00  0.00    +0.041 OA
ATOM     17  O   UNL     1       7.608  -5.528  25.771  0.00  0.00    -0.576 OA
ENDBRANCH   8  15
ENDBRANCH   2   5
BRANCH   1  19
ATOM     18  C   UNL     1       7.233   2.296  21.593  0.00  0.00    +0.055 C 
ATOM     19  C   UNL     1       6.470   2.354  22.923  0.00  0.00    +0.173 C 
BRANCH  19  20
ATOM     20  O   UNL     1       5.104   2.663  22.605  0.00  0.00    -0.376 OA
ATOM     21  H   UNL     1       4.970   3.621  22.700  0.00  0.00    +0.211 HD
ENDBRANCH  19  20
BRANCH  19  22
ATOM     22  C   UNL     1       7.009   3.508  23.785  0.00  0.00    +0.273 C 
BRANCH  22  23
ATOM     23  O   UNL     1       8.192   3.120  24.480  0.00  0.00    -0.489 OA
BRANCH  23  24
ATOM     24  C   UNL     1       9.349   3.766  24.139  0.00  0.00    +0.121 A 
ATOM     25  C   UNL     1       9.344   5.144  24.386  0.00  0.00    +0.048 A 
ATOM     26  C   UNL     1      10.465   5.920  24.088  0.00  0.00    +0.042 A 
ATOM     27  C   UNL     1      11.588   5.313  23.541  0.00  0.00    +0.124 A 
ATOM     28  F   UNL     1      12.668   6.053  23.257  0.00  0.00    -0.205 F 
ATOM     29  C   UNL     1      11.609   3.948  23.288  0.00  0.00    +0.042 A 
ATOM     30  C   UNL     1      10.488   3.170  23.590  0.00  0.00    +0.048 A 
ENDBRANCH  23  24
ENDBRANCH  22  23
ENDBRANCH  19  22
ENDBRANCH   1  19
TORSDOF 8
ENDMDL
MODEL 5
REMARK VINA RESULT:      -7.1      3.443      4.752
REMARK  Name = 
REMARK  9 active torsions:
REMARK  status: ('A' for Active; 'I' for Inactive)
REMARK    1  A    between atoms: C_1  and  C_2
REMARK    2  A    between atoms: C_2  and  O_3
REMARK    3  A    between atoms: C_2  and  C_4
REMARK    4  A    between atoms: C_2  and  C_13
REMARK    5  A    between atoms: C_4  and  O_5
REMARK    6  A    between atoms: O_5  and  C_6
REMARK    7  A    between atoms: N_15  and  C_16
REMARK    8  A    between atoms: C_18  and  C_25
REMARK    9  A    between atoms: C_19  and  N_22
REMARK                            x       y       z     vdW  Elec       q    Type
REMARK                         _______ _______ _______ _____ _____    ______ ____
ROOT
ATOM      1  C   UNL     1       6.908  -3.980  22.438  0.00  0.00    +0.252 C 
ATOM      2  N   UNL     1       8.051  -3.666  23.150  0.00  0.00    -0.283 N 
ATOM      3  H   UNL     1       8.751  -4.382  23.291  0.00  0.00    +0.155 HD
ATOM      4  O   UNL     1       6.218  -3.120  21.887  0.00  0.00    -0.272 OA
ENDROOT
BRANCH   2   5
ATOM      5  C   UNL     1       8.419  -2.357  23.503  0.00  0.00    +0.034 A 
ATOM      6  C   UNL     1       8.546  -1.937  24.830  0.00  0.00    +0.030 A 
ATOM      7  C   UNL     1       8.969  -0.635  25.111  0.00  0.00    +0.087 A 
ATOM      8  C   UNL     1       9.206   0.246  24.055  0.00  0.00    +0.285 A 
ATOM      9  C   UNL     1       9.043  -0.135  22.719  0.00  0.00    +0.133 A 
ATOM     10  C   UNL     1       8.694  -1.469  22.461  0.00  0.00    +0.042 A 
BRANCH   9  11
ATOM     11  C   UNL     1       9.220   0.819  21.567  0.00  0.00    +0.424 C 
ATOM     12  F   UNL     1       9.068   0.217  20.360  0.00  0.00    -0.166 F 
ATOM     13  F   UNL     1      10.429   1.434  21.561  0.00  0.00    -0.166 F 
ATOM     14  F   UNL     1       8.306   1.834  21.589  0.00  0.00    -0.166 F 
ENDBRANCH   9  11
BRANCH   8  15
ATOM     15  N   UNL     1       9.667   1.588  24.400  0.00  0.00    +0.080 N 
ATOM     16  O   UNL     1      10.890   1.773  24.403  0.00  0.00    +0.041 OA
ATOM     17  O   UNL     1       8.807   2.428  24.679  0.00  0.00    -0.576 OA
ENDBRANCH   8  15
ENDBRANCH   2   5
BRANCH   1  19
ATOM     18  C   UNL     1       6.068  -5.642  20.790  0.00  0.00    +0.055 C 
ATOM     19  C   UNL     1       6.641  -5.499  22.205  0.00  0.00    +0.173 C 
BRANCH  19  20
ATOM     20  O   UNL     1       7.868  -6.245  22.235  0.00  0.00    -0.376 OA
ATOM     21  H   UNL     1       7.842  -6.860  22.987  0.00  0.00    +0.211 HD
ENDBRANCH  19  20
BRANCH  19  22
ATOM     22  C   UNL     1       5.689  -6.148  23.224  0.00  0.00    +0.273 C 
BRANCH  22  23
ATOM     23  O   UNL     1       5.298  -5.213  24.228  0.00  0.00    -0.489 OA
BRANCH  23  24
ATOM     24  C   UNL     1       5.506  -5.581  25.529  0.00  0.00    +0.121 A 
ATOM     25  C   UNL     1       6.616  -4.982  26.137  0.00  0.00    +0.048 A 
ATOM     26  C   UNL     1       6.936  -5.268  27.464  0.00  0.00    +0.042 A 
ATOM     27  C   UNL     1       6.143  -6.158  28.180  0.00  0.00    +0.124 A 
ATOM     28  F   UNL     1       6.444  -6.433  29.456  0.00  0.00    -0.205 F 
ATOM     29  C   UNL     1       5.040  -6.762  27.591  0.00  0.00    +0.042 A 
ATOM     30  C   UNL     1       4.718  -6.473  26.263  0.00  0.00    +0.048 A 
ENDBRANCH  23  24
ENDBRANCH  22  23
ENDBRANCH  19  22
ENDBRANCH   1  19
TORSDOF 8
ENDMDL
MODEL 6
REMARK VINA RESULT:      -7.1      3.468      4.880
REMARK  Name = 
REMARK  9 active torsions:
REMARK  status: ('A' for Active; 'I' for Inactive)
REMARK    1  A    between atoms: C_1  and  C_2
REMARK    2  A    between atoms: C_2  and  O_3
REMARK    3  A    between atoms: C_2  and  C_4
REMARK    4  A    between atoms: C_2  and  C_13
REMARK    5  A    between atoms: C_4  and  O_5
REMARK    6  A    between atoms: O_5  and  C_6
REMARK    7  A    between atoms: N_15  and  C_16
REMARK    8  A    between atoms: C_18  and  C_25
REMARK    9  A    between atoms: C_19  and  N_22
REMARK                            x       y       z     vdW  Elec       q    Type
REMARK                         _______ _______ _______ _____ _____    ______ ____
ROOT
ATOM      1  C   UNL     1       8.286  -3.009  25.831  0.00  0.00    +0.252 C 
ATOM      2  N   UNL     1       7.612  -2.657  24.675  0.00  0.00    -0.283 N 
ATOM      3  H   UNL     1       7.047  -3.354  24.208  0.00  0.00    +0.155 HD
ATOM      4  O   UNL     1       8.652  -2.174  26.660  0.00  0.00    -0.272 OA
ENDROOT
BRANCH   2   5
ATOM      5  C   UNL     1       7.471  -1.335  24.222  0.00  0.00    +0.034 A 
ATOM      6  C   UNL     1       6.475  -0.475  24.691  0.00  0.00    +0.030 A 
ATOM      7  C   UNL     1       6.423   0.846  24.237  0.00  0.00    +0.087 A 
ATOM      8  C   UNL     1       7.341   1.270  23.275  0.00  0.00    +0.285 A 
ATOM      9  C   UNL     1       8.320   0.418  22.755  0.00  0.00    +0.133 A 
ATOM     10  C   UNL     1       8.401  -0.880  23.284  0.00  0.00    +0.042 A 
BRANCH   9  11
ATOM     11  C   UNL     1       9.273   0.831  21.663  0.00  0.00    +0.424 C 
ATOM     12  F   UNL     1      10.073   1.864  22.029  0.00  0.00    -0.166 F 
ATOM     13  F   UNL     1       8.648   1.192  20.515  0.00  0.00    -0.166 F 
ATOM     14  F   UNL     1      10.119  -0.179  21.305  0.00  0.00    -0.166 F 
ENDBRANCH   9  11
BRANCH   8  15
ATOM     15  N   UNL     1       7.262   2.665  22.850  0.00  0.00    +0.080 N 
ATOM     16  O   UNL     1       6.545   2.910  21.873  0.00  0.00    +0.041 OA
ATOM     17  O   UNL     1       7.928   3.489  23.484  0.00  0.00    -0.576 OA
ENDBRANCH   8  15
ENDBRANCH   2   5
BRANCH   1  19
ATOM     18  C   UNL     1       8.745  -5.225  24.801  0.00  0.00    +0.055 C 
ATOM     19  C   UNL     1       8.389  -4.537  26.125  0.00  0.00    +0.173 C 
BRANCH  19  20
ATOM     20  O   UNL     1       9.463  -4.811  27.038  0.00  0.00    -0.376 OA
ATOM     21  H   UNL     1       9.923  -5.617  26.747  0.00  0.00    +0.211 HD
ENDBRANCH  19  20
BRANCH  19  22
ATOM     22  C   UNL     1       7.116  -5.164  26.716  0.00  0.00    +0.273 C 
BRANCH  22  23
ATOM     23  O   UNL     1       5.952  -4.455  26.297  0.00  0.00    -0.489 OA
BRANCH  23  24
ATOM     24  C   UNL     1       5.128  -5.090  25.409  0.00  0.00    +0.121 A 
ATOM     25  C   UNL     1       4.475  -4.242  24.506  0.00  0.00    +0.048 A 
ATOM     26  C   UNL     1       3.611  -4.765  23.543  0.00  0.00    +0.042 A 
ATOM     27  C   UNL     1       3.400  -6.137  23.490  0.00  0.00    +0.124 A 
ATOM     28  F   UNL     1       2.573  -6.644  22.565  0.00  0.00    -0.205 F 
ATOM     29  C   UNL     1       4.037  -6.992  24.379  0.00  0.00    +0.042 A 
ATOM     30  C   UNL     1       4.906  -6.469  25.341  0.00  0.00    +0.048 A 
ENDBRANCH  23  24
ENDBRANCH  22  23
ENDBRANCH  19  22
ENDBRANCH   1  19
TORSDOF 8
ENDMDL
MODEL 7
REMARK VINA RESULT:      -7.1      3.352      4.763
REMARK  Name = 
REMARK  9 active torsions:
REMARK  status: ('A' for Active; 'I' for Inactive)
REMARK    1  A    between atoms: C_1  and  C_2
REMARK    2  A    between atoms: C_2  and  O_3
REMARK    3  A    between atoms: C_2  and  C_4
REMARK    4  A    between atoms: C_2  and  C_13
REMARK    5  A    between atoms: C_4  and  O_5
REMARK    6  A    between atoms: O_5  and  C_6
REMARK    7  A    between atoms: N_15  and  C_16
REMARK    8  A    between atoms: C_18  and  C_25
REMARK    9  A    between atoms: C_19  and  N_22
REMARK                            x       y       z     vdW  Elec       q    Type
REMARK                         _______ _______ _______ _____ _____    ______ ____
ROOT
ATOM      1  C   UNL     1       8.650  -2.872  25.897  0.00  0.00    +0.252 C 
ATOM      2  N   UNL     1       9.139  -2.385  24.698  0.00  0.00    -0.283 N 
ATOM      3  H   UNL     1       9.180  -3.005  23.900  0.00  0.00    +0.155 HD
ATOM      4  O   UNL     1       8.198  -2.132  26.773  0.00  0.00    -0.272 OA
ENDROOT
BRANCH   2   5
ATOM      5  C   UNL     1       9.375  -1.024  24.443  0.00  0.00    +0.034 A 
ATOM      6  C   UNL     1      10.465  -0.331  24.977  0.00  0.00    +0.030 A 
ATOM      7  C   UNL     1      10.671   1.010  24.640  0.00  0.00    +0.087 A 
ATOM      8  C   UNL     1       9.748   1.653  23.814  0.00  0.00    +0.285 A 
ATOM      9  C   UNL     1       8.624   0.995  23.303  0.00  0.00    +0.133 A 
ATOM     10  C   UNL     1       8.482  -0.371  23.592  0.00  0.00    +0.042 A 
BRANCH   9  11
ATOM     11  C   UNL     1       7.575   1.688  22.471  0.00  0.00    +0.424 C 
ATOM     12  F   UNL     1       7.063   2.786  23.083  0.00  0.00    -0.166 F 
ATOM     13  F   UNL     1       6.533   0.884  22.145  0.00  0.00    -0.166 F 
ATOM     14  F   UNL     1       8.070   2.131  21.278  0.00  0.00    -0.166 F 
ENDBRANCH   9  11
BRANCH   8  15
ATOM     15  N   UNL     1      10.019   3.046  23.472  0.00  0.00    +0.080 N 
ATOM     16  O   UNL     1      10.757   3.249  22.501  0.00  0.00    +0.041 OA
ATOM     17  O   UNL     1       9.507   3.914  24.186  0.00  0.00    -0.576 OA
ENDBRANCH   8  15
ENDBRANCH   2   5
BRANCH   1  19
ATOM     18  C   UNL     1       9.348  -5.022  24.860  0.00  0.00    +0.055 C 
ATOM     19  C   UNL     1       8.522  -4.422  26.005  0.00  0.00    +0.173 C 
BRANCH  19  20
ATOM     20  O   UNL     1       9.100  -4.900  27.229  0.00  0.00    -0.376 OA
ATOM     21  H   UNL     1       8.393  -5.270  27.786  0.00  0.00    +0.211 HD
ENDBRANCH  19  20
BRANCH  19  22
ATOM     22  C   UNL     1       7.080  -4.953  25.944  0.00  0.00    +0.273 C 
BRANCH  22  23
ATOM     23  O   UNL     1       6.262  -4.123  25.124  0.00  0.00    -0.489 OA
BRANCH  23  24
ATOM     24  C   UNL     1       6.211  -4.429  23.791  0.00  0.00    +0.121 A 
ATOM     25  C   UNL     1       6.075  -5.793  23.508  0.00  0.00    +0.048 A 
ATOM     26  C   UNL     1       6.006  -6.238  22.187  0.00  0.00    +0.042 A 
ATOM     27  C   UNL     1       6.077  -5.314  21.152  0.00  0.00    +0.124 A 
ATOM     28  F   UNL     1       6.007  -5.737  19.883  0.00  0.00    -0.205 F 
ATOM     29  C   UNL     1       6.214  -3.958  21.415  0.00  0.00    +0.042 A 
ATOM     30  C   UNL     1       6.280  -3.511  22.738  0.00  0.00    +0.048 A 
ENDBRANCH  23  24
ENDBRANCH  22  23
ENDBRANCH  19  22
ENDBRANCH   1  19
TORSDOF 8
ENDMDL
MODEL 8
REMARK VINA RESULT:      -7.0      3.543      7.847
REMARK  Name = 
REMARK  9 active torsions:
REMARK  status: ('A' for Active; 'I' for Inactive)
REMARK    1  A    between atoms: C_1  and  C_2
REMARK    2  A    between atoms: C_2  and  O_3
REMARK    3  A    between atoms: C_2  and  C_4
REMARK    4  A    between atoms: C_2  and  C_13
REMARK    5  A    between atoms: C_4  and  O_5
REMARK    6  A    between atoms: O_5  and  C_6
REMARK    7  A    between atoms: N_15  and  C_16
REMARK    8  A    between atoms: C_18  and  C_25
REMARK    9  A    between atoms: C_19  and  N_22
REMARK                            x       y       z     vdW  Elec       q    Type
REMARK                         _______ _______ _______ _____ _____    ______ ____
ROOT
ATOM      1  C   UNL     1       6.993   2.508  25.813  0.00  0.00    +0.252 C 
ATOM      2  N   UNL     1       7.941   1.628  26.303  0.00  0.00    -0.283 N 
ATOM      3  H   UNL     1       8.632   1.970  26.957  0.00  0.00    +0.155 HD
ATOM      4  O   UNL     1       5.914   2.127  25.354  0.00  0.00    -0.272 OA
ENDROOT
BRANCH   2   5
ATOM      5  C   UNL     1       7.878   0.235  26.133  0.00  0.00    +0.034 A 
ATOM      6  C   UNL     1       7.084  -0.591  26.933  0.00  0.00    +0.030 A 
ATOM      7  C   UNL     1       7.027  -1.964  26.676  0.00  0.00    +0.087 A 
ATOM      8  C   UNL     1       7.812  -2.497  25.653  0.00  0.00    +0.285 A 
ATOM      9  C   UNL     1       8.650  -1.700  24.867  0.00  0.00    +0.133 A 
ATOM     10  C   UNL     1       8.631  -0.315  25.093  0.00  0.00    +0.042 A 
BRANCH   9  11
ATOM     11  C   UNL     1       9.562  -2.263  23.807  0.00  0.00    +0.424 C 
ATOM     12  F   UNL     1       8.896  -2.626  22.682  0.00  0.00    -0.166 F 
ATOM     13  F   UNL     1      10.267  -3.343  24.226  0.00  0.00    -0.166 F 
ATOM     14  F   UNL     1      10.503  -1.360  23.402  0.00  0.00    -0.166 F 
ENDBRANCH   9  11
BRANCH   8  15
ATOM     15  N   UNL     1       7.701  -3.932  25.408  0.00  0.00    +0.080 N 
ATOM     16  O   UNL     1       8.357  -4.677  26.145  0.00  0.00    +0.041 OA
ATOM     17  O   UNL     1       6.977  -4.293  24.476  0.00  0.00    -0.576 OA
ENDBRANCH   8  15
ENDBRANCH   2   5
BRANCH   1  19
ATOM     18  C   UNL     1       6.014   4.787  25.636  0.00  0.00    +0.055 C 
ATOM     19  C   UNL     1       7.278   4.023  26.048  0.00  0.00    +0.173 C 
BRANCH  19  20
ATOM     20  O   UNL     1       7.493   4.294  27.442  0.00  0.00    -0.376 OA
ATOM     21  H   UNL     1       8.384   3.990  27.686  0.00  0.00    +0.211 HD
ENDBRANCH  19  20
BRANCH  19  22
ATOM     22  C   UNL     1       8.495   4.573  25.284  0.00  0.00    +0.273 C 
BRANCH  22  23
ATOM     23  O   UNL     1       8.227   4.659  23.887  0.00  0.00    -0.489 OA
BRANCH  23  24
ATOM     24  C   UNL     1       8.499   3.546  23.137  0.00  0.00    +0.121 A 
ATOM     25  C   UNL     1       9.771   3.000  23.340  0.00  0.00    +0.048 A 
ATOM     26  C   UNL     1      10.171   1.860  22.640  0.00  0.00    +0.042 A 
ATOM     27  C   UNL     1       9.295   1.273  21.736  0.00  0.00    +0.124 A 
ATOM     28  F   UNL     1       9.673   0.177  21.065  0.00  0.00    -0.205 F 
ATOM     29  C   UNL     1       8.030   1.804  21.522  0.00  0.00    +0.042 A 
ATOM     30  C   UNL     1       7.628   2.943  22.225  0.00  0.00    +0.048 A 
ENDBRANCH  23  24
ENDBRANCH  22  23
ENDBRANCH  19  22
ENDBRANCH   1  19
TORSDOF 8
ENDMDL
MODEL 9
REMARK VINA RESULT:      -6.9      1.218      1.761
REMARK  Name = 
REMARK  9 active torsions:
REMARK  status: ('A' for Active; 'I' for Inactive)
REMARK    1  A    between atoms: C_1  and  C_2
REMARK    2  A    between atoms: C_2  and  O_3
REMARK    3  A    between atoms: C_2  and  C_4
REMARK    4  A    between atoms: C_2  and  C_13
REMARK    5  A    between atoms: C_4  and  O_5
REMARK    6  A    between atoms: O_5  and  C_6
REMARK    7  A    between atoms: N_15  and  C_16
REMARK    8  A    between atoms: C_18  and  C_25
REMARK    9  A    between atoms: C_19  and  N_22
REMARK                            x       y       z     vdW  Elec       q    Type
REMARK                         _______ _______ _______ _____ _____    ______ ____
ROOT
ATOM      1  C   UNL     1       9.711  -0.163  23.985  0.00  0.00    +0.252 C 
ATOM      2  N   UNL     1       8.823   0.794  23.528  0.00  0.00    -0.283 N 
ATOM      3  H   UNL     1       8.091   0.515  22.888  0.00  0.00    +0.155 HD
ATOM      4  O   UNL     1      10.352  -0.022  25.028  0.00  0.00    -0.272 OA
ENDROOT
BRANCH   2   5
ATOM      5  C   UNL     1       8.723   2.089  24.063  0.00  0.00    +0.034 A 
ATOM      6  C   UNL     1       7.704   2.470  24.939  0.00  0.00    +0.030 A 
ATOM      7  C   UNL     1       7.693   3.760  25.478  0.00  0.00    +0.087 A 
ATOM      8  C   UNL     1       8.676   4.669  25.084  0.00  0.00    +0.285 A 
ATOM      9  C   UNL     1       9.681   4.328  24.173  0.00  0.00    +0.133 A 
ATOM     10  C   UNL     1       9.717   3.005  23.708  0.00  0.00    +0.042 A 
BRANCH   9  11
ATOM     11  C   UNL     1      10.708   5.313  23.677  0.00  0.00    +0.424 C 
ATOM     12  F   UNL     1      10.160   6.318  22.947  0.00  0.00    -0.166 F 
ATOM     13  F   UNL     1      11.674   4.743  22.915  0.00  0.00    -0.166 F 
ATOM     14  F   UNL     1      11.376   5.924  24.699  0.00  0.00    -0.166 F 
ENDBRANCH   9  11
BRANCH   8  15
ATOM     15  N   UNL     1       8.636   5.996  25.691  0.00  0.00    +0.080 N 
ATOM     16  O   UNL     1       9.213   6.131  26.776  0.00  0.00    +0.041 OA
ATOM     17  O   UNL     1       8.016   6.876  25.087  0.00  0.00    -0.576 OA
ENDBRANCH   8  15
ENDBRANCH   2   5
BRANCH   1  19
ATOM     18  C   UNL     1       8.450  -1.542  22.344  0.00  0.00    +0.055 C 
ATOM     19  C   UNL     1       9.715  -1.518  23.213  0.00  0.00    +0.173 C 
BRANCH  19  20
ATOM     20  O   UNL     1      10.835  -1.595  22.319  0.00  0.00    -0.376 OA
ATOM     21  H   UNL     1      10.763  -2.412  21.796  0.00  0.00    +0.211 HD
ENDBRANCH  19  20
BRANCH  19  22
ATOM     22  C   UNL     1       9.759  -2.767  24.109  0.00  0.00    +0.273 C 
BRANCH  22  23
ATOM     23  O   UNL     1       8.903  -3.790  23.605  0.00  0.00    -0.489 OA
BRANCH  23  24
ATOM     24  C   UNL     1       8.076  -4.402  24.507  0.00  0.00    +0.121 A 
ATOM     25  C   UNL     1       8.618  -4.555  25.789  0.00  0.00    +0.048 A 
ATOM     26  C   UNL     1       7.875  -5.159  26.804  0.00  0.00    +0.042 A 
ATOM     27  C   UNL     1       6.590  -5.613  26.530  0.00  0.00    +0.124 A 
ATOM     28  F   UNL     1       5.872  -6.190  27.502  0.00  0.00    -0.205 F 
ATOM     29  C   UNL     1       6.039  -5.472  25.264  0.00  0.00    +0.042 A 
ATOM     30  C   UNL     1       6.781  -4.863  24.248  0.00  0.00    +0.048 A 
ENDBRANCH  23  24
ENDBRANCH  22  23
ENDBRANCH  19  22
ENDBRANCH   1  19
TORSDOF 8
ENDMDL
