MODEL 1
REMARK VINA RESULT:      -6.1      0.000      0.000
REMARK  Name = 
REMARK  10 active torsions:
REMARK  status: ('A' for Active; 'I' for Inactive)
REMARK    1  A    between atoms: C_2  and  C_17
REMARK    2  A    between atoms: C_7  and  O_9
REMARK    3  A    between atoms: O_9  and  C_10
REMARK    4  A    between atoms: C_10  and  C_11
REMARK    5  A    between atoms: N_19  and  N_20
REMARK    6  A    between atoms: N_20  and  C_21
REMARK    7  A    between atoms: C_21  and  C_22
REMARK    8  A    between atoms: C_22  and  C_23
REMARK    9  A    between atoms: C_23  and  C_24
REMARK   10  A    between atoms: C_24  and  N_25
REMARK                            x       y       z     vdW  Elec       q    Type
REMARK                         _______ _______ _______ _____ _____    ______ ____
ROOT
ATOM      1  C   UNL     1       6.919  -3.149  22.650  0.00  0.00    +0.166 C 
ATOM      2  N   UNL     1       7.777  -4.018  23.463  0.00  0.00    -0.256 N 
ATOM      3  C   UNL     1       8.966  -3.637  24.042  0.00  0.00    +0.404 C 
ATOM      4  O   UNL     1       9.736  -4.434  24.561  0.00  0.00    -0.226 OA
ATOM      5  C   UNL     1       7.471  -5.423  23.271  0.00  0.00    +0.112 C 
ATOM      6  C   UNL     1       6.162  -5.437  22.500  0.00  0.00    +0.021 C 
ATOM      7  C   UNL     1       6.203  -4.130  21.713  0.00  0.00    +0.033 C 
ENDROOT
BRANCH   1   8
ATOM      8  C   UNL     1       5.874  -2.361  23.465  0.00  0.00    +0.247 C 
ATOM      9  N   UNL     1       6.202  -1.028  23.668  0.00  0.00    -0.249 N 
ATOM     10  H   UNL     1       6.868  -0.586  23.038  0.00  0.00    +0.169 HD
ATOM     11  O   UNL     1       4.944  -2.913  24.054  0.00  0.00    -0.272 OA
BRANCH   9  12
ATOM     12  N   UNL     1       5.437  -0.229  24.542  0.00  0.00    -0.241 NA
ATOM     13  H   UNL     1       5.559  -0.617  25.488  0.00  0.00    +0.144 HD
BRANCH  12  14
ATOM     14  C   UNL     1       5.924   1.158  24.553  0.00  0.00    +0.102 C 
BRANCH  14  15
ATOM     15  C   UNL     1       7.320   1.314  25.170  0.00  0.00    +0.018 C 
BRANCH  15  16
ATOM     16  C   UNL     1       7.386   0.845  26.628  0.00  0.00    +0.016 C 
BRANCH  16  17
ATOM     17  C   UNL     1       8.252  -0.401  26.811  0.00  0.00    +0.077 C 
BRANCH  17  18
ATOM     18  N   UNL     1       7.504  -1.624  26.549  0.00  0.00    -0.330 NA
ATOM     19  H   UNL     1       6.517  -1.463  26.746  0.00  0.00    +0.118 HD
ATOM     20  H   UNL     1       7.561  -1.852  25.557  0.00  0.00    +0.118 HD
ENDBRANCH  17  18
ENDBRANCH  16  17
ENDBRANCH  15  16
ENDBRANCH  14  15
ENDBRANCH  12  14
ENDBRANCH   9  12
ENDBRANCH   1   8
BRANCH   3  21
ATOM     21  O   UNL     1       9.167  -2.298  23.971  0.00  0.00    -0.445 OA
BRANCH  21  22
ATOM     22  C   UNL     1      10.246  -1.865  23.129  0.00  0.00    +0.269 C 
BRANCH  22  23
ATOM     23  C   UNL     1      10.252  -0.358  23.055  0.00  0.00    -0.010 A 
ATOM     24  C   UNL     1      10.746   0.410  24.121  0.00  0.00    +0.007 A 
ATOM     25  C   UNL     1      10.735   1.805  24.055  0.00  0.00    +0.000 A 
ATOM     26  C   UNL     1      10.229   2.446  22.925  0.00  0.00    +0.000 A 
ATOM     27  C   UNL     1       9.737   1.694  21.860  0.00  0.00    +0.000 A 
ATOM     28  C   UNL     1       9.748   0.300  21.924  0.00  0.00    +0.007 A 
ENDBRANCH  22  23
ENDBRANCH  21  22
ENDBRANCH   3  21
TORSDOF 10
ENDMDL
MODEL 2
REMARK VINA RESULT:      -5.9      0.954      1.668
REMARK  Name = 
REMARK  10 active torsions:
REMARK  status: ('A' for Active; 'I' for Inactive)
REMARK    1  A    between atoms: C_2  and  C_17
REMARK    2  A    between atoms: C_7  and  O_9
REMARK    3  A    between atoms: O_9  and  C_10
REMARK    4  A    between atoms: C_10  and  C_11
REMARK    5  A    between atoms: N_19  and  N_20
REMARK    6  A    between atoms: N_20  and  C_21
REMARK    7  A    between atoms: C_21  and  C_22
REMARK    8  A    between atoms: C_22  and  C_23
REMARK    9  A    between atoms: C_23  and  C_24
REMARK   10  A    between atoms: C_24  and  N_25
REMARK                            x       y       z     vdW  Elec       q    Type
REMARK                         _______ _______ _______ _____ _____    ______ ____
ROOT
ATOM      1  C   UNL     1       6.890  -3.323  22.633  0.00  0.00    +0.166 C 
ATOM      2  N   UNL     1       7.822  -4.074  23.482  0.00  0.00    -0.256 N 
ATOM      3  C   UNL     1       8.996  -3.578  24.000  0.00  0.00    +0.404 C 
ATOM      4  O   UNL     1       9.827  -4.285  24.554  0.00  0.00    -0.226 OA
ATOM      5  C   UNL     1       7.603  -5.506  23.399  0.00  0.00    +0.112 C 
ATOM      6  C   UNL     1       6.281  -5.659  22.667  0.00  0.00    +0.021 C 
ATOM      7  C   UNL     1       6.219  -4.413  21.788  0.00  0.00    +0.033 C 
ENDROOT
BRANCH   1   8
ATOM      8  C   UNL     1       5.815  -2.546  23.418  0.00  0.00    +0.247 C 
ATOM      9  N   UNL     1       6.158  -1.231  23.699  0.00  0.00    -0.249 N 
ATOM     10  H   UNL     1       6.870  -0.778  23.129  0.00  0.00    +0.169 HD
ATOM     11  O   UNL     1       4.840  -3.100  23.927  0.00  0.00    -0.272 OA
BRANCH   9  12
ATOM     12  N   UNL     1       5.359  -0.452  24.559  0.00  0.00    -0.241 NA
ATOM     13  H   UNL     1       4.772  -1.105  25.098  0.00  0.00    +0.144 HD
BRANCH  12  14
ATOM     14  C   UNL     1       6.187   0.303  25.512  0.00  0.00    +0.102 C 
BRANCH  14  15
ATOM     15  C   UNL     1       7.267   1.162  24.841  0.00  0.00    +0.018 C 
BRANCH  15  16
ATOM     16  C   UNL     1       6.807   2.599  24.572  0.00  0.00    +0.016 C 
BRANCH  16  17
ATOM     17  C   UNL     1       6.063   2.744  23.245  0.00  0.00    +0.077 C 
BRANCH  17  18
ATOM     18  N   UNL     1       6.279   1.595  22.374  0.00  0.00    -0.330 NA
ATOM     19  H   UNL     1       5.415   1.057  22.307  0.00  0.00    +0.118 HD
ATOM     20  H   UNL     1       6.484   1.919  21.430  0.00  0.00    +0.118 HD
ENDBRANCH  17  18
ENDBRANCH  16  17
ENDBRANCH  15  16
ENDBRANCH  14  15
ENDBRANCH  12  14
ENDBRANCH   9  12
ENDBRANCH   1   8
BRANCH   3  21
ATOM     21  O   UNL     1       9.107  -2.238  23.830  0.00  0.00    -0.445 OA
BRANCH  21  22
ATOM     22  C   UNL     1      10.179  -1.796  22.982  0.00  0.00    +0.269 C 
BRANCH  22  23
ATOM     23  C   UNL     1      10.234  -0.289  22.986  0.00  0.00    -0.010 A 
ATOM     24  C   UNL     1      10.750   0.407  24.089  0.00  0.00    +0.007 A 
ATOM     25  C   UNL     1      10.784   1.804  24.095  0.00  0.00    +0.000 A 
ATOM     26  C   UNL     1      10.301   2.518  23.000  0.00  0.00    +0.000 A 
ATOM     27  C   UNL     1       9.786   1.838  21.897  0.00  0.00    +0.000 A 
ATOM     28  C   UNL     1       9.752   0.443  21.890  0.00  0.00    +0.007 A 
ENDBRANCH  22  23
ENDBRANCH  21  22
ENDBRANCH   3  21
TORSDOF 10
ENDMDL
MODEL 3
REMARK VINA RESULT:      -5.9      2.054      2.887
REMARK  Name = 
REMARK  10 active torsions:
REMARK  status: ('A' for Active; 'I' for Inactive)
REMARK    1  A    between atoms: C_2  and  C_17
REMARK    2  A    between atoms: C_7  and  O_9
REMARK    3  A    between atoms: O_9  and  C_10
REMARK    4  A    between atoms: C_10  and  C_11
REMARK    5  A    between atoms: N_19  and  N_20
REMARK    6  A    between atoms: N_20  and  C_21
REMARK    7  A    between atoms: C_21  and  C_22
REMARK    8  A    between atoms: C_22  and  C_23
REMARK    9  A    between atoms: C_23  and  C_24
REMARK   10  A    between atoms: C_24  and  N_25
REMARK                            x       y       z     vdW  Elec       q    Type
REMARK                         _______ _______ _______ _____ _____    ______ ____
ROOT
ATOM      1  C   UNL     1       6.572  -3.833  22.303  0.00  0.00    +0.166 C 
ATOM      2  N   UNL     1       7.375  -4.867  22.965  0.00  0.00    -0.256 N 
ATOM      3  C   UNL     1       8.388  -4.627  23.865  0.00  0.00    +0.404 C 
ATOM      4  O   UNL     1       9.147  -5.503  24.258  0.00  0.00    -0.226 OA
ATOM      5  C   UNL     1       7.281  -6.148  22.289  0.00  0.00    +0.112 C 
ATOM      6  C   UNL     1       6.139  -5.987  21.301  0.00  0.00    +0.021 C 
ATOM      7  C   UNL     1       6.156  -4.494  20.983  0.00  0.00    +0.033 C 
ENDROOT
BRANCH   1   8
ATOM      8  C   UNL     1       5.312  -3.419  23.090  0.00  0.00    +0.247 C 
ATOM      9  N   UNL     1       5.561  -2.544  24.138  0.00  0.00    -0.249 N 
ATOM     10  H   UNL     1       6.416  -1.992  24.123  0.00  0.00    +0.169 HD
ATOM     11  O   UNL     1       4.224  -3.975  22.933  0.00  0.00    -0.272 OA
BRANCH   9  12
ATOM     12  N   UNL     1       4.540  -2.218  25.054  0.00  0.00    -0.241 NA
ATOM     13  H   UNL     1       3.673  -2.648  24.703  0.00  0.00    +0.144 HD
BRANCH  12  14
ATOM     14  C   UNL     1       4.821  -2.785  26.382  0.00  0.00    +0.102 C 
BRANCH  14  15
ATOM     15  C   UNL     1       4.422  -4.260  26.518  0.00  0.00    +0.018 C 
BRANCH  15  16
ATOM     16  C   UNL     1       5.619  -5.214  26.440  0.00  0.00    +0.016 C 
BRANCH  16  17
ATOM     17  C   UNL     1       6.829  -4.710  27.225  0.00  0.00    +0.077 C 
BRANCH  17  18
ATOM     18  N   UNL     1       7.899  -5.700  27.267  0.00  0.00    -0.330 NA
ATOM     19  H   UNL     1       7.492  -6.632  27.337  0.00  0.00    +0.118 HD
ATOM     20  H   UNL     1       8.413  -5.681  26.388  0.00  0.00    +0.118 HD
ENDBRANCH  17  18
ENDBRANCH  16  17
ENDBRANCH  15  16
ENDBRANCH  14  15
ENDBRANCH  12  14
ENDBRANCH   9  12
ENDBRANCH   1   8
BRANCH   3  21
ATOM     21  O   UNL     1       8.433  -3.330  24.255  0.00  0.00    -0.445 OA
BRANCH  21  22
ATOM     22  C   UNL     1       9.738  -2.734  24.317  0.00  0.00    +0.269 C 
BRANCH  22  23
ATOM     23  C   UNL     1       9.748  -1.461  23.507  0.00  0.00    -0.010 A 
ATOM     24  C   UNL     1       9.458  -1.483  22.135  0.00  0.00    +0.007 A 
ATOM     25  C   UNL     1       9.485  -0.305  21.384  0.00  0.00    +0.000 A 
ATOM     26  C   UNL     1       9.802   0.905  21.998  0.00  0.00    +0.000 A 
ATOM     27  C   UNL     1      10.091   0.940  23.361  0.00  0.00    +0.000 A 
ATOM     28  C   UNL     1      10.065  -0.236  24.112  0.00  0.00    +0.007 A 
ENDBRANCH  22  23
ENDBRANCH  21  22
ENDBRANCH   3  21
TORSDOF 10
ENDMDL
MODEL 4
REMARK VINA RESULT:      -5.5      2.380      5.952
REMARK  Name = 
REMARK  10 active torsions:
REMARK  status: ('A' for Active; 'I' for Inactive)
REMARK    1  A    between atoms: C_2  and  C_17
REMARK    2  A    between atoms: C_7  and  O_9
REMARK    3  A    between atoms: O_9  and  C_10
REMARK    4  A    between atoms: C_10  and  C_11
REMARK    5  A    between atoms: N_19  and  N_20
REMARK    6  A    between atoms: N_20  and  C_21
REMARK    7  A    between atoms: C_21  and  C_22
REMARK    8  A    between atoms: C_22  and  C_23
REMARK    9  A    between atoms: C_23  and  C_24
REMARK   10  A    between atoms: C_24  and  N_25
REMARK                            x       y       z     vdW  Elec       q    Type
REMARK                         _______ _______ _______ _____ _____    ______ ____
ROOT
ATOM      1  C   UNL     1       8.719  -0.593  22.699  0.00  0.00    +0.166 C 
ATOM      2  N   UNL     1       8.763   0.391  23.786  0.00  0.00    -0.256 N 
ATOM      3  C   UNL     1       7.984   0.353  24.920  0.00  0.00    +0.404 C 
ATOM      4  O   UNL     1       7.924   1.282  25.715  0.00  0.00    -0.226 OA
ATOM      5  C   UNL     1       9.409   1.625  23.380  0.00  0.00    +0.112 C 
ATOM      6  C   UNL     1      10.055   1.308  22.043  0.00  0.00    +0.021 C 
ATOM      7  C   UNL     1       9.160   0.212  21.470  0.00  0.00    +0.033 C 
ENDROOT
BRANCH   1   8
ATOM      8  C   UNL     1       9.670  -1.790  22.898  0.00  0.00    +0.247 C 
ATOM      9  N   UNL     1       9.257  -2.685  23.875  0.00  0.00    -0.249 N 
ATOM     10  H   UNL     1       8.274  -2.703  24.139  0.00  0.00    +0.169 HD
ATOM     11  O   UNL     1      10.790  -1.835  22.388  0.00  0.00    -0.272 OA
BRANCH   9  12
ATOM     12  N   UNL     1      10.108  -3.728  24.294  0.00  0.00    -0.241 NA
ATOM     13  H   UNL     1      10.807  -3.311  24.924  0.00  0.00    +0.144 HD
BRANCH  12  14
ATOM     14  C   UNL     1       9.364  -4.745  25.053  0.00  0.00    +0.102 C 
BRANCH  14  15
ATOM     15  C   UNL     1       7.856  -4.474  25.129  0.00  0.00    +0.018 C 
BRANCH  15  16
ATOM     16  C   UNL     1       7.089  -5.567  25.881  0.00  0.00    +0.016 C 
BRANCH  16  17
ATOM     17  C   UNL     1       6.875  -5.232  27.357  0.00  0.00    +0.077 C 
BRANCH  17  18
ATOM     18  N   UNL     1       7.286  -6.327  28.227  0.00  0.00    -0.330 NA
ATOM     19  H   UNL     1       8.283  -6.244  28.423  0.00  0.00    +0.118 HD
ATOM     20  H   UNL     1       6.813  -6.242  29.126  0.00  0.00    +0.118 HD
ENDBRANCH  17  18
ENDBRANCH  16  17
ENDBRANCH  15  16
ENDBRANCH  14  15
ENDBRANCH  12  14
ENDBRANCH   9  12
ENDBRANCH   1   8
BRANCH   3  21
ATOM     21  O   UNL     1       7.313  -0.818  25.043  0.00  0.00    -0.445 OA
BRANCH  21  22
ATOM     22  C   UNL     1       5.880  -0.732  24.993  0.00  0.00    +0.269 C 
BRANCH  22  23
ATOM     23  C   UNL     1       5.319  -2.025  24.454  0.00  0.00    -0.010 A 
ATOM     24  C   UNL     1       4.421  -2.790  25.215  0.00  0.00    +0.007 A 
ATOM     25  C   UNL     1       3.917  -3.994  24.719  0.00  0.00    +0.000 A 
ATOM     26  C   UNL     1       4.303  -4.446  23.459  0.00  0.00    +0.000 A 
ATOM     27  C   UNL     1       5.193  -3.694  22.692  0.00  0.00    +0.000 A 
ATOM     28  C   UNL     1       5.698  -2.491  23.187  0.00  0.00    +0.007 A 
ENDBRANCH  22  23
ENDBRANCH  21  22
ENDBRANCH   3  21
TORSDOF 10
ENDMDL
MODEL 5
REMARK VINA RESULT:      -5.5      1.527      1.987
REMARK  Name = 
REMARK  10 active torsions:
REMARK  status: ('A' for Active; 'I' for Inactive)
REMARK    1  A    between atoms: C_2  and  C_17
REMARK    2  A    between atoms: C_7  and  O_9
REMARK    3  A    between atoms: O_9  and  C_10
REMARK    4  A    between atoms: C_10  and  C_11
REMARK    5  A    between atoms: N_19  and  N_20
REMARK    6  A    between atoms: N_20  and  C_21
REMARK    7  A    between atoms: C_21  and  C_22
REMARK    8  A    between atoms: C_22  and  C_23
REMARK    9  A    between atoms: C_23  and  C_24
REMARK   10  A    between atoms: C_24  and  N_25
REMARK                            x       y       z     vdW  Elec       q    Type
REMARK                         _______ _______ _______ _____ _____    ______ ____
ROOT
ATOM      1  C   UNL     1       6.356  -3.504  23.629  0.00  0.00    +0.166 C 
ATOM      2  N   UNL     1       7.612  -3.841  24.308  0.00  0.00    -0.256 N 
ATOM      3  C   UNL     1       8.857  -3.385  23.939  0.00  0.00    +0.404 C 
ATOM      4  O   UNL     1       9.893  -3.826  24.419  0.00  0.00    -0.226 OA
ATOM      5  C   UNL     1       7.479  -5.012  25.154  0.00  0.00    +0.112 C 
ATOM      6  C   UNL     1       5.985  -5.273  25.230  0.00  0.00    +0.021 C 
ATOM      7  C   UNL     1       5.463  -4.720  23.907  0.00  0.00    +0.033 C 
ENDROOT
BRANCH   1   8
ATOM      8  C   UNL     1       5.673  -2.232  24.169  0.00  0.00    +0.247 C 
ATOM      9  N   UNL     1       6.153  -1.053  23.614  0.00  0.00    -0.249 N 
ATOM     10  H   UNL     1       6.629  -1.093  22.716  0.00  0.00    +0.169 HD
ATOM     11  O   UNL     1       4.925  -2.248  25.147  0.00  0.00    -0.272 OA
BRANCH   9  12
ATOM     12  N   UNL     1       5.755   0.195  24.135  0.00  0.00    -0.241 NA
ATOM     13  H   UNL     1       5.051   0.007  24.863  0.00  0.00    +0.144 HD
BRANCH  12  14
ATOM     14  C   UNL     1       6.886   0.890  24.767  0.00  0.00    +0.102 C 
BRANCH  14  15
ATOM     15  C   UNL     1       6.885   2.406  24.534  0.00  0.00    +0.018 C 
BRANCH  15  16
ATOM     16  C   UNL     1       7.436   3.195  25.727  0.00  0.00    +0.016 C 
BRANCH  16  17
ATOM     17  C   UNL     1       6.566   3.065  26.976  0.00  0.00    +0.077 C 
BRANCH  17  18
ATOM     18  N   UNL     1       7.368   2.949  28.187  0.00  0.00    -0.330 NA
ATOM     19  H   UNL     1       6.798   3.199  28.994  0.00  0.00    +0.118 HD
ATOM     20  H   UNL     1       7.639   1.975  28.323  0.00  0.00    +0.118 HD
ENDBRANCH  17  18
ENDBRANCH  16  17
ENDBRANCH  15  16
ENDBRANCH  14  15
ENDBRANCH  12  14
ENDBRANCH   9  12
ENDBRANCH   1   8
BRANCH   3  21
ATOM     21  O   UNL     1       8.791  -2.406  23.005  0.00  0.00    -0.445 OA
BRANCH  21  22
ATOM     22  C   UNL     1      10.047  -1.889  22.541  0.00  0.00    +0.269 C 
BRANCH  22  23
ATOM     23  C   UNL     1      10.118  -0.409  22.827  0.00  0.00    -0.010 A 
ATOM     24  C   UNL     1       9.790   0.528  21.835  0.00  0.00    +0.007 A 
ATOM     25  C   UNL     1       9.872   1.898  22.099  0.00  0.00    +0.000 A 
ATOM     26  C   UNL     1      10.283   2.344  23.353  0.00  0.00    +0.000 A 
ATOM     27  C   UNL     1      10.610   1.422  24.347  0.00  0.00    +0.000 A 
ATOM     28  C   UNL     1      10.528   0.054  24.085  0.00  0.00    +0.007 A 
ENDBRANCH  22  23
ENDBRANCH  21  22
ENDBRANCH   3  21
TORSDOF 10
ENDMDL
MODEL 6
REMARK VINA RESULT:      -5.4      2.169      4.266
REMARK  Name = 
REMARK  10 active torsions:
REMARK  status: ('A' for Active; 'I' for Inactive)
REMARK    1  A    between atoms: C_2  and  C_17
REMARK    2  A    between atoms: C_7  and  O_9
REMARK    3  A    between atoms: O_9  and  C_10
REMARK    4  A    between atoms: C_10  and  C_11
REMARK    5  A    between atoms: N_19  and  N_20
REMARK    6  A    between atoms: N_20  and  C_21
REMARK    7  A    between atoms: C_21  and  C_22
REMARK    8  A    between atoms: C_22  and  C_23
REMARK    9  A    between atoms: C_23  and  C_24
REMARK   10  A    between atoms: C_24  and  N_25
REMARK                            x       y       z     vdW  Elec       q    Type
REMARK                         _______ _______ _______ _____ _____    ______ ____
ROOT
ATOM      1  C   UNL     1       8.374  -4.117  25.779  0.00  0.00    +0.166 C 
ATOM      2  N   UNL     1       7.525  -3.038  26.296  0.00  0.00    -0.256 N 
ATOM      3  C   UNL     1       7.881  -1.710  26.356  0.00  0.00    +0.404 C 
ATOM      4  O   UNL     1       7.218  -0.872  26.952  0.00  0.00    -0.226 OA
ATOM      5  C   UNL     1       6.434  -3.543  27.109  0.00  0.00    +0.112 C 
ATOM      6  C   UNL     1       6.430  -5.043  26.871  0.00  0.00    +0.021 C 
ATOM      7  C   UNL     1       7.890  -5.353  26.548  0.00  0.00    +0.033 C 
ENDROOT
BRANCH   1   8
ATOM      8  C   UNL     1       8.224  -4.362  24.265  0.00  0.00    +0.247 C 
ATOM      9  N   UNL     1       7.532  -3.362  23.596  0.00  0.00    -0.249 N 
ATOM     10  H   UNL     1       7.471  -2.439  24.021  0.00  0.00    +0.169 HD
ATOM     11  O   UNL     1       8.507  -5.439  23.739  0.00  0.00    -0.272 OA
BRANCH   9  12
ATOM     12  N   UNL     1       7.161  -3.531  22.246  0.00  0.00    -0.241 NA
ATOM     13  H   UNL     1       7.398  -4.499  21.987  0.00  0.00    +0.144 HD
BRANCH  12  14
ATOM     14  C   UNL     1       5.711  -3.358  22.071  0.00  0.00    +0.102 C 
BRANCH  14  15
ATOM     15  C   UNL     1       4.883  -3.865  23.259  0.00  0.00    +0.018 C 
BRANCH  15  16
ATOM     16  C   UNL     1       4.286  -5.257  23.021  0.00  0.00    +0.016 C 
BRANCH  16  17
ATOM     17  C   UNL     1       5.071  -6.366  23.721  0.00  0.00    +0.077 C 
BRANCH  17  18
ATOM     18  N   UNL     1       4.214  -7.485  24.093  0.00  0.00    -0.330 NA
ATOM     19  H   UNL     1       4.782  -8.327  24.185  0.00  0.00    +0.118 HD
ATOM     20  H   UNL     1       3.811  -7.313  25.013  0.00  0.00    +0.118 HD
ENDBRANCH  17  18
ENDBRANCH  16  17
ENDBRANCH  15  16
ENDBRANCH  14  15
ENDBRANCH  12  14
ENDBRANCH   9  12
ENDBRANCH   1   8
BRANCH   3  21
ATOM     21  O   UNL     1       9.028  -1.455  25.681  0.00  0.00    -0.445 OA
BRANCH  21  22
ATOM     22  C   UNL     1       9.543  -0.119  25.793  0.00  0.00    +0.269 C 
BRANCH  22  23
ATOM     23  C   UNL     1       9.700   0.476  24.416  0.00  0.00    -0.010 A 
ATOM     24  C   UNL     1       9.883   1.857  24.248  0.00  0.00    +0.007 A 
ATOM     25  C   UNL     1      10.011   2.407  22.971  0.00  0.00    +0.000 A 
ATOM     26  C   UNL     1       9.957   1.583  21.848  0.00  0.00    +0.000 A 
ATOM     27  C   UNL     1       9.776   0.209  22.002  0.00  0.00    +0.000 A 
ATOM     28  C   UNL     1       9.648  -0.341  23.277  0.00  0.00    +0.007 A 
ENDBRANCH  22  23
ENDBRANCH  21  22
ENDBRANCH   3  21
TORSDOF 10
ENDMDL
MODEL 7
REMARK VINA RESULT:      -5.3      2.404      6.442
REMARK  Name = 
REMARK  10 active torsions:
REMARK  status: ('A' for Active; 'I' for Inactive)
REMARK    1  A    between atoms: C_2  and  C_17
REMARK    2  A    between atoms: C_7  and  O_9
REMARK    3  A    between atoms: O_9  and  C_10
REMARK    4  A    between atoms: C_10  and  C_11
REMARK    5  A    between atoms: N_19  and  N_20
REMARK    6  A    between atoms: N_20  and  C_21
REMARK    7  A    between atoms: C_21  and  C_22
REMARK    8  A    between atoms: C_22  and  C_23
REMARK    9  A    between atoms: C_23  and  C_24
REMARK   10  A    between atoms: C_24  and  N_25
REMARK                            x       y       z     vdW  Elec       q    Type
REMARK                         _______ _______ _______ _____ _____    ______ ____
ROOT
ATOM      1  C   UNL     1       8.577  -0.483  22.389  0.00  0.00    +0.166 C 
ATOM      2  N   UNL     1       8.385   0.437  23.516  0.00  0.00    -0.256 N 
ATOM      3  C   UNL     1       7.349   0.376  24.419  0.00  0.00    +0.404 C 
ATOM      4  O   UNL     1       7.128   1.262  25.234  0.00  0.00    -0.226 OA
ATOM      5  C   UNL     1       9.155   1.657  23.362  0.00  0.00    +0.112 C 
ATOM      6  C   UNL     1      10.101   1.381  22.206  0.00  0.00    +0.021 C 
ATOM      7  C   UNL     1       9.337   0.365  21.361  0.00  0.00    +0.033 C 
ENDROOT
BRANCH   1   8
ATOM      8  C   UNL     1       9.406  -1.735  22.736  0.00  0.00    +0.247 C 
ATOM      9  N   UNL     1       8.795  -2.584  23.649  0.00  0.00    -0.249 N 
ATOM     10  H   UNL     1       7.785  -2.532  23.765  0.00  0.00    +0.169 HD
ATOM     11  O   UNL     1      10.583  -1.863  22.397  0.00  0.00    -0.272 OA
BRANCH   9  12
ATOM     12  N   UNL     1       9.503  -3.672  24.197  0.00  0.00    -0.241 NA
ATOM     13  H   UNL     1       9.786  -3.398  25.149  0.00  0.00    +0.144 HD
BRANCH  12  14
ATOM     14  C   UNL     1       8.644  -4.861  24.305  0.00  0.00    +0.102 C 
BRANCH  14  15
ATOM     15  C   UNL     1       7.392  -4.798  23.421  0.00  0.00    +0.018 C 
BRANCH  15  16
ATOM     16  C   UNL     1       7.360  -5.892  22.349  0.00  0.00    +0.016 C 
BRANCH  16  17
ATOM     17  C   UNL     1       6.175  -5.752  21.395  0.00  0.00    +0.077 C 
BRANCH  17  18
ATOM     18  N   UNL     1       4.910  -6.059  22.052  0.00  0.00    -0.330 NA
ATOM     19  H   UNL     1       4.940  -7.013  22.410  0.00  0.00    +0.118 HD
ATOM     20  H   UNL     1       4.795  -5.455  22.865  0.00  0.00    +0.118 HD
ENDBRANCH  17  18
ENDBRANCH  16  17
ENDBRANCH  15  16
ENDBRANCH  14  15
ENDBRANCH  12  14
ENDBRANCH   9  12
ENDBRANCH   1   8
BRANCH   3  21
ATOM     21  O   UNL     1       6.627  -0.764  24.298  0.00  0.00    -0.445 OA
BRANCH  21  22
ATOM     22  C   UNL     1       5.523  -0.912  25.204  0.00  0.00    +0.269 C 
BRANCH  22  23
ATOM     23  C   UNL     1       5.421  -2.353  25.640  0.00  0.00    -0.010 A 
ATOM     24  C   UNL     1       4.435  -3.195  25.104  0.00  0.00    +0.007 A 
ATOM     25  C   UNL     1       4.333  -4.524  25.522  0.00  0.00    +0.000 A 
ATOM     26  C   UNL     1       5.213  -5.024  26.479  0.00  0.00    +0.000 A 
ATOM     27  C   UNL     1       6.198  -4.197  27.018  0.00  0.00    +0.000 A 
ATOM     28  C   UNL     1       6.301  -2.869  26.601  0.00  0.00    +0.007 A 
ENDBRANCH  22  23
ENDBRANCH  21  22
ENDBRANCH   3  21
TORSDOF 10
ENDMDL
MODEL 8
REMARK VINA RESULT:      -5.3      2.340      5.316
REMARK  Name = 
REMARK  10 active torsions:
REMARK  status: ('A' for Active; 'I' for Inactive)
REMARK    1  A    between atoms: C_2  and  C_17
REMARK    2  A    between atoms: C_7  and  O_9
REMARK    3  A    between atoms: O_9  and  C_10
REMARK    4  A    between atoms: C_10  and  C_11
REMARK    5  A    between atoms: N_19  and  N_20
REMARK    6  A    between atoms: N_20  and  C_21
REMARK    7  A    between atoms: C_21  and  C_22
REMARK    8  A    between atoms: C_22  and  C_23
REMARK    9  A    between atoms: C_23  and  C_24
REMARK   10  A    between atoms: C_24  and  N_25
REMARK                            x       y       z     vdW  Elec       q    Type
REMARK                         _______ _______ _______ _____ _____    ______ ____
ROOT
ATOM      1  C   UNL     1       8.518  -3.110  24.604  0.00  0.00    +0.166 C 
ATOM      2  N   UNL     1       8.352  -4.447  24.023  0.00  0.00    -0.256 N 
ATOM      3  C   UNL     1       7.603  -4.737  22.906  0.00  0.00    +0.404 C 
ATOM      4  O   UNL     1       7.348  -5.882  22.558  0.00  0.00    -0.226 OA
ATOM      5  C   UNL     1       8.716  -5.497  24.956  0.00  0.00    +0.112 C 
ATOM      6  C   UNL     1       9.412  -4.780  26.101  0.00  0.00    +0.021 C 
ATOM      7  C   UNL     1       8.772  -3.394  26.090  0.00  0.00    +0.033 C 
ENDROOT
BRANCH   1   8
ATOM      8  C   UNL     1       9.705  -2.317  24.023  0.00  0.00    +0.247 C 
ATOM      9  N   UNL     1       9.560  -0.939  24.105  0.00  0.00    -0.249 N 
ATOM     10  H   UNL     1       8.913  -0.554  24.791  0.00  0.00    +0.169 HD
ATOM     11  O   UNL     1      10.596  -2.852  23.363  0.00  0.00    -0.272 OA
BRANCH   9  12
ATOM     12  N   UNL     1      10.475  -0.084  23.458  0.00  0.00    -0.241 NA
ATOM     13  H   UNL     1      11.312  -0.646  23.243  0.00  0.00    +0.144 HD
BRANCH  12  14
ATOM     14  C   UNL     1       9.927   0.414  22.187  0.00  0.00    +0.102 C 
BRANCH  14  15
ATOM     15  C   UNL     1       9.874   1.944  22.098  0.00  0.00    +0.018 C 
BRANCH  15  16
ATOM     16  C   UNL     1      10.330   2.635  23.389  0.00  0.00    +0.016 C 
BRANCH  16  17
ATOM     17  C   UNL     1       9.162   3.038  24.289  0.00  0.00    +0.077 C 
BRANCH  17  18
ATOM     18  N   UNL     1       8.798   1.973  25.215  0.00  0.00    -0.330 NA
ATOM     19  H   UNL     1       8.642   2.371  26.140  0.00  0.00    +0.118 HD
ATOM     20  H   UNL     1       7.910   1.563  24.929  0.00  0.00    +0.118 HD
ENDBRANCH  17  18
ENDBRANCH  16  17
ENDBRANCH  15  16
ENDBRANCH  14  15
ENDBRANCH  12  14
ENDBRANCH   9  12
ENDBRANCH   1   8
BRANCH   3  21
ATOM     21  O   UNL     1       7.200  -3.620  22.253  0.00  0.00    -0.445 OA
BRANCH  21  22
ATOM     22  C   UNL     1       5.803  -3.548  21.929  0.00  0.00    +0.269 C 
BRANCH  22  23
ATOM     23  C   UNL     1       4.992  -3.555  23.201  0.00  0.00    -0.010 A 
ATOM     24  C   UNL     1       4.008  -4.533  23.418  0.00  0.00    +0.007 A 
ATOM     25  C   UNL     1       3.248  -4.527  24.590  0.00  0.00    +0.000 A 
ATOM     26  C   UNL     1       3.461  -3.544  25.555  0.00  0.00    +0.000 A 
ATOM     27  C   UNL     1       4.436  -2.569  25.351  0.00  0.00    +0.000 A 
ATOM     28  C   UNL     1       5.197  -2.574  24.182  0.00  0.00    +0.007 A 
ENDBRANCH  22  23
ENDBRANCH  21  22
ENDBRANCH   3  21
TORSDOF 10
ENDMDL
MODEL 9
REMARK VINA RESULT:      -5.2      2.491      5.683
REMARK  Name = 
REMARK  10 active torsions:
REMARK  status: ('A' for Active; 'I' for Inactive)
REMARK    1  A    between atoms: C_2  and  C_17
REMARK    2  A    between atoms: C_7  and  O_9
REMARK    3  A    between atoms: O_9  and  C_10
REMARK    4  A    between atoms: C_10  and  C_11
REMARK    5  A    between atoms: N_19  and  N_20
REMARK    6  A    between atoms: N_20  and  C_21
REMARK    7  A    between atoms: C_21  and  C_22
REMARK    8  A    between atoms: C_22  and  C_23
REMARK    9  A    between atoms: C_23  and  C_24
REMARK   10  A    between atoms: C_24  and  N_25
REMARK                            x       y       z     vdW  Elec       q    Type
REMARK                         _______ _______ _______ _____ _____    ______ ____
ROOT
ATOM      1  C   UNL     1       6.969   1.978  23.736  0.00  0.00    +0.166 C 
ATOM      2  N   UNL     1       8.080   2.879  23.407  0.00  0.00    -0.256 N 
ATOM      3  C   UNL     1       9.308   2.880  24.028  0.00  0.00    +0.404 C 
ATOM      4  O   UNL     1      10.142   3.757  23.847  0.00  0.00    -0.226 OA
ATOM      5  C   UNL     1       7.641   4.033  22.646  0.00  0.00    +0.112 C 
ATOM      6  C   UNL     1       6.215   3.712  22.234  0.00  0.00    +0.021 C 
ATOM      7  C   UNL     1       5.726   2.788  23.346  0.00  0.00    +0.033 C 
ENDROOT
BRANCH   1   8
ATOM      8  C   UNL     1       6.985   0.651  22.952  0.00  0.00    +0.247 C 
ATOM      9  N   UNL     1       6.204  -0.348  23.516  0.00  0.00    -0.249 N 
ATOM     10  H   UNL     1       5.456  -0.084  24.153  0.00  0.00    +0.169 HD
ATOM     11  O   UNL     1       7.776   0.436  22.033  0.00  0.00    -0.272 OA
BRANCH   9  12
ATOM     12  N   UNL     1       6.259  -1.665  23.015  0.00  0.00    -0.241 NA
ATOM     13  H   UNL     1       7.247  -1.955  23.037  0.00  0.00    +0.144 HD
BRANCH  12  14
ATOM     14  C   UNL     1       5.497  -2.588  23.870  0.00  0.00    +0.102 C 
BRANCH  14  15
ATOM     15  C   UNL     1       5.126  -3.905  23.176  0.00  0.00    +0.018 C 
BRANCH  15  16
ATOM     16  C   UNL     1       6.203  -4.985  23.329  0.00  0.00    +0.016 C 
BRANCH  16  17
ATOM     17  C   UNL     1       6.907  -5.310  22.012  0.00  0.00    +0.077 C 
BRANCH  17  18
ATOM     18  N   UNL     1       6.002  -5.212  20.874  0.00  0.00    -0.330 NA
ATOM     19  H   UNL     1       5.538  -4.304  20.890  0.00  0.00    +0.118 HD
ATOM     20  H   UNL     1       6.540  -5.239  20.009  0.00  0.00    +0.118 HD
ENDBRANCH  17  18
ENDBRANCH  16  17
ENDBRANCH  15  16
ENDBRANCH  14  15
ENDBRANCH  12  14
ENDBRANCH   9  12
ENDBRANCH   1   8
BRANCH   3  21
ATOM     21  O   UNL     1       9.474   1.808  24.841  0.00  0.00    -0.445 OA
BRANCH  21  22
ATOM     22  C   UNL     1      10.381   0.797  24.377  0.00  0.00    +0.269 C 
BRANCH  22  23
ATOM     23  C   UNL     1       9.808  -0.567  24.673  0.00  0.00    -0.010 A 
ATOM     24  C   UNL     1       9.016  -0.779  25.811  0.00  0.00    +0.007 A 
ATOM     25  C   UNL     1       8.500  -2.047  26.091  0.00  0.00    +0.000 A 
ATOM     26  C   UNL     1       8.772  -3.114  25.237  0.00  0.00    +0.000 A 
ATOM     27  C   UNL     1       9.557  -2.915  24.102  0.00  0.00    +0.000 A 
ATOM     28  C   UNL     1      10.073  -1.649  23.822  0.00  0.00    +0.007 A 
ENDBRANCH  22  23
ENDBRANCH  21  22
ENDBRANCH   3  21
TORSDOF 10
ENDMDL
