MODEL 1
REMARK VINA RESULT:      -7.8      0.000      0.000
REMARK  Name = 
REMARK  5 active torsions:
REMARK  status: ('A' for Active; 'I' for Inactive)
REMARK    1  A    between atoms: C_1  and  C_2
REMARK    2  A    between atoms: C_2  and  C_4
REMARK    3  A    between atoms: C_5  and  C_6
REMARK    4  A    between atoms: C_15  and  N_18
REMARK    5  A    between atoms: N_26  and  C_27
REMARK                            x       y       z     vdW  Elec       q    Type
REMARK                         _______ _______ _______ _____ _____    ______ ____
ROOT
ATOM      1  C   UNL     1       9.025   4.125  24.294  0.00  0.00    +0.085 A 
ATOM      2  C   UNL     1       7.767   3.498  24.815  0.00  0.00    +0.264 A 
ATOM      3  O   UNL     1       6.819   4.228  25.104  0.00  0.00    -0.267 OA
ATOM      4  N   UNL     1       7.710   2.130  24.969  0.00  0.00    -0.289 N 
ATOM      5  C   UNL     1       8.766   1.285  24.537  0.00  0.00    +0.149 A 
ATOM      6  C   UNL     1       9.912   1.866  24.025  0.00  0.00    +0.040 A 
ATOM      7  C   UNL     1      10.899   0.952  23.702  0.00  0.00    +0.126 A 
ATOM      8  N   UNL     1      10.807  -0.383  23.875  0.00  0.00    -0.222 NA
ATOM      9  C   UNL     1       9.641  -0.857  24.313  0.00  0.00    +0.222 A 
ATOM     10  N   UNL     1       9.530  -2.235  24.430  0.00  0.00    -0.268 N 
ATOM     11  H   UNL     1      10.345  -2.665  24.834  0.00  0.00    +0.156 HD
ATOM     12  C   UNL     1       8.396  -3.039  24.435  0.00  0.00    +0.125 A 
ATOM     13  C   UNL     1       7.305  -2.725  23.637  0.00  0.00    +0.045 A 
ATOM     14  C   UNL     1       6.238  -3.615  23.546  0.00  0.00    +0.028 A 
ATOM     15  C   UNL     1       6.223  -4.789  24.292  0.00  0.00    +0.048 A 
ATOM     16  C   UNL     1       7.335  -4.993  25.105  0.00  0.00    +0.136 A 
ATOM     17  N   UNL     1       8.426  -4.176  25.165  0.00  0.00    -0.238 NA
ATOM     18  N   UNL     1       8.621  -0.055  24.654  0.00  0.00    -0.196 NA
ATOM     19  C   UNL     1      10.058   3.339  23.898  0.00  0.00    -0.023 A 
ATOM     20  C   UNL     1      11.386   3.821  23.360  0.00  0.00    +0.045 C 
ENDROOT
BRANCH  15  21
ATOM     21  N   UNL     1       5.126  -5.621  24.196  0.00  0.00    -0.326 N 
ATOM     22  C   UNL     1       4.571  -5.857  22.851  0.00  0.00    +0.120 C 
ATOM     23  C   UNL     1       3.056  -6.137  22.985  0.00  0.00    +0.100 C 
ATOM     24  N   UNL     1       2.728  -7.229  23.928  0.00  0.00    -0.313 NA
ATOM     25  H   UNL     1       1.721  -7.223  24.092  0.00  0.00    +0.122 HD
ATOM     26  C   UNL     1       3.418  -7.019  25.221  0.00  0.00    +0.100 C 
ATOM     27  C   UNL     1       4.943  -6.767  25.090  0.00  0.00    +0.120 C 
ENDBRANCH  15  21
BRANCH   4  28
ATOM     28  C   UNL     1       6.591   1.602  25.762  0.00  0.00    +0.092 C 
ATOM     29  C   UNL     1       6.994   1.103  27.154  0.00  0.00    +0.025 C 
ATOM     30  C   UNL     1       5.888   0.128  27.563  0.00  0.00    +0.002 C 
ATOM     31  C   UNL     1       4.879   0.119  26.416  0.00  0.00    +0.002 C 
ATOM     32  C   UNL     1       5.693   0.512  25.187  0.00  0.00    +0.025 C 
ENDBRANCH   4  28
BRANCH   1  34
ATOM     33  C   UNL     1       8.664   6.358  22.987  0.00  0.00    +0.092 C 
ATOM     34  C   UNL     1       9.091   5.638  24.250  0.00  0.00    +0.166 C 
ATOM     35  O   UNL     1       9.487   6.291  25.214  0.00  0.00    -0.292 OA
ENDBRANCH   1  34
TORSDOF 3
ENDMDL
MODEL 2
REMARK VINA RESULT:      -7.7      4.076      9.536
REMARK  Name = 
REMARK  5 active torsions:
REMARK  status: ('A' for Active; 'I' for Inactive)
REMARK    1  A    between atoms: C_1  and  C_2
REMARK    2  A    between atoms: C_2  and  C_4
REMARK    3  A    between atoms: C_5  and  C_6
REMARK    4  A    between atoms: C_15  and  N_18
REMARK    5  A    between atoms: N_26  and  C_27
REMARK                            x       y       z     vdW  Elec       q    Type
REMARK                         _______ _______ _______ _____ _____    ______ ____
ROOT
ATOM      1  C   UNL     1       2.489  -6.756  27.869  0.00  0.00    +0.085 A 
ATOM      2  C   UNL     1       2.552  -6.071  26.537  0.00  0.00    +0.264 A 
ATOM      3  O   UNL     1       1.514  -5.948  25.887  0.00  0.00    -0.267 OA
ATOM      4  N   UNL     1       3.765  -5.612  26.072  0.00  0.00    -0.289 N 
ATOM      5  C   UNL     1       4.939  -5.663  26.869  0.00  0.00    +0.149 A 
ATOM      6  C   UNL     1       4.869  -6.265  28.112  0.00  0.00    +0.040 A 
ATOM      7  C   UNL     1       6.086  -6.320  28.769  0.00  0.00    +0.126 A 
ATOM      8  N   UNL     1       7.256  -5.864  28.276  0.00  0.00    -0.222 NA
ATOM      9  C   UNL     1       7.213  -5.241  27.098  0.00  0.00    +0.222 A 
ATOM     10  N   UNL     1       8.408  -4.720  26.623  0.00  0.00    -0.268 N 
ATOM     11  H   UNL     1       9.188  -5.340  26.750  0.00  0.00    +0.156 HD
ATOM     12  C   UNL     1       8.631  -3.698  25.707  0.00  0.00    +0.125 A 
ATOM     13  C   UNL     1       7.793  -2.591  25.665  0.00  0.00    +0.045 A 
ATOM     14  C   UNL     1       8.112  -1.515  24.844  0.00  0.00    +0.028 A 
ATOM     15  C   UNL     1       9.230  -1.555  24.016  0.00  0.00    +0.048 A 
ATOM     16  C   UNL     1       9.980  -2.727  24.085  0.00  0.00    +0.136 A 
ATOM     17  N   UNL     1       9.733  -3.770  24.929  0.00  0.00    -0.238 NA
ATOM     18  N   UNL     1       6.084  -5.135  26.380  0.00  0.00    -0.196 NA
ATOM     19  C   UNL     1       3.604  -6.838  28.639  0.00  0.00    -0.023 A 
ATOM     20  C   UNL     1       3.701  -7.500  29.995  0.00  0.00    +0.045 C 
ENDROOT
BRANCH  15  21
ATOM     21  N   UNL     1       9.484  -0.479  23.191  0.00  0.00    -0.326 N 
ATOM     22  C   UNL     1      10.531   0.468  23.617  0.00  0.00    +0.120 C 
ATOM     23  C   UNL     1      10.187   1.867  23.058  0.00  0.00    +0.100 C 
ATOM     24  N   UNL     1       9.969   1.892  21.594  0.00  0.00    -0.313 NA
ATOM     25  H   UNL     1       9.575   2.799  21.342  0.00  0.00    +0.122 HD
ATOM     26  C   UNL     1       9.013   0.834  21.197  0.00  0.00    +0.100 C 
ATOM     27  C   UNL     1       9.372  -0.576  21.734  0.00  0.00    +0.120 C 
ENDBRANCH  15  21
BRANCH   4  28
ATOM     28  C   UNL     1       3.827  -5.237  24.653  0.00  0.00    +0.092 C 
ATOM     29  C   UNL     1       4.424  -6.319  23.746  0.00  0.00    +0.025 C 
ATOM     30  C   UNL     1       4.910  -5.574  22.502  0.00  0.00    +0.002 C 
ATOM     31  C   UNL     1       4.554  -4.103  22.717  0.00  0.00    +0.002 C 
ATOM     32  C   UNL     1       4.508  -3.938  24.233  0.00  0.00    +0.025 C 
ENDBRANCH   4  28
BRANCH   1  34
ATOM     33  C   UNL     1       0.710  -8.659  27.682  0.00  0.00    +0.092 C 
ATOM     34  C   UNL     1       1.162  -7.349  28.294  0.00  0.00    +0.166 C 
ATOM     35  O   UNL     1       0.444  -6.789  29.120  0.00  0.00    -0.292 OA
ENDBRANCH   1  34
TORSDOF 3
ENDMDL
MODEL 3
REMARK VINA RESULT:      -7.2      3.336      8.975
REMARK  Name = 
REMARK  5 active torsions:
REMARK  status: ('A' for Active; 'I' for Inactive)
REMARK    1  A    between atoms: C_1  and  C_2
REMARK    2  A    between atoms: C_2  and  C_4
REMARK    3  A    between atoms: C_5  and  C_6
REMARK    4  A    between atoms: C_15  and  N_18
REMARK    5  A    between atoms: N_26  and  C_27
REMARK                            x       y       z     vdW  Elec       q    Type
REMARK                         _______ _______ _______ _____ _____    ______ ____
ROOT
ATOM      1  C   UNL     1       5.288  -5.223  26.482  0.00  0.00    +0.085 A 
ATOM      2  C   UNL     1       5.625  -3.934  27.169  0.00  0.00    +0.264 A 
ATOM      3  O   UNL     1       5.623  -3.902  28.399  0.00  0.00    -0.267 OA
ATOM      4  N   UNL     1       5.911  -2.820  26.409  0.00  0.00    -0.289 N 
ATOM      5  C   UNL     1       6.014  -2.887  24.995  0.00  0.00    +0.149 A 
ATOM      6  C   UNL     1       5.736  -4.087  24.367  0.00  0.00    +0.040 A 
ATOM      7  C   UNL     1       5.800  -4.017  22.986  0.00  0.00    +0.126 A 
ATOM      8  N   UNL     1       6.078  -2.903  22.278  0.00  0.00    -0.222 NA
ATOM      9  C   UNL     1       6.396  -1.810  22.971  0.00  0.00    +0.222 A 
ATOM     10  N   UNL     1       6.742  -0.684  22.238  0.00  0.00    -0.268 N 
ATOM     11  H   UNL     1       6.143  -0.528  21.446  0.00  0.00    +0.156 HD
ATOM     12  C   UNL     1       7.501   0.421  22.609  0.00  0.00    +0.125 A 
ATOM     13  C   UNL     1       8.593   0.275  23.454  0.00  0.00    +0.045 A 
ATOM     14  C   UNL     1       9.424   1.364  23.699  0.00  0.00    +0.028 A 
ATOM     15  C   UNL     1       9.142   2.614  23.158  0.00  0.00    +0.048 A 
ATOM     16  C   UNL     1       7.996   2.677  22.368  0.00  0.00    +0.136 A 
ATOM     17  N   UNL     1       7.200   1.615  22.052  0.00  0.00    -0.238 NA
ATOM     18  N   UNL     1       6.365  -1.774  24.312  0.00  0.00    -0.196 NA
ATOM     19  C   UNL     1       5.355  -5.305  25.129  0.00  0.00    -0.023 A 
ATOM     20  C   UNL     1       5.041  -6.526  24.296  0.00  0.00    +0.045 C 
ENDROOT
BRANCH  15  21
ATOM     21  N   UNL     1       9.975   3.671  23.461  0.00  0.00    -0.326 N 
ATOM     22  C   UNL     1       9.443   4.716  24.356  0.00  0.00    +0.120 C 
ATOM     23  C   UNL     1      10.125   6.059  24.006  0.00  0.00    +0.100 C 
ATOM     24  N   UNL     1      11.603   6.004  24.022  0.00  0.00    -0.313 NA
ATOM     25  H   UNL     1      11.963   6.865  23.608  0.00  0.00    +0.122 HD
ATOM     26  C   UNL     1      12.086   4.858  23.220  0.00  0.00    +0.100 C 
ATOM     27  C   UNL     1      11.424   3.505  23.590  0.00  0.00    +0.120 C 
ENDBRANCH  15  21
BRANCH   4  28
ATOM     28  C   UNL     1       5.926  -1.530  27.112  0.00  0.00    +0.092 C 
ATOM     29  C   UNL     1       4.768  -0.600  26.735  0.00  0.00    +0.025 C 
ATOM     30  C   UNL     1       5.250   0.806  27.097  0.00  0.00    +0.002 C 
ATOM     31  C   UNL     1       6.647   0.639  27.693  0.00  0.00    +0.002 C 
ATOM     32  C   UNL     1       7.174  -0.654  27.077  0.00  0.00    +0.025 C 
ENDBRANCH   4  28
BRANCH   1  34
ATOM     33  C   UNL     1       3.389  -6.636  27.587  0.00  0.00    +0.092 C 
ATOM     34  C   UNL     1       4.865  -6.392  27.347  0.00  0.00    +0.166 C 
ATOM     35  O   UNL     1       5.693  -7.143  27.861  0.00  0.00    -0.292 OA
ENDBRANCH   1  34
TORSDOF 3
ENDMDL
MODEL 4
REMARK VINA RESULT:      -7.0      2.488      4.098
REMARK  Name = 
REMARK  5 active torsions:
REMARK  status: ('A' for Active; 'I' for Inactive)
REMARK    1  A    between atoms: C_1  and  C_2
REMARK    2  A    between atoms: C_2  and  C_4
REMARK    3  A    between atoms: C_5  and  C_6
REMARK    4  A    between atoms: C_15  and  N_18
REMARK    5  A    between atoms: N_26  and  C_27
REMARK                            x       y       z     vdW  Elec       q    Type
REMARK                         _______ _______ _______ _____ _____    ______ ____
ROOT
ATOM      1  C   UNL     1      10.470   4.407  23.791  0.00  0.00    +0.085 A 
ATOM      2  C   UNL     1      10.848   2.957  23.757  0.00  0.00    +0.264 A 
ATOM      3  O   UNL     1      12.031   2.658  23.595  0.00  0.00    -0.267 OA
ATOM      4  N   UNL     1       9.864   2.001  23.892  0.00  0.00    -0.289 N 
ATOM      5  C   UNL     1       8.519   2.349  24.183  0.00  0.00    +0.149 A 
ATOM      6  C   UNL     1       8.181   3.689  24.247  0.00  0.00    +0.040 A 
ATOM      7  C   UNL     1       6.833   3.909  24.466  0.00  0.00    +0.126 A 
ATOM      8  N   UNL     1       5.898   2.944  24.587  0.00  0.00    -0.222 NA
ATOM      9  C   UNL     1       6.328   1.682  24.575  0.00  0.00    +0.222 A 
ATOM     10  N   UNL     1       5.371   0.694  24.762  0.00  0.00    -0.268 N 
ATOM     11  H   UNL     1       4.524   0.862  24.247  0.00  0.00    +0.156 HD
ATOM     12  C   UNL     1       5.518  -0.612  25.215  0.00  0.00    +0.125 A 
ATOM     13  C   UNL     1       6.448  -0.917  26.200  0.00  0.00    +0.045 A 
ATOM     14  C   UNL     1       6.483  -2.198  26.742  0.00  0.00    +0.028 A 
ATOM     15  C   UNL     1       5.637  -3.196  26.270  0.00  0.00    +0.048 A 
ATOM     16  C   UNL     1       4.775  -2.812  25.245  0.00  0.00    +0.136 A 
ATOM     17  N   UNL     1       4.669  -1.549  24.739  0.00  0.00    -0.238 NA
ATOM     18  N   UNL     1       7.615   1.362  24.370  0.00  0.00    -0.196 NA
ATOM     19  C   UNL     1       9.185   4.765  24.043  0.00  0.00    -0.023 A 
ATOM     20  C   UNL     1       8.651   6.178  24.103  0.00  0.00    +0.045 C 
ENDROOT
BRANCH  15  21
ATOM     21  N   UNL     1       5.735  -4.460  26.813  0.00  0.00    -0.326 N 
ATOM     22  C   UNL     1       5.077  -5.562  26.087  0.00  0.00    +0.120 C 
ATOM     23  C   UNL     1       4.655  -6.644  27.108  0.00  0.00    +0.100 C 
ATOM     24  N   UNL     1       5.760  -7.120  27.969  0.00  0.00    -0.313 NA
ATOM     25  H   UNL     1       5.363  -7.685  28.721  0.00  0.00    +0.122 HD
ATOM     26  C   UNL     1       6.477  -5.973  28.571  0.00  0.00    +0.100 C 
ATOM     27  C   UNL     1       6.926  -4.901  27.543  0.00  0.00    +0.120 C 
ENDBRANCH  15  21
BRANCH   4  28
ATOM     28  C   UNL     1      10.234   0.622  23.544  0.00  0.00    +0.092 C 
ATOM     29  C   UNL     1       9.864   0.219  22.112  0.00  0.00    +0.025 C 
ATOM     30  C   UNL     1       9.797  -1.309  22.132  0.00  0.00    +0.002 C 
ATOM     31  C   UNL     1      10.157  -1.735  23.555  0.00  0.00    +0.002 C 
ATOM     32  C   UNL     1       9.774  -0.538  24.421  0.00  0.00    +0.025 C 
ENDBRANCH   4  28
BRANCH   1  34
ATOM     33  C   UNL     1      12.043   6.305  24.656  0.00  0.00    +0.092 C 
ATOM     34  C   UNL     1      11.559   5.425  23.522  0.00  0.00    +0.166 C 
ATOM     35  O   UNL     1      12.055   5.553  22.404  0.00  0.00    -0.292 OA
ENDBRANCH   1  34
TORSDOF 3
ENDMDL
MODEL 5
REMARK VINA RESULT:      -7.0      3.840      9.718
REMARK  Name = 
REMARK  5 active torsions:
REMARK  status: ('A' for Active; 'I' for Inactive)
REMARK    1  A    between atoms: C_1  and  C_2
REMARK    2  A    between atoms: C_2  and  C_4
REMARK    3  A    between atoms: C_5  and  C_6
REMARK    4  A    between atoms: C_15  and  N_18
REMARK    5  A    between atoms: N_26  and  C_27
REMARK                            x       y       z     vdW  Elec       q    Type
REMARK                         _______ _______ _______ _____ _____    ______ ____
ROOT
ATOM      1  C   UNL     1       2.799  -6.647  24.560  0.00  0.00    +0.085 A 
ATOM      2  C   UNL     1       4.252  -6.358  24.327  0.00  0.00    +0.264 A 
ATOM      3  O   UNL     1       4.940  -7.208  23.764  0.00  0.00    -0.267 OA
ATOM      4  N   UNL     1       4.778  -5.160  24.760  0.00  0.00    -0.289 N 
ATOM      5  C   UNL     1       3.959  -4.141  25.313  0.00  0.00    +0.149 A 
ATOM      6  C   UNL     1       2.612  -4.399  25.495  0.00  0.00    +0.040 A 
ATOM      7  C   UNL     1       1.927  -3.363  26.105  0.00  0.00    +0.126 A 
ATOM      8  N   UNL     1       2.482  -2.205  26.520  0.00  0.00    -0.222 NA
ATOM      9  C   UNL     1       3.772  -2.019  26.244  0.00  0.00    +0.222 A 
ATOM     10  N   UNL     1       4.323  -0.802  26.619  0.00  0.00    -0.268 N 
ATOM     11  H   UNL     1       4.034  -0.502  27.534  0.00  0.00    +0.156 HD
ATOM     12  C   UNL     1       5.445  -0.144  26.126  0.00  0.00    +0.125 A 
ATOM     13  C   UNL     1       5.764  -0.206  24.777  0.00  0.00    +0.045 A 
ATOM     14  C   UNL     1       6.804   0.573  24.278  0.00  0.00    +0.028 A 
ATOM     15  C   UNL     1       7.569   1.369  25.124  0.00  0.00    +0.048 A 
ATOM     16  C   UNL     1       7.210   1.326  26.470  0.00  0.00    +0.136 A 
ATOM     17  N   UNL     1       6.154   0.628  26.979  0.00  0.00    -0.238 NA
ATOM     18  N   UNL     1       4.525  -2.961  25.656  0.00  0.00    -0.196 NA
ATOM     19  C   UNL     1       2.001  -5.697  25.110  0.00  0.00    -0.023 A 
ATOM     20  C   UNL     1       0.527  -5.841  25.412  0.00  0.00    +0.045 C 
ENDROOT
BRANCH  15  21
ATOM     21  N   UNL     1       8.614   2.093  24.588  0.00  0.00    -0.326 N 
ATOM     22  C   UNL     1       8.653   3.538  24.877  0.00  0.00    +0.120 C 
ATOM     23  C   UNL     1       9.352   4.257  23.700  0.00  0.00    +0.100 C 
ATOM     24  N   UNL     1      10.688   3.714  23.371  0.00  0.00    -0.313 NA
ATOM     25  H   UNL     1      10.991   4.116  22.484  0.00  0.00    +0.122 HD
ATOM     26  C   UNL     1      10.625   2.242  23.224  0.00  0.00    +0.100 C 
ATOM     27  C   UNL     1       9.950   1.517  24.418  0.00  0.00    +0.120 C 
ENDBRANCH  15  21
BRANCH   4  28
ATOM     28  C   UNL     1       6.243  -5.056  24.789  0.00  0.00    +0.092 C 
ATOM     29  C   UNL     1       6.852  -5.216  26.186  0.00  0.00    +0.025 C 
ATOM     30  C   UNL     1       8.223  -4.541  26.103  0.00  0.00    +0.002 C 
ATOM     31  C   UNL     1       8.370  -4.045  24.665  0.00  0.00    +0.002 C 
ATOM     32  C   UNL     1       6.937  -3.840  24.183  0.00  0.00    +0.025 C 
ENDBRANCH   4  28
BRANCH   1  34
ATOM     33  C   UNL     1       1.551  -8.192  22.862  0.00  0.00    +0.092 C 
ATOM     34  C   UNL     1       2.285  -8.019  24.176  0.00  0.00    +0.166 C 
ATOM     35  O   UNL     1       2.446  -8.993  24.911  0.00  0.00    -0.292 OA
ENDBRANCH   1  34
TORSDOF 3
ENDMDL
MODEL 6
REMARK VINA RESULT:      -7.0      1.853      2.299
REMARK  Name = 
REMARK  5 active torsions:
REMARK  status: ('A' for Active; 'I' for Inactive)
REMARK    1  A    between atoms: C_1  and  C_2
REMARK    2  A    between atoms: C_2  and  C_4
REMARK    3  A    between atoms: C_5  and  C_6
REMARK    4  A    between atoms: C_15  and  N_18
REMARK    5  A    between atoms: N_26  and  C_27
REMARK                            x       y       z     vdW  Elec       q    Type
REMARK                         _______ _______ _______ _____ _____    ______ ____
ROOT
ATOM      1  C   UNL     1       8.601   3.235  24.437  0.00  0.00    +0.085 A 
ATOM      2  C   UNL     1       7.578   2.782  25.435  0.00  0.00    +0.264 A 
ATOM      3  O   UNL     1       6.785   3.609  25.884  0.00  0.00    -0.267 OA
ATOM      4  N   UNL     1       7.561   1.462  25.831  0.00  0.00    -0.289 N 
ATOM      5  C   UNL     1       8.408   0.492  25.233  0.00  0.00    +0.149 A 
ATOM      6  C   UNL     1       9.328   0.908  24.288  0.00  0.00    +0.040 A 
ATOM      7  C   UNL     1      10.145  -0.108  23.826  0.00  0.00    +0.126 A 
ATOM      8  N   UNL     1      10.101  -1.390  24.245  0.00  0.00    -0.222 NA
ATOM      9  C   UNL     1       9.139  -1.711  25.110  0.00  0.00    +0.222 A 
ATOM     10  N   UNL     1       9.060  -3.042  25.491  0.00  0.00    -0.268 N 
ATOM     11  H   UNL     1       9.957  -3.455  25.677  0.00  0.00    +0.156 HD
ATOM     12  C   UNL     1       7.982  -3.760  25.998  0.00  0.00    +0.125 A 
ATOM     13  C   UNL     1       6.692  -3.506  25.552  0.00  0.00    +0.045 A 
ATOM     14  C   UNL     1       5.646  -4.327  25.963  0.00  0.00    +0.028 A 
ATOM     15  C   UNL     1       5.865  -5.364  26.864  0.00  0.00    +0.048 A 
ATOM     16  C   UNL     1       7.181  -5.509  27.298  0.00  0.00    +0.136 A 
ATOM     17  N   UNL     1       8.239  -4.766  26.862  0.00  0.00    -0.238 NA
ATOM     18  N   UNL     1       8.296  -0.800  25.619  0.00  0.00    -0.196 NA
ATOM     19  C   UNL     1       9.439   2.330  23.870  0.00  0.00    -0.023 A 
ATOM     20  C   UNL     1      10.521   2.632  22.859  0.00  0.00    +0.045 C 
ENDROOT
BRANCH  15  21
ATOM     21  N   UNL     1       4.790  -6.127  27.271  0.00  0.00    -0.326 N 
ATOM     22  C   UNL     1       4.022  -6.827  26.225  0.00  0.00    +0.120 C 
ATOM     23  C   UNL     1       2.559  -6.976  26.703  0.00  0.00    +0.100 C 
ATOM     24  N   UNL     1       2.423  -7.622  28.027  0.00  0.00    -0.313 NA
ATOM     25  H   UNL     1       1.458  -7.515  28.341  0.00  0.00    +0.122 HD
ATOM     26  C   UNL     1       3.314  -6.971  29.013  0.00  0.00    +0.100 C 
ATOM     27  C   UNL     1       4.789  -6.847  28.546  0.00  0.00    +0.120 C 
ENDBRANCH  15  21
BRANCH   4  28
ATOM     28  C   UNL     1       6.760   1.141  27.020  0.00  0.00    +0.092 C 
ATOM     29  C   UNL     1       5.260   0.995  26.740  0.00  0.00    +0.025 C 
ATOM     30  C   UNL     1       4.577   1.229  28.089  0.00  0.00    +0.002 C 
ATOM     31  C   UNL     1       5.698   1.472  29.099  0.00  0.00    +0.002 C 
ATOM     32  C   UNL     1       6.854   2.017  28.265  0.00  0.00    +0.025 C 
ENDBRANCH   4  28
BRANCH   1  34
ATOM     33  C   UNL     1       9.521   5.620  24.975  0.00  0.00    +0.092 C 
ATOM     34  C   UNL     1       8.664   4.714  24.115  0.00  0.00    +0.166 C 
ATOM     35  O   UNL     1       8.032   5.193  23.175  0.00  0.00    -0.292 OA
ENDBRANCH   1  34
TORSDOF 3
ENDMDL
MODEL 7
REMARK VINA RESULT:      -7.0      3.660      9.545
REMARK  Name = 
REMARK  5 active torsions:
REMARK  status: ('A' for Active; 'I' for Inactive)
REMARK    1  A    between atoms: C_1  and  C_2
REMARK    2  A    between atoms: C_2  and  C_4
REMARK    3  A    between atoms: C_5  and  C_6
REMARK    4  A    between atoms: C_15  and  N_18
REMARK    5  A    between atoms: N_26  and  C_27
REMARK                            x       y       z     vdW  Elec       q    Type
REMARK                         _______ _______ _______ _____ _____    ______ ____
ROOT
ATOM      1  C   UNL     1       3.200  -5.494  24.132  0.00  0.00    +0.085 A 
ATOM      2  C   UNL     1       4.336  -4.889  23.363  0.00  0.00    +0.264 A 
ATOM      3  O   UNL     1       4.726  -5.455  22.342  0.00  0.00    -0.267 OA
ATOM      4  N   UNL     1       4.922  -3.731  23.826  0.00  0.00    -0.289 N 
ATOM      5  C   UNL     1       4.402  -3.026  24.944  0.00  0.00    +0.149 A 
ATOM      6  C   UNL     1       3.332  -3.570  25.630  0.00  0.00    +0.040 A 
ATOM      7  C   UNL     1       2.956  -2.835  26.741  0.00  0.00    +0.126 A 
ATOM      8  N   UNL     1       3.560  -1.706  27.165  0.00  0.00    -0.222 NA
ATOM      9  C   UNL     1       4.542  -1.223  26.404  0.00  0.00    +0.222 A 
ATOM     10  N   UNL     1       5.119  -0.029  26.811  0.00  0.00    -0.268 N 
ATOM     11  H   UNL     1       5.287   0.012  27.802  0.00  0.00    +0.156 HD
ATOM     12  C   UNL     1       5.816   0.920  26.072  0.00  0.00    +0.125 A 
ATOM     13  C   UNL     1       5.449   1.205  24.763  0.00  0.00    +0.045 A 
ATOM     14  C   UNL     1       6.063   2.255  24.088  0.00  0.00    +0.028 A 
ATOM     15  C   UNL     1       7.084   2.987  24.685  0.00  0.00    +0.048 A 
ATOM     16  C   UNL     1       7.422   2.595  25.978  0.00  0.00    +0.136 A 
ATOM     17  N   UNL     1       6.793   1.617  26.692  0.00  0.00    -0.238 NA
ATOM     18  N   UNL     1       4.981  -1.859  25.307  0.00  0.00    -0.196 NA
ATOM     19  C   UNL     1       2.702  -4.851  25.219  0.00  0.00    -0.023 A 
ATOM     20  C   UNL     1       1.569  -5.334  26.095  0.00  0.00    +0.045 C 
ENDROOT
BRANCH  15  21
ATOM     21  N   UNL     1       7.689   3.994  23.961  0.00  0.00    -0.326 N 
ATOM     22  C   UNL     1       9.145   4.163  24.122  0.00  0.00    +0.120 C 
ATOM     23  C   UNL     1       9.497   5.650  23.886  0.00  0.00    +0.100 C 
ATOM     24  N   UNL     1       9.009   6.186  22.596  0.00  0.00    -0.313 NA
ATOM     25  H   UNL     1       9.122   7.200  22.604  0.00  0.00    +0.122 HD
ATOM     26  C   UNL     1       7.574   5.873  22.417  0.00  0.00    +0.100 C 
ATOM     27  C   UNL     1       7.223   4.376  22.625  0.00  0.00    +0.120 C 
ENDBRANCH  15  21
BRANCH   4  28
ATOM     28  C   UNL     1       6.209  -3.357  23.224  0.00  0.00    +0.092 C 
ATOM     29  C   UNL     1       7.431  -3.826  24.021  0.00  0.00    +0.025 C 
ATOM     30  C   UNL     1       8.571  -2.905  23.583  0.00  0.00    +0.002 C 
ATOM     31  C   UNL     1       7.981  -1.963  22.534  0.00  0.00    +0.002 C 
ATOM     32  C   UNL     1       6.493  -1.901  22.868  0.00  0.00    +0.025 C 
ENDBRANCH   4  28
BRANCH   1  34
ATOM     33  C   UNL     1       1.582  -6.852  22.595  0.00  0.00    +0.092 C 
ATOM     34  C   UNL     1       2.661  -6.828  23.658  0.00  0.00    +0.166 C 
ATOM     35  O   UNL     1       3.077  -7.889  24.121  0.00  0.00    -0.292 OA
ENDBRANCH   1  34
TORSDOF 3
ENDMDL
MODEL 8
REMARK VINA RESULT:      -7.0      3.736      9.601
REMARK  Name = 
REMARK  5 active torsions:
REMARK  status: ('A' for Active; 'I' for Inactive)
REMARK    1  A    between atoms: C_1  and  C_2
REMARK    2  A    between atoms: C_2  and  C_4
REMARK    3  A    between atoms: C_5  and  C_6
REMARK    4  A    between atoms: C_15  and  N_18
REMARK    5  A    between atoms: N_26  and  C_27
REMARK                            x       y       z     vdW  Elec       q    Type
REMARK                         _______ _______ _______ _____ _____    ______ ____
ROOT
ATOM      1  C   UNL     1       3.029  -7.046  25.430  0.00  0.00    +0.085 A 
ATOM      2  C   UNL     1       3.387  -6.241  24.216  0.00  0.00    +0.264 A 
ATOM      3  O   UNL     1       2.787  -6.460  23.164  0.00  0.00    -0.267 OA
ATOM      4  N   UNL     1       4.385  -5.294  24.306  0.00  0.00    -0.289 N 
ATOM      5  C   UNL     1       5.001  -4.973  25.544  0.00  0.00    +0.149 A 
ATOM      6  C   UNL     1       4.643  -5.695  26.668  0.00  0.00    +0.040 A 
ATOM      7  C   UNL     1       5.357  -5.345  27.801  0.00  0.00    +0.126 A 
ATOM      8  N   UNL     1       6.332  -4.414  27.846  0.00  0.00    -0.222 NA
ATOM      9  C   UNL     1       6.563  -3.725  26.729  0.00  0.00    +0.222 A 
ATOM     10  N   UNL     1       7.524  -2.727  26.797  0.00  0.00    -0.268 N 
ATOM     11  H   UNL     1       8.346  -3.002  27.306  0.00  0.00    +0.156 HD
ATOM     12  C   UNL     1       7.695  -1.600  26.000  0.00  0.00    +0.125 A 
ATOM     13  C   UNL     1       6.595  -0.913  25.504  0.00  0.00    +0.045 A 
ATOM     14  C   UNL     1       6.780   0.290  24.830  0.00  0.00    +0.028 A 
ATOM     15  C   UNL     1       8.058   0.786  24.593  0.00  0.00    +0.048 A 
ATOM     16  C   UNL     1       9.102   0.002  25.080  0.00  0.00    +0.136 A 
ATOM     17  N   UNL     1       8.952  -1.145  25.803  0.00  0.00    -0.238 NA
ATOM     18  N   UNL     1       5.925  -3.987  25.577  0.00  0.00    -0.196 NA
ATOM     19  C   UNL     1       3.624  -6.774  26.619  0.00  0.00    -0.023 A 
ATOM     20  C   UNL     1       3.374  -7.498  27.923  0.00  0.00    +0.045 C 
ENDROOT
BRANCH  15  21
ATOM     21  N   UNL     1       8.192   1.964  23.887  0.00  0.00    -0.326 N 
ATOM     22  C   UNL     1       9.417   2.753  24.113  0.00  0.00    +0.120 C 
ATOM     23  C   UNL     1       9.092   4.246  23.878  0.00  0.00    +0.100 C 
ATOM     24  N   UNL     1       8.478   4.527  22.561  0.00  0.00    -0.313 NA
ATOM     25  H   UNL     1       8.134   5.488  22.563  0.00  0.00    +0.122 HD
ATOM     26  C   UNL     1       7.334   3.618  22.320  0.00  0.00    +0.100 C 
ATOM     27  C   UNL     1       7.667   2.117  22.528  0.00  0.00    +0.120 C 
ENDBRANCH  15  21
BRANCH   4  28
ATOM     28  C   UNL     1       4.904  -4.763  23.039  0.00  0.00    +0.092 C 
ATOM     29  C   UNL     1       6.126  -5.515  22.500  0.00  0.00    +0.025 C 
ATOM     30  C   UNL     1       6.821  -4.527  21.562  0.00  0.00    +0.002 C 
ATOM     31  C   UNL     1       5.969  -3.259  21.567  0.00  0.00    +0.002 C 
ATOM     32  C   UNL     1       5.255  -3.283  22.915  0.00  0.00    +0.025 C 
ENDBRANCH   4  28
BRANCH   1  34
ATOM     33  C   UNL     1       0.560  -7.881  25.590  0.00  0.00    +0.092 C 
ATOM     34  C   UNL     1       2.013  -8.156  25.263  0.00  0.00    +0.166 C 
ATOM     35  O   UNL     1       2.343  -9.275  24.872  0.00  0.00    -0.292 OA
ENDBRANCH   1  34
TORSDOF 3
ENDMDL
MODEL 9
REMARK VINA RESULT:      -6.9      1.737      2.354
REMARK  Name = 
REMARK  5 active torsions:
REMARK  status: ('A' for Active; 'I' for Inactive)
REMARK    1  A    between atoms: C_1  and  C_2
REMARK    2  A    between atoms: C_2  and  C_4
REMARK    3  A    between atoms: C_5  and  C_6
REMARK    4  A    between atoms: C_15  and  N_18
REMARK    5  A    between atoms: N_26  and  C_27
REMARK                            x       y       z     vdW  Elec       q    Type
REMARK                         _______ _______ _______ _____ _____    ______ ____
ROOT
ATOM      1  C   UNL     1       8.518   2.577  23.783  0.00  0.00    +0.085 A 
ATOM      2  C   UNL     1       7.495   1.949  24.681  0.00  0.00    +0.264 A 
ATOM      3  O   UNL     1       6.905   2.661  25.493  0.00  0.00    -0.267 OA
ATOM      4  N   UNL     1       7.254   0.596  24.584  0.00  0.00    -0.289 N 
ATOM      5  C   UNL     1       7.859  -0.201  23.577  0.00  0.00    +0.149 A 
ATOM      6  C   UNL     1       8.777   0.390  22.728  0.00  0.00    +0.040 A 
ATOM      7  C   UNL     1       9.354  -0.495  21.834  0.00  0.00    +0.126 A 
ATOM      8  N   UNL     1       9.094  -1.818  21.775  0.00  0.00    -0.222 NA
ATOM      9  C   UNL     1       8.148  -2.285  22.590  0.00  0.00    +0.222 A 
ATOM     10  N   UNL     1       7.841  -3.634  22.483  0.00  0.00    -0.268 N 
ATOM     11  H   UNL     1       8.654  -4.219  22.392  0.00  0.00    +0.156 HD
ATOM     12  C   UNL     1       6.683  -4.314  22.841  0.00  0.00    +0.125 A 
ATOM     13  C   UNL     1       5.438  -3.718  22.686  0.00  0.00    +0.045 A 
ATOM     14  C   UNL     1       4.284  -4.463  22.914  0.00  0.00    +0.028 A 
ATOM     15  C   UNL     1       4.360  -5.780  23.353  0.00  0.00    +0.048 A 
ATOM     16  C   UNL     1       5.650  -6.276  23.532  0.00  0.00    +0.136 A 
ATOM     17  N   UNL     1       6.799  -5.596  23.252  0.00  0.00    -0.238 NA
ATOM     18  N   UNL     1       7.528  -1.510  23.493  0.00  0.00    -0.196 NA
ATOM     19  C   UNL     1       9.129   1.830  22.829  0.00  0.00    -0.023 A 
ATOM     20  C   UNL     1      10.180   2.316  21.857  0.00  0.00    +0.045 C 
ENDROOT
BRANCH  15  21
ATOM     21  N   UNL     1       3.189  -6.465  23.602  0.00  0.00    -0.326 N 
ATOM     22  C   UNL     1       3.021  -7.055  24.943  0.00  0.00    +0.120 C 
ATOM     23  C   UNL     1       2.121  -8.306  24.822  0.00  0.00    +0.100 C 
ATOM     24  N   UNL     1       0.826  -8.053  24.154  0.00  0.00    -0.313 NA
ATOM     25  H   UNL     1       0.383  -8.950  23.956  0.00  0.00    +0.122 HD
ATOM     26  C   UNL     1       1.036  -7.338  22.875  0.00  0.00    +0.100 C 
ATOM     27  C   UNL     1       1.915  -6.065  23.000  0.00  0.00    +0.120 C 
ENDBRANCH  15  21
BRANCH   4  28
ATOM     28  C   UNL     1       6.486  -0.016  25.677  0.00  0.00    +0.092 C 
ATOM     29  C   UNL     1       7.243  -1.112  26.435  0.00  0.00    +0.025 C 
ATOM     30  C   UNL     1       6.157  -1.965  27.093  0.00  0.00    +0.002 C 
ATOM     31  C   UNL     1       4.822  -1.321  26.722  0.00  0.00    +0.002 C 
ATOM     32  C   UNL     1       5.100  -0.595  25.409  0.00  0.00    +0.025 C 
ENDBRANCH   4  28
BRANCH   1  34
ATOM     33  C   UNL     1       8.032   5.091  23.264  0.00  0.00    +0.092 C 
ATOM     34  C   UNL     1       8.840   4.041  23.999  0.00  0.00    +0.166 C 
ATOM     35  O   UNL     1       9.745   4.395  24.754  0.00  0.00    -0.292 OA
ENDBRANCH   1  34
TORSDOF 3
ENDMDL
