MODEL 1
REMARK VINA RESULT:      -6.9      0.000      0.000
REMARK  Name = 
REMARK  15 active torsions:
REMARK  status: ('A' for Active; 'I' for Inactive)
REMARK    1  A    between atoms: N_1  and  C_2
REMARK    2  A    between atoms: C_2  and  C_4
REMARK    3  A    between atoms: C_2  and  C_31
REMARK    4  A    between atoms: C_4  and  C_5
REMARK    5  A    between atoms: C_5  and  C_6
REMARK    6  A    between atoms: N_8  and  C_9
REMARK    7  A    between atoms: C_9  and  C_11
REMARK    8  A    between atoms: C_9  and  C_24
REMARK    9  A    between atoms: C_11  and  S_12
REMARK   10  A    between atoms: S_12  and  C_13
REMARK   11  A    between atoms: C_13  and  C_14
REMARK   12  A    between atoms: N_26  and  CA_27
REMARK   13  A    between atoms: CA_27  and  C_28
REMARK   14  A    between atoms: C_28  and  O_29
REMARK   15  A    between atoms: C_31  and  O_32
REMARK                            x       y       z     vdW  Elec       q    Type
REMARK                         _______ _______ _______ _____ _____    ______ ____
ROOT
ATOM      1  C   UNK A   1       7.617  -5.246  26.083  0.00  0.00    +0.169 C 
ENDROOT
BRANCH   1   3
ATOM      2  C   UNK A   1       5.734  -6.300  27.318  0.00  0.00    +0.214 C 
ATOM      3  N   UNK A   1       6.227  -5.682  26.197  0.00  0.00    -0.303 N 
ATOM      4  H   UNK A   1       5.629  -5.554  25.390  0.00  0.00    +0.149 HD
ATOM      5  O   UNK A   1       6.421  -6.549  28.305  0.00  0.00    -0.276 OA
BRANCH   2   6
ATOM      6  C   UNK A   1       4.253  -6.617  27.263  0.00  0.00    +0.098 C 
BRANCH   6   7
ATOM      7  C   UNK A   1       3.537  -5.852  26.151  0.00  0.00    +0.039 C 
BRANCH   7   8
ATOM      8  C   UNK A   1       2.898  -6.770  25.101  0.00  0.00    +0.161 C 
BRANCH   8   9
ATOM      9  N   UNK A   1       2.972  -8.212  25.480  0.00  0.00    -0.318 NA
ATOM     10  H   UNK A   1       2.094  -8.480  25.938  0.00  0.00    +0.119 HD
ATOM     11  H   UNK A   1       2.989  -8.767  24.619  0.00  0.00    +0.119 HD
ENDBRANCH   8   9
BRANCH   8  12
ATOM     12  C   UNK A   1       3.598  -6.594  23.739  0.00  0.00    +0.322 C 
ATOM     13  O   UNK A   1       3.168  -5.934  22.806  0.00  0.00    -0.249 OA
BRANCH  12  14
ATOM     14  O   UNK A   1       4.764  -7.290  23.691  0.00  0.00    -0.480 OA
ATOM     15  H   UNK A   1       4.502  -8.244  23.724  0.00  0.00    +0.295 HD
ENDBRANCH  12  14
ENDBRANCH   8  12
ENDBRANCH   7   8
ENDBRANCH   6   7
ENDBRANCH   2   6
ENDBRANCH   1   3
BRANCH   1  16
ATOM     16  C   UNK A   1       8.081  -5.271  24.616  0.00  0.00    +0.235 C 
ATOM     17  N   GLY A   2       7.058  -5.322  23.684  0.00  0.00    -0.303 N 
ATOM     18  H   GLY A   2       6.118  -5.547  23.994  0.00  0.00    +0.149 HD
ATOM     19  O   UNK A   1       9.263  -5.246  24.286  0.00  0.00    -0.274 OA
BRANCH  17  20
ATOM     20  CA  GLY A   2       7.338  -5.515  22.257  0.00  0.00    +0.224 C 
BRANCH  20  21
ATOM     21  C   GLY A   2       6.170  -5.190  21.327  0.00  0.00    +0.322 C 
ATOM     22  OXT GLY A   2       5.892  -4.056  20.965  0.00  0.00    -0.249 OA
BRANCH  21  23
ATOM     23  O   GLY A   2       5.493  -6.277  20.890  0.00  0.00    -0.480 OA
ATOM     24  H   GLY A   2       4.704  -6.009  20.380  0.00  0.00    +0.295 HD
ENDBRANCH  21  23
ENDBRANCH  20  21
ENDBRANCH  17  20
ENDBRANCH   1  16
BRANCH   1  25
ATOM     25  C   UNK A   1       7.802  -3.831  26.649  0.00  0.00    +0.101 C 
BRANCH  25  26
ATOM     26  S   UNK A   1       6.947  -2.530  25.683  0.00  0.00    -0.154 S 
BRANCH  26  27
ATOM     27  C   UNK A   1       8.287  -1.307  25.597  0.00  0.00    +0.104 C 
BRANCH  27  28
ATOM     28  C   UNK A   1       8.745  -1.039  24.184  0.00  0.00    -0.030 A 
ATOM     29  C   UNK A   1       9.303   0.205  23.787  0.00  0.00    -0.014 A 
ATOM     30  C   UNK A   1       9.597   1.256  24.687  0.00  0.00    +0.009 A 
ATOM     31  C   UNK A   1      10.070   2.491  24.242  0.00  0.00    +0.001 A 
ATOM     32  C   UNK A   1      10.277   2.701  22.887  0.00  0.00    +0.001 A 
ATOM     33  C   UNK A   1      10.050   1.668  21.981  0.00  0.00    +0.008 A 
ATOM     34  C   UNK A   1       9.572   0.419  22.413  0.00  0.00    -0.018 A 
ATOM     35  C   UNK A   1       9.354  -0.613  21.489  0.00  0.00    +0.008 A 
ATOM     36  C   UNK A   1       8.852  -1.847  21.895  0.00  0.00    +0.001 A 
ATOM     37  C   UNK A   1       8.543  -2.057  23.233  0.00  0.00    +0.005 A 
ENDBRANCH  27  28
ENDBRANCH  26  27
ENDBRANCH  25  26
ENDBRANCH   1  25
TORSDOF 15
ENDMDL
MODEL 2
REMARK VINA RESULT:      -6.6      1.981      4.019
REMARK  Name = 
REMARK  15 active torsions:
REMARK  status: ('A' for Active; 'I' for Inactive)
REMARK    1  A    between atoms: N_1  and  C_2
REMARK    2  A    between atoms: C_2  and  C_4
REMARK    3  A    between atoms: C_2  and  C_31
REMARK    4  A    between atoms: C_4  and  C_5
REMARK    5  A    between atoms: C_5  and  C_6
REMARK    6  A    between atoms: N_8  and  C_9
REMARK    7  A    between atoms: C_9  and  C_11
REMARK    8  A    between atoms: C_9  and  C_24
REMARK    9  A    between atoms: C_11  and  S_12
REMARK   10  A    between atoms: S_12  and  C_13
REMARK   11  A    between atoms: C_13  and  C_14
REMARK   12  A    between atoms: N_26  and  CA_27
REMARK   13  A    between atoms: CA_27  and  C_28
REMARK   14  A    between atoms: C_28  and  O_29
REMARK   15  A    between atoms: C_31  and  O_32
REMARK                            x       y       z     vdW  Elec       q    Type
REMARK                         _______ _______ _______ _____ _____    ______ ____
ROOT
ATOM      1  C   UNK A   1       7.062  -2.928  25.918  0.00  0.00    +0.169 C 
ENDROOT
BRANCH   1   3
ATOM      2  C   UNK A   1       6.741  -2.640  23.470  0.00  0.00    +0.214 C 
ATOM      3  N   UNK A   1       7.118  -3.410  24.541  0.00  0.00    -0.303 N 
ATOM      4  H   UNK A   1       7.408  -4.369  24.392  0.00  0.00    +0.149 HD
ATOM      5  O   UNK A   1       6.314  -1.495  23.584  0.00  0.00    -0.276 OA
BRANCH   2   6
ATOM      6  C   UNK A   1       6.933  -3.301  22.120  0.00  0.00    +0.098 C 
BRANCH   6   7
ATOM      7  C   UNK A   1       7.459  -4.730  22.243  0.00  0.00    +0.039 C 
BRANCH   7   8
ATOM      8  C   UNK A   1       6.429  -5.791  21.833  0.00  0.00    +0.161 C 
BRANCH   8   9
ATOM      9  N   UNK A   1       5.897  -5.570  20.456  0.00  0.00    -0.318 NA
ATOM     10  H   UNK A   1       4.992  -6.044  20.370  0.00  0.00    +0.119 HD
ATOM     11  H   UNK A   1       5.672  -4.575  20.358  0.00  0.00    +0.119 HD
ENDBRANCH   8   9
BRANCH   8  12
ATOM     12  C   UNK A   1       5.241  -5.789  22.815  0.00  0.00    +0.322 C 
ATOM     13  O   UNK A   1       4.070  -5.642  22.503  0.00  0.00    -0.249 OA
BRANCH  12  14
ATOM     14  O   UNK A   1       5.661  -5.954  24.097  0.00  0.00    -0.480 OA
ATOM     15  H   UNK A   1       5.046  -6.622  24.492  0.00  0.00    +0.295 HD
ENDBRANCH  12  14
ENDBRANCH   8  12
ENDBRANCH   7   8
ENDBRANCH   6   7
ENDBRANCH   2   6
ENDBRANCH   1   3
BRANCH   1  16
ATOM     16  C   UNK A   1       6.697  -4.068  26.884  0.00  0.00    +0.235 C 
ATOM     17  N   GLY A   2       5.347  -4.371  26.942  0.00  0.00    -0.303 N 
ATOM     18  H   GLY A   2       4.678  -3.725  26.536  0.00  0.00    +0.149 HD
ATOM     19  O   UNK A   1       7.530  -4.671  27.556  0.00  0.00    -0.274 OA
BRANCH  17  20
ATOM     20  CA  GLY A   2       4.822  -5.318  27.932  0.00  0.00    +0.224 C 
BRANCH  20  21
ATOM     21  C   GLY A   2       4.831  -6.780  27.486  0.00  0.00    +0.322 C 
ATOM     22  OXT GLY A   2       4.419  -7.155  26.399  0.00  0.00    -0.249 OA
BRANCH  21  23
ATOM     23  O   GLY A   2       5.388  -7.627  28.383  0.00  0.00    -0.480 OA
ATOM     24  H   GLY A   2       4.696  -8.081  28.902  0.00  0.00    +0.295 HD
ENDBRANCH  21  23
ENDBRANCH  20  21
ENDBRANCH  17  20
ENDBRANCH   1  16
BRANCH   1  25
ATOM     25  C   UNK A   1       8.403  -2.313  26.344  0.00  0.00    +0.101 C 
BRANCH  25  26
ATOM     26  S   UNK A   1       8.358  -0.490  26.525  0.00  0.00    -0.154 S 
BRANCH  26  27
ATOM     27  C   UNK A   1       9.888  -0.075  25.639  0.00  0.00    +0.104 C 
BRANCH  27  28
ATOM     28  C   UNK A   1       9.707  -0.047  24.140  0.00  0.00    -0.030 A 
ATOM     29  C   UNK A   1       9.046   1.017  23.472  0.00  0.00    -0.014 A 
ATOM     30  C   UNK A   1       8.609   2.198  24.118  0.00  0.00    +0.009 A 
ATOM     31  C   UNK A   1       7.893   3.183  23.438  0.00  0.00    +0.001 A 
ATOM     32  C   UNK A   1       7.609   3.021  22.090  0.00  0.00    +0.001 A 
ATOM     33  C   UNK A   1       8.072   1.895  21.414  0.00  0.00    +0.008 A 
ATOM     34  C   UNK A   1       8.793   0.894  22.085  0.00  0.00    -0.018 A 
ATOM     35  C   UNK A   1       9.258  -0.231  21.387  0.00  0.00    +0.008 A 
ATOM     36  C   UNK A   1       9.948  -1.248  22.041  0.00  0.00    +0.001 A 
ATOM     37  C   UNK A   1      10.166  -1.161  23.411  0.00  0.00    +0.005 A 
ENDBRANCH  27  28
ENDBRANCH  26  27
ENDBRANCH  25  26
ENDBRANCH   1  25
TORSDOF 15
ENDMDL
MODEL 3
REMARK VINA RESULT:      -6.6      2.124      4.444
REMARK  Name = 
REMARK  15 active torsions:
REMARK  status: ('A' for Active; 'I' for Inactive)
REMARK    1  A    between atoms: N_1  and  C_2
REMARK    2  A    between atoms: C_2  and  C_4
REMARK    3  A    between atoms: C_2  and  C_31
REMARK    4  A    between atoms: C_4  and  C_5
REMARK    5  A    between atoms: C_5  and  C_6
REMARK    6  A    between atoms: N_8  and  C_9
REMARK    7  A    between atoms: C_9  and  C_11
REMARK    8  A    between atoms: C_9  and  C_24
REMARK    9  A    between atoms: C_11  and  S_12
REMARK   10  A    between atoms: S_12  and  C_13
REMARK   11  A    between atoms: C_13  and  C_14
REMARK   12  A    between atoms: N_26  and  CA_27
REMARK   13  A    between atoms: CA_27  and  C_28
REMARK   14  A    between atoms: C_28  and  O_29
REMARK   15  A    between atoms: C_31  and  O_32
REMARK                            x       y       z     vdW  Elec       q    Type
REMARK                         _______ _______ _______ _____ _____    ______ ____
ROOT
ATOM      1  C   UNK A   1       6.134  -2.212  23.651  0.00  0.00    +0.169 C 
ENDROOT
BRANCH   1   3
ATOM      2  C   UNK A   1       8.545  -2.803  23.527  0.00  0.00    +0.214 C 
ATOM      3  N   UNK A   1       7.352  -2.797  24.204  0.00  0.00    -0.303 N 
ATOM      4  H   UNK A   1       7.284  -3.252  25.107  0.00  0.00    +0.149 HD
ATOM      5  O   UNK A   1       8.681  -2.333  22.402  0.00  0.00    -0.276 OA
BRANCH   2   6
ATOM      6  C   UNK A   1       9.704  -3.402  24.299  0.00  0.00    +0.098 C 
BRANCH   6   7
ATOM      7  C   UNK A   1       9.377  -3.600  25.777  0.00  0.00    +0.039 C 
BRANCH   7   8
ATOM      8  C   UNK A   1       9.299  -5.076  26.187  0.00  0.00    +0.161 C 
BRANCH   8   9
ATOM      9  N   UNK A   1       9.769  -5.995  25.109  0.00  0.00    -0.318 NA
ATOM     10  H   UNK A   1      10.312  -6.755  25.534  0.00  0.00    +0.119 HD
ATOM     11  H   UNK A   1       8.949  -6.462  24.709  0.00  0.00    +0.119 HD
ENDBRANCH   8   9
BRANCH   8  12
ATOM     12  C   UNK A   1       7.848  -5.456  26.545  0.00  0.00    +0.322 C 
ATOM     13  O   UNK A   1       7.459  -5.783  27.655  0.00  0.00    -0.249 OA
BRANCH  12  14
ATOM     14  O   UNK A   1       7.041  -5.402  25.453  0.00  0.00    -0.480 OA
ATOM     15  H   UNK A   1       6.807  -4.446  25.346  0.00  0.00    +0.295 HD
ENDBRANCH  12  14
ENDBRANCH   8  12
ENDBRANCH   7   8
ENDBRANCH   6   7
ENDBRANCH   2   6
ENDBRANCH   1   3
BRANCH   1  16
ATOM     16  C   UNK A   1       5.287  -3.279  22.936  0.00  0.00    +0.235 C 
ATOM     17  N   GLY A   2       4.579  -4.119  23.779  0.00  0.00    -0.303 N 
ATOM     18  H   GLY A   2       4.805  -4.132  24.768  0.00  0.00    +0.149 HD
ATOM     19  O   UNK A   1       5.235  -3.387  21.715  0.00  0.00    -0.274 OA
BRANCH  17  20
ATOM     20  CA  GLY A   2       3.857  -5.287  23.260  0.00  0.00    +0.224 C 
BRANCH  20  21
ATOM     21  C   GLY A   2       3.786  -6.472  24.222  0.00  0.00    +0.322 C 
ATOM     22  OXT GLY A   2       2.885  -6.628  25.033  0.00  0.00    -0.249 OA
BRANCH  21  23
ATOM     23  O   GLY A   2       4.784  -7.372  24.064  0.00  0.00    -0.480 OA
ATOM     24  H   GLY A   2       5.629  -7.011  24.397  0.00  0.00    +0.295 HD
ENDBRANCH  21  23
ENDBRANCH  20  21
ENDBRANCH  17  20
ENDBRANCH   1  16
BRANCH   1  25
ATOM     25  C   UNK A   1       5.290  -1.548  24.748  0.00  0.00    +0.101 C 
BRANCH  25  26
ATOM     26  S   UNK A   1       6.164  -1.367  26.348  0.00  0.00    -0.154 S 
BRANCH  26  27
ATOM     27  C   UNK A   1       6.687   0.366  26.197  0.00  0.00    +0.104 C 
BRANCH  27  28
ATOM     28  C   UNK A   1       7.932   0.530  25.360  0.00  0.00    -0.030 A 
ATOM     29  C   UNK A   1       7.905   1.098  24.058  0.00  0.00    -0.014 A 
ATOM     30  C   UNK A   1       6.750   1.672  23.476  0.00  0.00    +0.009 A 
ATOM     31  C   UNK A   1       6.750   2.147  22.165  0.00  0.00    +0.001 A 
ATOM     32  C   UNK A   1       7.909   2.075  21.406  0.00  0.00    +0.001 A 
ATOM     33  C   UNK A   1       9.076   1.566  21.969  0.00  0.00    +0.008 A 
ATOM     34  C   UNK A   1       9.093   1.084  23.287  0.00  0.00    -0.018 A 
ATOM     35  C   UNK A   1      10.279   0.579  23.841  0.00  0.00    +0.008 A 
ATOM     36  C   UNK A   1      10.307   0.068  25.136  0.00  0.00    +0.001 A 
ATOM     37  C   UNK A   1       9.140   0.037  25.889  0.00  0.00    +0.005 A 
ENDBRANCH  27  28
ENDBRANCH  26  27
ENDBRANCH  25  26
ENDBRANCH   1  25
TORSDOF 15
ENDMDL
MODEL 4
REMARK VINA RESULT:      -6.6      1.759      2.370
REMARK  Name = 
REMARK  15 active torsions:
REMARK  status: ('A' for Active; 'I' for Inactive)
REMARK    1  A    between atoms: N_1  and  C_2
REMARK    2  A    between atoms: C_2  and  C_4
REMARK    3  A    between atoms: C_2  and  C_31
REMARK    4  A    between atoms: C_4  and  C_5
REMARK    5  A    between atoms: C_5  and  C_6
REMARK    6  A    between atoms: N_8  and  C_9
REMARK    7  A    between atoms: C_9  and  C_11
REMARK    8  A    between atoms: C_9  and  C_24
REMARK    9  A    between atoms: C_11  and  S_12
REMARK   10  A    between atoms: S_12  and  C_13
REMARK   11  A    between atoms: C_13  and  C_14
REMARK   12  A    between atoms: N_26  and  CA_27
REMARK   13  A    between atoms: CA_27  and  C_28
REMARK   14  A    between atoms: C_28  and  O_29
REMARK   15  A    between atoms: C_31  and  O_32
REMARK                            x       y       z     vdW  Elec       q    Type
REMARK                         _______ _______ _______ _____ _____    ______ ____
ROOT
ATOM      1  C   UNK A   1       8.085  -3.217  24.695  0.00  0.00    +0.169 C 
ENDROOT
BRANCH   1   3
ATOM      2  C   UNK A   1       7.829  -4.590  26.751  0.00  0.00    +0.214 C 
ATOM      3  N   UNK A   1       7.280  -3.946  25.671  0.00  0.00    -0.303 N 
ATOM      4  H   UNK A   1       6.283  -4.006  25.504  0.00  0.00    +0.149 HD
ATOM      5  O   UNK A   1       9.036  -4.617  26.974  0.00  0.00    -0.276 OA
BRANCH   2   6
ATOM      6  C   UNK A   1       6.820  -5.235  27.679  0.00  0.00    +0.098 C 
BRANCH   6   7
ATOM      7  C   UNK A   1       5.383  -5.046  27.196  0.00  0.00    +0.039 C 
BRANCH   7   8
ATOM      8  C   UNK A   1       4.589  -6.358  27.135  0.00  0.00    +0.161 C 
BRANCH   8   9
ATOM      9  N   UNK A   1       5.202  -7.437  27.965  0.00  0.00    -0.318 NA
ATOM     10  H   UNK A   1       4.642  -7.560  28.815  0.00  0.00    +0.119 HD
ATOM     11  H   UNK A   1       5.097  -8.324  27.462  0.00  0.00    +0.119 HD
ENDBRANCH   8   9
BRANCH   8  12
ATOM     12  C   UNK A   1       4.499  -6.861  25.681  0.00  0.00    +0.322 C 
ATOM     13  O   UNK A   1       3.805  -7.790  25.299  0.00  0.00    -0.249 OA
BRANCH  12  14
ATOM     14  O   UNK A   1       5.315  -6.148  24.861  0.00  0.00    -0.480 OA
ATOM     15  H   UNK A   1       5.748  -6.817  24.274  0.00  0.00    +0.295 HD
ENDBRANCH  12  14
ENDBRANCH   8  12
ENDBRANCH   7   8
ENDBRANCH   6   7
ENDBRANCH   2   6
ENDBRANCH   1   3
BRANCH   1  16
ATOM     16  C   UNK A   1       7.852  -3.761  23.274  0.00  0.00    +0.235 C 
ATOM     17  N   GLY A   2       7.500  -5.099  23.216  0.00  0.00    -0.303 N 
ATOM     18  H   GLY A   2       7.618  -5.678  24.041  0.00  0.00    +0.149 HD
ATOM     19  O   UNK A   1       7.965  -3.072  22.265  0.00  0.00    -0.274 OA
BRANCH  17  20
ATOM     20  CA  GLY A   2       7.404  -5.805  21.933  0.00  0.00    +0.224 C 
BRANCH  20  21
ATOM     21  C   GLY A   2       6.055  -5.669  21.228  0.00  0.00    +0.322 C 
ATOM     22  OXT GLY A   2       5.928  -5.663  20.012  0.00  0.00    -0.249 OA
BRANCH  21  23
ATOM     23  O   GLY A   2       4.997  -5.606  22.069  0.00  0.00    -0.480 OA
ATOM     24  H   GLY A   2       4.240  -5.165  21.637  0.00  0.00    +0.295 HD
ENDBRANCH  21  23
ENDBRANCH  20  21
ENDBRANCH  17  20
ENDBRANCH   1  16
BRANCH   1  25
ATOM     25  C   UNK A   1       7.762  -1.716  24.721  0.00  0.00    +0.101 C 
BRANCH  25  26
ATOM     26  S   UNK A   1       8.574  -0.807  26.088  0.00  0.00    -0.154 S 
BRANCH  26  27
ATOM     27  C   UNK A   1       9.992  -0.126  25.180  0.00  0.00    +0.104 C 
BRANCH  27  28
ATOM     28  C   UNK A   1       9.598   0.493  23.861  0.00  0.00    -0.030 A 
ATOM     29  C   UNK A   1       8.902   1.728  23.776  0.00  0.00    -0.014 A 
ATOM     30  C   UNK A   1       8.624   2.550  24.894  0.00  0.00    +0.009 A 
ATOM     31  C   UNK A   1       7.868   3.716  24.776  0.00  0.00    +0.001 A 
ATOM     32  C   UNK A   1       7.384   4.100  23.534  0.00  0.00    +0.001 A 
ATOM     33  C   UNK A   1       7.687   3.342  22.406  0.00  0.00    +0.008 A 
ATOM     34  C   UNK A   1       8.447   2.165  22.509  0.00  0.00    -0.018 A 
ATOM     35  C   UNK A   1       8.749   1.416  21.362  0.00  0.00    +0.008 A 
ATOM     36  C   UNK A   1       9.474   0.230  21.448  0.00  0.00    +0.001 A 
ATOM     37  C   UNK A   1       9.891  -0.233  22.690  0.00  0.00    +0.005 A 
ENDBRANCH  27  28
ENDBRANCH  26  27
ENDBRANCH  25  26
ENDBRANCH   1  25
TORSDOF 15
ENDMDL
MODEL 5
REMARK VINA RESULT:      -6.4      1.177      1.911
REMARK  Name = 
REMARK  15 active torsions:
REMARK  status: ('A' for Active; 'I' for Inactive)
REMARK    1  A    between atoms: N_1  and  C_2
REMARK    2  A    between atoms: C_2  and  C_4
REMARK    3  A    between atoms: C_2  and  C_31
REMARK    4  A    between atoms: C_4  and  C_5
REMARK    5  A    between atoms: C_5  and  C_6
REMARK    6  A    between atoms: N_8  and  C_9
REMARK    7  A    between atoms: C_9  and  C_11
REMARK    8  A    between atoms: C_9  and  C_24
REMARK    9  A    between atoms: C_11  and  S_12
REMARK   10  A    between atoms: S_12  and  C_13
REMARK   11  A    between atoms: C_13  and  C_14
REMARK   12  A    between atoms: N_26  and  CA_27
REMARK   13  A    between atoms: CA_27  and  C_28
REMARK   14  A    between atoms: C_28  and  O_29
REMARK   15  A    between atoms: C_31  and  O_32
REMARK                            x       y       z     vdW  Elec       q    Type
REMARK                         _______ _______ _______ _____ _____    ______ ____
ROOT
ATOM      1  C   UNK A   1       7.542  -5.176  26.163  0.00  0.00    +0.169 C 
ENDROOT
BRANCH   1   3
ATOM      2  C   UNK A   1       5.665  -6.338  27.305  0.00  0.00    +0.214 C 
ATOM      3  N   UNK A   1       6.160  -5.643  26.231  0.00  0.00    -0.303 N 
ATOM      4  H   UNK A   1       5.570  -5.477  25.425  0.00  0.00    +0.149 HD
ATOM      5  O   UNK A   1       6.344  -6.635  28.284  0.00  0.00    -0.276 OA
BRANCH   2   6
ATOM      6  C   UNK A   1       4.191  -6.678  27.211  0.00  0.00    +0.098 C 
BRANCH   6   7
ATOM      7  C   UNK A   1       3.483  -5.889  26.111  0.00  0.00    +0.039 C 
BRANCH   7   8
ATOM      8  C   UNK A   1       2.902  -6.781  25.006  0.00  0.00    +0.161 C 
BRANCH   8   9
ATOM      9  N   UNK A   1       2.980  -8.233  25.342  0.00  0.00    -0.318 NA
ATOM     10  H   UNK A   1       3.606  -8.355  26.145  0.00  0.00    +0.119 HD
ATOM     11  H   UNK A   1       2.062  -8.529  25.689  0.00  0.00    +0.119 HD
ENDBRANCH   8   9
BRANCH   8  12
ATOM     12  C   UNK A   1       3.658  -6.552  23.682  0.00  0.00    +0.322 C 
ATOM     13  O   UNK A   1       3.246  -5.892  22.741  0.00  0.00    -0.249 OA
BRANCH  12  14
ATOM     14  O   UNK A   1       4.851  -7.202  23.677  0.00  0.00    -0.480 OA
ATOM     15  H   UNK A   1       4.657  -8.106  23.324  0.00  0.00    +0.295 HD
ENDBRANCH  12  14
ENDBRANCH   8  12
ENDBRANCH   7   8
ENDBRANCH   6   7
ENDBRANCH   2   6
ENDBRANCH   1   3
BRANCH   1  16
ATOM     16  C   UNK A   1       8.049  -5.171  24.710  0.00  0.00    +0.235 C 
ATOM     17  N   GLY A   2       7.063  -5.007  23.752  0.00  0.00    -0.303 N 
ATOM     18  H   GLY A   2       6.089  -5.111  24.022  0.00  0.00    +0.149 HD
ATOM     19  O   UNK A   1       9.232  -5.299  24.412  0.00  0.00    -0.274 OA
BRANCH  17  20
ATOM     20  CA  GLY A   2       7.361  -5.144  22.322  0.00  0.00    +0.224 C 
BRANCH  20  21
ATOM     21  C   GLY A   2       6.161  -4.941  21.397  0.00  0.00    +0.322 C 
ATOM     22  OXT GLY A   2       5.955  -5.620  20.401  0.00  0.00    -0.249 OA
BRANCH  21  23
ATOM     23  O   GLY A   2       5.308  -3.972  21.804  0.00  0.00    -0.480 OA
ATOM     24  H   GLY A   2       5.299  -3.232  21.166  0.00  0.00    +0.295 HD
ENDBRANCH  21  23
ENDBRANCH  20  21
ENDBRANCH  17  20
ENDBRANCH   1  16
BRANCH   1  25
ATOM     25  C   UNK A   1       7.680  -3.765  26.752  0.00  0.00    +0.101 C 
BRANCH  25  26
ATOM     26  S   UNK A   1       6.307  -2.639  26.305  0.00  0.00    -0.154 S 
BRANCH  26  27
ATOM     27  C   UNK A   1       7.206  -1.061  26.335  0.00  0.00    +0.104 C 
BRANCH  27  28
ATOM     28  C   UNK A   1       7.173  -0.344  25.007  0.00  0.00    -0.030 A 
ATOM     29  C   UNK A   1       8.116  -0.603  23.977  0.00  0.00    -0.014 A 
ATOM     30  C   UNK A   1       9.087  -1.630  24.043  0.00  0.00    +0.009 A 
ATOM     31  C   UNK A   1      10.044  -1.798  23.043  0.00  0.00    +0.001 A 
ATOM     32  C   UNK A   1      10.046  -0.953  21.943  0.00  0.00    +0.001 A 
ATOM     33  C   UNK A   1       9.070   0.032  21.822  0.00  0.00    +0.008 A 
ATOM     34  C   UNK A   1       8.100   0.214  22.821  0.00  0.00    -0.018 A 
ATOM     35  C   UNK A   1       7.119   1.208  22.683  0.00  0.00    +0.008 A 
ATOM     36  C   UNK A   1       6.168   1.424  23.676  0.00  0.00    +0.001 A 
ATOM     37  C   UNK A   1       6.198   0.658  24.835  0.00  0.00    +0.005 A 
ENDBRANCH  27  28
ENDBRANCH  26  27
ENDBRANCH  25  26
ENDBRANCH   1  25
TORSDOF 15
ENDMDL
MODEL 6
REMARK VINA RESULT:      -6.3      2.412      4.868
REMARK  Name = 
REMARK  15 active torsions:
REMARK  status: ('A' for Active; 'I' for Inactive)
REMARK    1  A    between atoms: N_1  and  C_2
REMARK    2  A    between atoms: C_2  and  C_4
REMARK    3  A    between atoms: C_2  and  C_31
REMARK    4  A    between atoms: C_4  and  C_5
REMARK    5  A    between atoms: C_5  and  C_6
REMARK    6  A    between atoms: N_8  and  C_9
REMARK    7  A    between atoms: C_9  and  C_11
REMARK    8  A    between atoms: C_9  and  C_24
REMARK    9  A    between atoms: C_11  and  S_12
REMARK   10  A    between atoms: S_12  and  C_13
REMARK   11  A    between atoms: C_13  and  C_14
REMARK   12  A    between atoms: N_26  and  CA_27
REMARK   13  A    between atoms: CA_27  and  C_28
REMARK   14  A    between atoms: C_28  and  O_29
REMARK   15  A    between atoms: C_31  and  O_32
REMARK                            x       y       z     vdW  Elec       q    Type
REMARK                         _______ _______ _______ _____ _____    ______ ____
ROOT
ATOM      1  C   UNK A   1       4.267  -2.449  25.748  0.00  0.00    +0.169 C 
ENDROOT
BRANCH   1   3
ATOM      2  C   UNK A   1       5.950  -3.093  24.036  0.00  0.00    +0.214 C 
ATOM      3  N   UNK A   1       5.641  -2.655  25.299  0.00  0.00    -0.303 N 
ATOM      4  H   UNK A   1       6.381  -2.506  25.974  0.00  0.00    +0.149 HD
ATOM      5  O   UNK A   1       5.101  -3.359  23.191  0.00  0.00    -0.276 OA
BRANCH   2   6
ATOM      6  C   UNK A   1       7.435  -3.182  23.746  0.00  0.00    +0.098 C 
BRANCH   6   7
ATOM      7  C   UNK A   1       8.009  -4.559  24.075  0.00  0.00    +0.039 C 
BRANCH   7   8
ATOM      8  C   UNK A   1       8.980  -4.542  25.263  0.00  0.00    +0.161 C 
BRANCH   8   9
ATOM      9  N   UNK A   1       9.992  -5.637  25.191  0.00  0.00    -0.318 NA
ATOM     10  H   UNK A   1      10.148  -5.881  24.207  0.00  0.00    +0.119 HD
ATOM     11  H   UNK A   1      10.892  -5.261  25.505  0.00  0.00    +0.119 HD
ENDBRANCH   8   9
BRANCH   8  12
ATOM     12  C   UNK A   1       8.207  -4.686  26.588  0.00  0.00    +0.322 C 
ATOM     13  O   UNK A   1       7.642  -3.778  27.177  0.00  0.00    -0.249 OA
BRANCH  12  14
ATOM     14  O   UNK A   1       8.247  -5.965  27.046  0.00  0.00    -0.480 OA
ATOM     15  H   UNK A   1       7.351  -6.341  26.855  0.00  0.00    +0.295 HD
ENDBRANCH  12  14
ENDBRANCH   8  12
ENDBRANCH   7   8
ENDBRANCH   6   7
ENDBRANCH   2   6
ENDBRANCH   1   3
BRANCH   1  16
ATOM     16  C   UNK A   1       3.761  -3.666  26.543  0.00  0.00    +0.235 C 
ATOM     17  N   GLY A   2       4.674  -4.193  27.441  0.00  0.00    -0.303 N 
ATOM     18  H   GLY A   2       5.647  -3.908  27.382  0.00  0.00    +0.149 HD
ATOM     19  O   UNK A   1       2.638  -4.139  26.402  0.00  0.00    -0.274 OA
BRANCH  17  20
ATOM     20  CA  GLY A   2       4.404  -5.447  28.153  0.00  0.00    +0.224 C 
BRANCH  20  21
ATOM     21  C   GLY A   2       5.102  -6.675  27.569  0.00  0.00    +0.322 C 
ATOM     22  OXT GLY A   2       5.413  -6.777  26.392  0.00  0.00    -0.249 OA
BRANCH  21  23
ATOM     23  O   GLY A   2       5.397  -7.629  28.483  0.00  0.00    -0.480 OA
ATOM     24  H   GLY A   2       6.259  -8.043  28.282  0.00  0.00    +0.295 HD
ENDBRANCH  21  23
ENDBRANCH  20  21
ENDBRANCH  17  20
ENDBRANCH   1  16
BRANCH   1  25
ATOM     25  C   UNK A   1       4.152  -1.191  26.620  0.00  0.00    +0.101 C 
BRANCH  25  26
ATOM     26  S   UNK A   1       5.762  -0.554  27.218  0.00  0.00    -0.154 S 
BRANCH  26  27
ATOM     27  C   UNK A   1       6.139   0.595  25.863  0.00  0.00    +0.104 C 
BRANCH  27  28
ATOM     28  C   UNK A   1       7.505   0.363  25.263  0.00  0.00    -0.030 A 
ATOM     29  C   UNK A   1       7.854   0.821  23.965  0.00  0.00    -0.014 A 
ATOM     30  C   UNK A   1       7.015   1.636  23.168  0.00  0.00    +0.009 A 
ATOM     31  C   UNK A   1       7.366   1.997  21.867  0.00  0.00    +0.001 A 
ATOM     32  C   UNK A   1       8.572   1.567  21.335  0.00  0.00    +0.001 A 
ATOM     33  C   UNK A   1       9.444   0.810  22.113  0.00  0.00    +0.008 A 
ATOM     34  C   UNK A   1       9.105   0.437  23.424  0.00  0.00    -0.018 A 
ATOM     35  C   UNK A   1       9.997  -0.321  24.197  0.00  0.00    +0.008 A 
ATOM     36  C   UNK A   1       9.665  -0.725  25.487  0.00  0.00    +0.001 A 
ATOM     37  C   UNK A   1       8.424  -0.392  26.015  0.00  0.00    +0.005 A 
ENDBRANCH  27  28
ENDBRANCH  26  27
ENDBRANCH  25  26
ENDBRANCH   1  25
TORSDOF 15
ENDMDL
MODEL 7
REMARK VINA RESULT:      -6.3      2.175      4.514
REMARK  Name = 
REMARK  15 active torsions:
REMARK  status: ('A' for Active; 'I' for Inactive)
REMARK    1  A    between atoms: N_1  and  C_2
REMARK    2  A    between atoms: C_2  and  C_4
REMARK    3  A    between atoms: C_2  and  C_31
REMARK    4  A    between atoms: C_4  and  C_5
REMARK    5  A    between atoms: C_5  and  C_6
REMARK    6  A    between atoms: N_8  and  C_9
REMARK    7  A    between atoms: C_9  and  C_11
REMARK    8  A    between atoms: C_9  and  C_24
REMARK    9  A    between atoms: C_11  and  S_12
REMARK   10  A    between atoms: S_12  and  C_13
REMARK   11  A    between atoms: C_13  and  C_14
REMARK   12  A    between atoms: N_26  and  CA_27
REMARK   13  A    between atoms: CA_27  and  C_28
REMARK   14  A    between atoms: C_28  and  O_29
REMARK   15  A    between atoms: C_31  and  O_32
REMARK                            x       y       z     vdW  Elec       q    Type
REMARK                         _______ _______ _______ _____ _____    ______ ____
ROOT
ATOM      1  C   UNK A   1       5.404  -5.851  23.185  0.00  0.00    +0.169 C 
ENDROOT
BRANCH   1   3
ATOM      2  C   UNK A   1       5.622  -5.694  25.656  0.00  0.00    +0.214 C 
ATOM      3  N   UNK A   1       5.882  -5.201  24.403  0.00  0.00    -0.303 N 
ATOM      4  H   UNK A   1       6.386  -4.329  24.301  0.00  0.00    +0.149 HD
ATOM      5  O   UNK A   1       4.958  -6.707  25.855  0.00  0.00    -0.276 OA
BRANCH   2   6
ATOM      6  C   UNK A   1       6.258  -4.909  26.786  0.00  0.00    +0.098 C 
BRANCH   6   7
ATOM      7  C   UNK A   1       7.668  -5.398  27.109  0.00  0.00    +0.039 C 
BRANCH   7   8
ATOM      8  C   UNK A   1       8.766  -4.462  26.586  0.00  0.00    +0.161 C 
BRANCH   8   9
ATOM      9  N   UNK A   1       8.257  -3.091  26.289  0.00  0.00    -0.318 NA
ATOM     10  H   UNK A   1       7.273  -3.034  26.574  0.00  0.00    +0.119 HD
ATOM     11  H   UNK A   1       8.740  -2.432  26.907  0.00  0.00    +0.119 HD
ENDBRANCH   8   9
BRANCH   8  12
ATOM     12  C   UNK A   1       9.386  -5.036  25.296  0.00  0.00    +0.322 C 
ATOM     13  O   UNK A   1       8.823  -5.105  24.215  0.00  0.00    -0.249 OA
BRANCH  12  14
ATOM     14  O   UNK A   1      10.651  -5.483  25.513  0.00  0.00    -0.480 OA
ATOM     15  H   UNK A   1      10.580  -6.470  25.540  0.00  0.00    +0.295 HD
ENDBRANCH  12  14
ENDBRANCH   8  12
ENDBRANCH   7   8
ENDBRANCH   6   7
ENDBRANCH   2   6
ENDBRANCH   1   3
BRANCH   1  16
ATOM     16  C   UNK A   1       3.875  -5.732  23.063  0.00  0.00    +0.235 C 
ATOM     17  N   GLY A   2       3.204  -6.939  22.963  0.00  0.00    -0.303 N 
ATOM     18  H   GLY A   2       3.733  -7.784  22.768  0.00  0.00    +0.149 HD
ATOM     19  O   UNK A   1       3.285  -4.656  23.055  0.00  0.00    -0.274 OA
BRANCH  17  20
ATOM     20  CA  GLY A   2       1.766  -6.989  22.677  0.00  0.00    +0.224 C 
BRANCH  20  21
ATOM     21  C   GLY A   2       1.222  -8.387  22.381  0.00  0.00    +0.322 C 
ATOM     22  OXT GLY A   2       0.670  -9.086  23.217  0.00  0.00    -0.249 OA
BRANCH  21  23
ATOM     23  O   GLY A   2       1.358  -8.770  21.090  0.00  0.00    -0.480 OA
ATOM     24  H   GLY A   2       1.797  -9.640  21.033  0.00  0.00    +0.295 HD
ENDBRANCH  21  23
ENDBRANCH  20  21
ENDBRANCH  17  20
ENDBRANCH   1  16
BRANCH   1  25
ATOM     25  C   UNK A   1       6.061  -5.242  21.938  0.00  0.00    +0.101 C 
BRANCH  25  26
ATOM     26  S   UNK A   1       5.722  -3.455  21.721  0.00  0.00    -0.154 S 
BRANCH  26  27
ATOM     27  C   UNK A   1       7.299  -2.787  22.328  0.00  0.00    +0.104 C 
BRANCH  27  28
ATOM     28  C   UNK A   1       7.134  -1.480  23.067  0.00  0.00    -0.030 A 
ATOM     29  C   UNK A   1       8.006  -0.378  22.867  0.00  0.00    -0.014 A 
ATOM     30  C   UNK A   1       9.021  -0.348  21.882  0.00  0.00    +0.009 A 
ATOM     31  C   UNK A   1       9.907   0.724  21.774  0.00  0.00    +0.001 A 
ATOM     32  C   UNK A   1       9.789   1.803  22.638  0.00  0.00    +0.001 A 
ATOM     33  C   UNK A   1       8.766   1.829  23.582  0.00  0.00    +0.008 A 
ATOM     34  C   UNK A   1       7.868   0.756  23.704  0.00  0.00    -0.018 A 
ATOM     35  C   UNK A   1       6.839   0.800  24.656  0.00  0.00    +0.008 A 
ATOM     36  C   UNK A   1       5.958  -0.267  24.812  0.00  0.00    +0.001 A 
ATOM     37  C   UNK A   1       6.108  -1.403  24.027  0.00  0.00    +0.005 A 
ENDBRANCH  27  28
ENDBRANCH  26  27
ENDBRANCH  25  26
ENDBRANCH   1  25
TORSDOF 15
ENDMDL
MODEL 8
REMARK VINA RESULT:      -6.2      2.694      6.344
REMARK  Name = 
REMARK  15 active torsions:
REMARK  status: ('A' for Active; 'I' for Inactive)
REMARK    1  A    between atoms: N_1  and  C_2
REMARK    2  A    between atoms: C_2  and  C_4
REMARK    3  A    between atoms: C_2  and  C_31
REMARK    4  A    between atoms: C_4  and  C_5
REMARK    5  A    between atoms: C_5  and  C_6
REMARK    6  A    between atoms: N_8  and  C_9
REMARK    7  A    between atoms: C_9  and  C_11
REMARK    8  A    between atoms: C_9  and  C_24
REMARK    9  A    between atoms: C_11  and  S_12
REMARK   10  A    between atoms: S_12  and  C_13
REMARK   11  A    between atoms: C_13  and  C_14
REMARK   12  A    between atoms: N_26  and  CA_27
REMARK   13  A    between atoms: CA_27  and  C_28
REMARK   14  A    between atoms: C_28  and  O_29
REMARK   15  A    between atoms: C_31  and  O_32
REMARK                            x       y       z     vdW  Elec       q    Type
REMARK                         _______ _______ _______ _____ _____    ______ ____
ROOT
ATOM      1  C   UNK A   1       8.174  -1.525  26.223  0.00  0.00    +0.169 C 
ENDROOT
BRANCH   1   3
ATOM      2  C   UNK A   1       8.197  -3.996  25.957  0.00  0.00    +0.214 C 
ATOM      3  N   UNK A   1       7.787  -2.756  25.539  0.00  0.00    -0.303 N 
ATOM      4  H   UNK A   1       7.228  -2.669  24.699  0.00  0.00    +0.149 HD
ATOM      5  O   UNK A   1       8.932  -4.169  26.925  0.00  0.00    -0.276 OA
BRANCH   2   6
ATOM      6  C   UNK A   1       7.636  -5.150  25.151  0.00  0.00    +0.098 C 
BRANCH   6   7
ATOM      7  C   UNK A   1       8.035  -5.078  23.679  0.00  0.00    +0.039 C 
BRANCH   7   8
ATOM      8  C   UNK A   1       6.832  -5.006  22.729  0.00  0.00    +0.161 C 
BRANCH   8   9
ATOM      9  N   UNK A   1       7.004  -5.866  21.521  0.00  0.00    -0.318 NA
ATOM     10  H   UNK A   1       7.311  -6.799  21.819  0.00  0.00    +0.119 HD
ATOM     11  H   UNK A   1       6.079  -6.023  21.108  0.00  0.00    +0.119 HD
ENDBRANCH   8   9
BRANCH   8  12
ATOM     12  C   UNK A   1       6.608  -3.555  22.259  0.00  0.00    +0.322 C 
ATOM     13  O   UNK A   1       7.329  -2.608  22.531  0.00  0.00    -0.249 OA
BRANCH  12  14
ATOM     14  O   UNK A   1       5.480  -3.448  21.510  0.00  0.00    -0.480 OA
ATOM     15  H   UNK A   1       5.675  -2.745  20.840  0.00  0.00    +0.295 HD
ENDBRANCH  12  14
ENDBRANCH   8  12
ENDBRANCH   7   8
ENDBRANCH   6   7
ENDBRANCH   2   6
ENDBRANCH   1   3
BRANCH   1  16
ATOM     16  C   UNK A   1       8.898  -0.567  25.260  0.00  0.00    +0.235 C 
ATOM     17  N   GLY A   2       9.573  -1.187  24.222  0.00  0.00    -0.303 N 
ATOM     18  H   GLY A   2       9.732  -2.189  24.265  0.00  0.00    +0.149 HD
ATOM     19  O   UNK A   1       8.884   0.653  25.391  0.00  0.00    -0.274 OA
BRANCH  17  20
ATOM     20  CA  GLY A   2      10.444  -0.427  23.319  0.00  0.00    +0.224 C 
BRANCH  20  21
ATOM     21  C   GLY A   2       9.809  -0.060  21.978  0.00  0.00    +0.322 C 
ATOM     22  OXT GLY A   2       9.567   1.089  21.639  0.00  0.00    -0.249 OA
BRANCH  21  23
ATOM     23  O   GLY A   2       9.581  -1.119  21.167  0.00  0.00    -0.480 OA
ATOM     24  H   GLY A   2      10.407  -1.617  21.011  0.00  0.00    +0.295 HD
ENDBRANCH  21  23
ENDBRANCH  20  21
ENDBRANCH  17  20
ENDBRANCH   1  16
BRANCH   1  25
ATOM     25  C   UNK A   1       6.951  -0.814  26.819  0.00  0.00    +0.101 C 
BRANCH  25  26
ATOM     26  S   UNK A   1       5.476  -0.840  25.733  0.00  0.00    -0.154 S 
BRANCH  26  27
ATOM     27  C   UNK A   1       4.365  -1.824  26.779  0.00  0.00    +0.104 C 
BRANCH  27  28
ATOM     28  C   UNK A   1       4.163  -3.227  26.260  0.00  0.00    -0.030 A 
ATOM     29  C   UNK A   1       4.528  -4.377  27.011  0.00  0.00    -0.014 A 
ATOM     30  C   UNK A   1       4.991  -4.327  28.347  0.00  0.00    +0.009 A 
ATOM     31  C   UNK A   1       5.413  -5.474  29.019  0.00  0.00    +0.001 A 
ATOM     32  C   UNK A   1       5.368  -6.703  28.378  0.00  0.00    +0.001 A 
ATOM     33  C   UNK A   1       4.865  -6.793  27.083  0.00  0.00    +0.008 A 
ATOM     34  C   UNK A   1       4.437  -5.647  26.392  0.00  0.00    -0.018 A 
ATOM     35  C   UNK A   1       3.928  -5.755  25.090  0.00  0.00    +0.008 A 
ATOM     36  C   UNK A   1       3.528  -4.627  24.379  0.00  0.00    +0.001 A 
ATOM     37  C   UNK A   1       3.651  -3.370  24.957  0.00  0.00    +0.005 A 
ENDBRANCH  27  28
ENDBRANCH  26  27
ENDBRANCH  25  26
ENDBRANCH   1  25
TORSDOF 15
ENDMDL
MODEL 9
REMARK VINA RESULT:      -6.1      2.863      5.245
REMARK  Name = 
REMARK  15 active torsions:
REMARK  status: ('A' for Active; 'I' for Inactive)
REMARK    1  A    between atoms: N_1  and  C_2
REMARK    2  A    between atoms: C_2  and  C_4
REMARK    3  A    between atoms: C_2  and  C_31
REMARK    4  A    between atoms: C_4  and  C_5
REMARK    5  A    between atoms: C_5  and  C_6
REMARK    6  A    between atoms: N_8  and  C_9
REMARK    7  A    between atoms: C_9  and  C_11
REMARK    8  A    between atoms: C_9  and  C_24
REMARK    9  A    between atoms: C_11  and  S_12
REMARK   10  A    between atoms: S_12  and  C_13
REMARK   11  A    between atoms: C_13  and  C_14
REMARK   12  A    between atoms: N_26  and  CA_27
REMARK   13  A    between atoms: CA_27  and  C_28
REMARK   14  A    between atoms: C_28  and  O_29
REMARK   15  A    between atoms: C_31  and  O_32
REMARK                            x       y       z     vdW  Elec       q    Type
REMARK                         _______ _______ _______ _____ _____    ______ ____
ROOT
ATOM      1  C   UNK A   1       6.255  -1.069  26.278  0.00  0.00    +0.169 C 
ENDROOT
BRANCH   1   3
ATOM      2  C   UNK A   1       6.974  -1.529  23.944  0.00  0.00    +0.214 C 
ATOM      3  N   UNK A   1       7.119  -1.717  25.294  0.00  0.00    -0.303 N 
ATOM      4  H   UNK A   1       7.820  -2.361  25.640  0.00  0.00    +0.149 HD
ATOM      5  O   UNK A   1       6.102  -0.817  23.454  0.00  0.00    -0.276 OA
BRANCH   2   6
ATOM      6  C   UNK A   1       8.008  -2.240  23.094  0.00  0.00    +0.098 C 
BRANCH   6   7
ATOM      7  C   UNK A   1       9.106  -2.887  23.937  0.00  0.00    +0.039 C 
BRANCH   7   8
ATOM      8  C   UNK A   1       8.817  -4.354  24.282  0.00  0.00    +0.161 C 
BRANCH   8   9
ATOM      9  N   UNK A   1       7.356  -4.648  24.354  0.00  0.00    -0.318 NA
ATOM     10  H   UNK A   1       6.859  -4.020  23.714  0.00  0.00    +0.119 HD
ATOM     11  H   UNK A   1       7.200  -5.583  23.964  0.00  0.00    +0.119 HD
ENDBRANCH   8   9
BRANCH   8  12
ATOM     12  C   UNK A   1       9.449  -4.717  25.640  0.00  0.00    +0.322 C 
ATOM     13  O   UNK A   1       9.087  -4.286  26.724  0.00  0.00    -0.249 OA
BRANCH  12  14
ATOM     14  O   UNK A   1      10.491  -5.575  25.485  0.00  0.00    -0.480 OA
ATOM     15  H   UNK A   1      10.490  -6.141  26.298  0.00  0.00    +0.295 HD
ENDBRANCH  12  14
ENDBRANCH   8  12
ENDBRANCH   7   8
ENDBRANCH   6   7
ENDBRANCH   2   6
ENDBRANCH   1   3
BRANCH   1  16
ATOM     16  C   UNK A   1       5.604  -2.109  27.206  0.00  0.00    +0.235 C 
ATOM     17  N   GLY A   2       6.165  -3.374  27.146  0.00  0.00    -0.303 N 
ATOM     18  H   GLY A   2       6.797  -3.598  26.384  0.00  0.00    +0.149 HD
ATOM     19  O   UNK A   1       4.661  -1.849  27.947  0.00  0.00    -0.274 OA
BRANCH  17  20
ATOM     20  CA  GLY A   2       5.556  -4.511  27.844  0.00  0.00    +0.224 C 
BRANCH  20  21
ATOM     21  C   GLY A   2       6.155  -5.872  27.492  0.00  0.00    +0.322 C 
ATOM     22  OXT GLY A   2       5.621  -6.667  26.732  0.00  0.00    -0.249 OA
BRANCH  21  23
ATOM     23  O   GLY A   2       7.363  -6.106  28.055  0.00  0.00    -0.480 OA
ATOM     24  H   GLY A   2       7.688  -5.308  28.516  0.00  0.00    +0.295 HD
ENDBRANCH  21  23
ENDBRANCH  20  21
ENDBRANCH  17  20
ENDBRANCH   1  16
BRANCH   1  25
ATOM     25  C   UNK A   1       7.041  -0.057  27.124  0.00  0.00    +0.101 C 
BRANCH  25  26
ATOM     26  S   UNK A   1       6.203   1.561  27.312  0.00  0.00    -0.154 S 
BRANCH  26  27
ATOM     27  C   UNK A   1       7.359   2.596  26.369  0.00  0.00    +0.104 C 
BRANCH  27  28
ATOM     28  C   UNK A   1       7.188   2.453  24.876  0.00  0.00    -0.030 A 
ATOM     29  C   UNK A   1       8.186   1.878  24.046  0.00  0.00    -0.014 A 
ATOM     30  C   UNK A   1       9.368   1.278  24.541  0.00  0.00    +0.009 A 
ATOM     31  C   UNK A   1      10.359   0.796  23.685  0.00  0.00    +0.001 A 
ATOM     32  C   UNK A   1      10.187   0.888  22.312  0.00  0.00    +0.001 A 
ATOM     33  C   UNK A   1       9.011   1.424  21.794  0.00  0.00    +0.008 A 
ATOM     34  C   UNK A   1       8.004   1.913  22.642  0.00  0.00    -0.018 A 
ATOM     35  C   UNK A   1       6.822   2.444  22.104  0.00  0.00    +0.008 A 
ATOM     36  C   UNK A   1       5.827   2.962  22.928  0.00  0.00    +0.001 A 
ATOM     37  C   UNK A   1       6.010   2.973  24.305  0.00  0.00    +0.005 A 
ENDBRANCH  27  28
ENDBRANCH  26  27
ENDBRANCH  25  26
ENDBRANCH   1  25
TORSDOF 15
ENDMDL
