MODEL 1
REMARK VINA RESULT:      -6.8      0.000      0.000
REMARK  Name = 
REMARK  13 active torsions:
REMARK  status: ('A' for Active; 'I' for Inactive)
REMARK    1  A    between atoms: O_1  and  C_2
REMARK    2  A    between atoms: C_5  and  N_24
REMARK    3  A    between atoms: C_8  and  C_10
REMARK    4  A    between atoms: C_10  and  O_11
REMARK    5  A    between atoms: O_11  and  P_12
REMARK    6  A    between atoms: P_12  and  O_13
REMARK    7  A    between atoms: P_12  and  O_15
REMARK    8  A    between atoms: O_15  and  P_16
REMARK    9  A    between atoms: P_16  and  O_17
REMARK   10  A    between atoms: P_16  and  O_19
REMARK   11  A    between atoms: O_19  and  P_20
REMARK   12  A    between atoms: P_20  and  O_21
REMARK   13  A    between atoms: P_20  and  O_22
REMARK                            x       y       z     vdW  Elec       q    Type
REMARK                         _______ _______ _______ _____ _____    ______ ____
ROOT
ATOM      1  C   UNL     1       8.213  -2.701  26.201  0.00  0.00    +0.206 C 
ENDROOT
BRANCH   1   3
ATOM      2  C   UNL     1       9.689  -0.867  25.267  0.00  0.00    +0.150 C 
ATOM      3  C   UNL     1       8.255  -1.318  25.560  0.00  0.00    +0.175 C 
ATOM      4  O   UNL     1       7.538  -1.334  24.308  0.00  0.00    -0.348 OA
ATOM      5  C   UNL     1       8.407  -0.823  23.274  0.00  0.00    +0.226 C 
ATOM      6  C   UNL     1       9.817  -1.105  23.783  0.00  0.00    +0.088 C 
BRANCH   5   7
ATOM      7  N   UNL     1       8.124   0.598  23.007  0.00  0.00    -0.274 N 
ATOM      8  C   UNL     1       8.875   1.209  22.004  0.00  0.00    +0.331 A 
ATOM      9  O   UNL     1       9.747   0.639  21.351  0.00  0.00    -0.246 OA
ATOM     10  N   UNL     1       8.582   2.527  21.757  0.00  0.00    -0.275 N 
ATOM     11  H   UNL     1       9.107   2.970  21.017  0.00  0.00    +0.173 HD
ATOM     12  C   UNL     1       7.515   3.210  22.251  0.00  0.00    +0.254 A 
ATOM     13  O   UNL     1       7.194   4.328  21.860  0.00  0.00    -0.268 OA
ATOM     14  C   UNL     1       6.732   2.511  23.278  0.00  0.00    +0.088 A 
ATOM     15  C   UNL     1       7.057   1.254  23.593  0.00  0.00    +0.098 A 
ENDBRANCH   5   7
BRANCH   2  16
ATOM     16  O   UNL     1       9.868   0.518  25.562  0.00  0.00    -0.389 OA
ATOM     17  H   UNL     1      10.763   0.652  25.919  0.00  0.00    +0.210 HD
ENDBRANCH   2  16
ENDBRANCH   1   3
BRANCH   1  18
ATOM     18  O   UNL     1       7.803  -3.632  25.220  0.00  0.00    -0.284 OA
BRANCH  18  19
ATOM     19  P   UNL     1       8.757  -4.864  24.833  0.00  0.00    +0.483 P 
ATOM     20  O   UNL     1      10.206  -4.507  24.886  0.00  0.00    -0.227 OA
BRANCH  19  21
ATOM     21  O   UNL     1       8.363  -5.922  25.966  0.00  0.00    -0.302 OA
ATOM     22  H   UNL     1       8.124  -5.428  26.766  0.00  0.00    +0.222 HD
ENDBRANCH  19  21
BRANCH  19  23
ATOM     23  O   UNL     1       8.228  -5.382  23.433  0.00  0.00    -0.186 OA
BRANCH  23  24
ATOM     24  P   UNL     1       6.607  -5.476  22.835  0.00  0.00    +0.492 P 
ATOM     25  O   UNL     1       7.116  -5.766  21.420  0.00  0.00    -0.226 OA
BRANCH  24  26
ATOM     26  O   UNL     1       6.511  -3.840  22.839  0.00  0.00    -0.302 OA
ATOM     27  H   UNL     1       6.749  -3.526  23.729  0.00  0.00    +0.222 HD
ENDBRANCH  24  26
BRANCH  24  28
ATOM     28  O   UNL     1       4.986  -5.569  22.237  0.00  0.00    -0.186 OA
BRANCH  28  29
ATOM     29  P   UNL     1       3.821  -5.803  23.278  0.00  0.00    +0.481 P 
ATOM     30  O   UNL     1       2.452  -5.385  22.884  0.00  0.00    -0.227 OA
BRANCH  29  31
ATOM     31  O   UNL     1       4.413  -5.113  24.591  0.00  0.00    -0.302 OA
ATOM     32  H   UNL     1       5.302  -4.743  24.410  0.00  0.00    +0.222 HD
ENDBRANCH  29  31
BRANCH  29  33
ATOM     33  O   UNL     1       3.981  -7.350  23.632  0.00  0.00    -0.302 OA
ATOM     34  H   UNL     1       3.203  -7.862  23.342  0.00  0.00    +0.222 HD
ENDBRANCH  29  33
ENDBRANCH  28  29
ENDBRANCH  24  28
ENDBRANCH  23  24
ENDBRANCH  19  23
ENDBRANCH  18  19
ENDBRANCH   1  18
TORSDOF 13
ENDMDL
MODEL 2
REMARK VINA RESULT:      -6.7      2.305      3.370
REMARK  Name = 
REMARK  13 active torsions:
REMARK  status: ('A' for Active; 'I' for Inactive)
REMARK    1  A    between atoms: O_1  and  C_2
REMARK    2  A    between atoms: C_5  and  N_24
REMARK    3  A    between atoms: C_8  and  C_10
REMARK    4  A    between atoms: C_10  and  O_11
REMARK    5  A    between atoms: O_11  and  P_12
REMARK    6  A    between atoms: P_12  and  O_13
REMARK    7  A    between atoms: P_12  and  O_15
REMARK    8  A    between atoms: O_15  and  P_16
REMARK    9  A    between atoms: P_16  and  O_17
REMARK   10  A    between atoms: P_16  and  O_19
REMARK   11  A    between atoms: O_19  and  P_20
REMARK   12  A    between atoms: P_20  and  O_21
REMARK   13  A    between atoms: P_20  and  O_22
REMARK                            x       y       z     vdW  Elec       q    Type
REMARK                         _______ _______ _______ _____ _____    ______ ____
ROOT
ATOM      1  C   UNL     1       9.765  -1.627  22.117  0.00  0.00    +0.206 C 
ENDROOT
BRANCH   1   3
ATOM      2  C   UNL     1       8.483   0.545  21.899  0.00  0.00    +0.150 C 
ATOM      3  C   UNL     1       9.828  -0.108  22.229  0.00  0.00    +0.175 C 
ATOM      4  O   UNL     1      10.179   0.273  23.576  0.00  0.00    -0.348 OA
ATOM      5  C   UNL     1       9.189   1.203  24.064  0.00  0.00    +0.226 C 
ATOM      6  C   UNL     1       7.932   0.881  23.263  0.00  0.00    +0.088 C 
BRANCH   5   7
ATOM      7  N   UNL     1       9.662   2.591  23.930  0.00  0.00    -0.274 N 
ATOM      8  C   UNL     1       8.893   3.578  24.544  0.00  0.00    +0.331 A 
ATOM      9  O   UNL     1       7.860   3.356  25.170  0.00  0.00    -0.246 OA
ATOM     10  N   UNL     1       9.364   4.863  24.424  0.00  0.00    -0.275 N 
ATOM     11  H   UNL     1       8.823   5.580  24.885  0.00  0.00    +0.173 HD
ATOM     12  C   UNL     1      10.586   5.220  23.947  0.00  0.00    +0.254 A 
ATOM     13  O   UNL     1      11.030   6.362  24.028  0.00  0.00    -0.268 OA
ATOM     14  C   UNL     1      11.375   4.139  23.344  0.00  0.00    +0.088 A 
ATOM     15  C   UNL     1      10.893   2.894  23.375  0.00  0.00    +0.098 A 
ENDBRANCH   5   7
BRANCH   2  16
ATOM     16  O   UNL     1       8.657   1.736  21.131  0.00  0.00    -0.389 OA
ATOM     17  H   UNL     1       8.996   2.439  21.711  0.00  0.00    +0.210 HD
ENDBRANCH   2  16
ENDBRANCH   1   3
BRANCH   1  18
ATOM     18  O   UNL     1      10.229  -2.181  23.333  0.00  0.00    -0.284 OA
BRANCH  18  19
ATOM     19  P   UNL     1       9.235  -3.042  24.255  0.00  0.00    +0.483 P 
ATOM     20  O   UNL     1       9.836  -4.335  24.695  0.00  0.00    -0.227 OA
BRANCH  19  21
ATOM     21  O   UNL     1       9.014  -2.041  25.482  0.00  0.00    -0.302 OA
ATOM     22  H   UNL     1       9.689  -1.345  25.426  0.00  0.00    +0.222 HD
ENDBRANCH  19  21
BRANCH  19  23
ATOM     23  O   UNL     1       7.888  -3.156  23.429  0.00  0.00    -0.186 OA
BRANCH  23  24
ATOM     24  P   UNL     1       6.413  -3.965  23.833  0.00  0.00    +0.492 P 
ATOM     25  O   UNL     1       6.517  -3.487  25.284  0.00  0.00    -0.226 OA
BRANCH  24  26
ATOM     26  O   UNL     1       7.211  -5.396  23.881  0.00  0.00    -0.302 OA
ATOM     27  H   UNL     1       6.676  -6.022  24.398  0.00  0.00    +0.222 HD
ENDBRANCH  24  26
BRANCH  24  28
ATOM     28  O   UNL     1       4.939  -4.774  24.236  0.00  0.00    -0.186 OA
BRANCH  28  29
ATOM     29  P   UNL     1       4.269  -5.692  23.139  0.00  0.00    +0.481 P 
ATOM     30  O   UNL     1       2.819  -5.506  22.878  0.00  0.00    -0.227 OA
BRANCH  29  31
ATOM     31  O   UNL     1       4.713  -7.149  23.617  0.00  0.00    -0.302 OA
ATOM     32  H   UNL     1       4.176  -7.834  23.167  0.00  0.00    +0.222 HD
ENDBRANCH  29  31
BRANCH  29  33
ATOM     33  O   UNL     1       5.218  -5.468  21.877  0.00  0.00    -0.302 OA
ATOM     34  H   UNL     1       5.919  -4.817  22.071  0.00  0.00    +0.222 HD
ENDBRANCH  29  33
ENDBRANCH  28  29
ENDBRANCH  24  28
ENDBRANCH  23  24
ENDBRANCH  19  23
ENDBRANCH  18  19
ENDBRANCH   1  18
TORSDOF 13
ENDMDL
MODEL 3
REMARK VINA RESULT:      -6.7      2.324      3.470
REMARK  Name = 
REMARK  13 active torsions:
REMARK  status: ('A' for Active; 'I' for Inactive)
REMARK    1  A    between atoms: O_1  and  C_2
REMARK    2  A    between atoms: C_5  and  N_24
REMARK    3  A    between atoms: C_8  and  C_10
REMARK    4  A    between atoms: C_10  and  O_11
REMARK    5  A    between atoms: O_11  and  P_12
REMARK    6  A    between atoms: P_12  and  O_13
REMARK    7  A    between atoms: P_12  and  O_15
REMARK    8  A    between atoms: O_15  and  P_16
REMARK    9  A    between atoms: P_16  and  O_17
REMARK   10  A    between atoms: P_16  and  O_19
REMARK   11  A    between atoms: O_19  and  P_20
REMARK   12  A    between atoms: P_20  and  O_21
REMARK   13  A    between atoms: P_20  and  O_22
REMARK                            x       y       z     vdW  Elec       q    Type
REMARK                         _______ _______ _______ _____ _____    ______ ____
ROOT
ATOM      1  C   UNL     1       9.413  -2.418  23.651  0.00  0.00    +0.206 C 
ENDROOT
BRANCH   1   3
ATOM      2  C   UNL     1       9.750  -0.270  24.951  0.00  0.00    +0.150 C 
ATOM      3  C   UNL     1       9.024  -0.950  23.785  0.00  0.00    +0.175 C 
ATOM      4  O   UNL     1       9.371  -0.236  22.580  0.00  0.00    -0.348 OA
ATOM      5  C   UNL     1      10.182   0.904  22.937  0.00  0.00    +0.226 C 
ATOM      6  C   UNL     1      10.839   0.509  24.257  0.00  0.00    +0.088 C 
BRANCH   5   7
ATOM      7  N   UNL     1       9.367   2.128  23.001  0.00  0.00    -0.274 N 
ATOM      8  C   UNL     1      10.038   3.314  23.296  0.00  0.00    +0.331 A 
ATOM      9  O   UNL     1      11.245   3.388  23.509  0.00  0.00    -0.246 OA
ATOM     10  N   UNL     1       9.262   4.447  23.329  0.00  0.00    -0.275 N 
ATOM     11  H   UNL     1       9.745   5.312  23.521  0.00  0.00    +0.173 HD
ATOM     12  C   UNL     1       7.971   4.538  22.912  0.00  0.00    +0.254 A 
ATOM     13  O   UNL     1       7.379   5.607  22.792  0.00  0.00    -0.268 OA
ATOM     14  C   UNL     1       7.318   3.267  22.577  0.00  0.00    +0.088 A 
ATOM     15  C   UNL     1       8.036   2.142  22.621  0.00  0.00    +0.098 A 
ENDBRANCH   5   7
BRANCH   2  16
ATOM     16  O   UNL     1       8.882   0.616  25.657  0.00  0.00    -0.389 OA
ATOM     17  H   UNL     1       8.583   1.316  25.051  0.00  0.00    +0.210 HD
ENDBRANCH   2  16
ENDBRANCH   1   3
BRANCH   1  18
ATOM     18  O   UNL     1       8.375  -3.091  22.968  0.00  0.00    -0.284 OA
BRANCH  18  19
ATOM     19  P   UNL     1       7.460  -4.158  23.746  0.00  0.00    +0.483 P 
ATOM     20  O   UNL     1       6.037  -4.132  23.294  0.00  0.00    -0.227 OA
BRANCH  19  21
ATOM     21  O   UNL     1       8.185  -5.527  23.349  0.00  0.00    -0.302 OA
ATOM     22  H   UNL     1       8.895  -5.318  22.720  0.00  0.00    +0.222 HD
ENDBRANCH  19  21
BRANCH  19  23
ATOM     23  O   UNL     1       7.698  -3.872  25.286  0.00  0.00    -0.186 OA
BRANCH  23  24
ATOM     24  P   UNL     1       7.509  -4.926  26.643  0.00  0.00    +0.492 P 
ATOM     25  O   UNL     1       8.704  -5.769  26.190  0.00  0.00    -0.226 OA
BRANCH  24  26
ATOM     26  O   UNL     1       6.256  -5.669  25.892  0.00  0.00    -0.302 OA
ATOM     27  H   UNL     1       5.969  -6.414  26.449  0.00  0.00    +0.222 HD
ENDBRANCH  24  26
BRANCH  24  28
ATOM     28  O   UNL     1       7.320  -5.981  28.002  0.00  0.00    -0.186 OA
BRANCH  28  29
ATOM     29  P   UNL     1       5.895  -6.076  28.677  0.00  0.00    +0.481 P 
ATOM     30  O   UNL     1       4.907  -5.016  28.353  0.00  0.00    -0.227 OA
BRANCH  29  31
ATOM     31  O   UNL     1       6.275  -6.229  30.220  0.00  0.00    -0.302 OA
ATOM     32  H   UNL     1       5.645  -5.727  30.778  0.00  0.00    +0.222 HD
ENDBRANCH  29  31
BRANCH  29  33
ATOM     33  O   UNL     1       5.439  -7.560  28.313  0.00  0.00    -0.302 OA
ATOM     34  H   UNL     1       5.839  -8.213  28.919  0.00  0.00    +0.222 HD
ENDBRANCH  29  33
ENDBRANCH  28  29
ENDBRANCH  24  28
ENDBRANCH  23  24
ENDBRANCH  19  23
ENDBRANCH  18  19
ENDBRANCH   1  18
TORSDOF 13
ENDMDL
MODEL 4
REMARK VINA RESULT:      -6.7      2.632      3.554
REMARK  Name = 
REMARK  13 active torsions:
REMARK  status: ('A' for Active; 'I' for Inactive)
REMARK    1  A    between atoms: O_1  and  C_2
REMARK    2  A    between atoms: C_5  and  N_24
REMARK    3  A    between atoms: C_8  and  C_10
REMARK    4  A    between atoms: C_10  and  O_11
REMARK    5  A    between atoms: O_11  and  P_12
REMARK    6  A    between atoms: P_12  and  O_13
REMARK    7  A    between atoms: P_12  and  O_15
REMARK    8  A    between atoms: O_15  and  P_16
REMARK    9  A    between atoms: P_16  and  O_17
REMARK   10  A    between atoms: P_16  and  O_19
REMARK   11  A    between atoms: O_19  and  P_20
REMARK   12  A    between atoms: P_20  and  O_21
REMARK   13  A    between atoms: P_20  and  O_22
REMARK                            x       y       z     vdW  Elec       q    Type
REMARK                         _______ _______ _______ _____ _____    ______ ____
ROOT
ATOM      1  C   UNL     1       9.562  -2.635  24.141  0.00  0.00    +0.206 C 
ENDROOT
BRANCH   1   3
ATOM      2  C   UNL     1       9.644  -0.328  25.183  0.00  0.00    +0.150 C 
ATOM      3  C   UNL     1       9.061  -1.197  24.065  0.00  0.00    +0.175 C 
ATOM      4  O   UNL     1       9.449  -0.606  22.807  0.00  0.00    -0.348 OA
ATOM      5  C   UNL     1      10.148   0.628  23.074  0.00  0.00    +0.226 C 
ATOM      6  C   UNL     1      10.726   0.447  24.474  0.00  0.00    +0.088 C 
BRANCH   5   7
ATOM      7  N   UNL     1       9.246   1.783  22.929  0.00  0.00    -0.274 N 
ATOM      8  C   UNL     1       9.793   3.041  23.176  0.00  0.00    +0.331 A 
ATOM      9  O   UNL     1      10.960   3.232  23.510  0.00  0.00    -0.246 OA
ATOM     10  N   UNL     1       8.940   4.106  23.015  0.00  0.00    -0.275 N 
ATOM     11  H   UNL     1       9.335   5.021  23.171  0.00  0.00    +0.173 HD
ATOM     12  C   UNL     1       7.703   4.054  22.454  0.00  0.00    +0.254 A 
ATOM     13  O   UNL     1       7.054   5.056  22.166  0.00  0.00    -0.268 OA
ATOM     14  C   UNL     1       7.184   2.709  22.177  0.00  0.00    +0.088 A 
ATOM     15  C   UNL     1       7.970   1.654  22.408  0.00  0.00    +0.098 A 
ENDBRANCH   5   7
BRANCH   2  16
ATOM     16  O   UNL     1       8.665   0.564  25.713  0.00  0.00    -0.389 OA
ATOM     17  H   UNL     1       7.917   0.045  26.057  0.00  0.00    +0.210 HD
ENDBRANCH   2  16
ENDBRANCH   1   3
BRANCH   1  18
ATOM     18  O   UNL     1       8.448  -3.481  24.344  0.00  0.00    -0.284 OA
BRANCH  18  19
ATOM     19  P   UNL     1       8.625  -4.867  25.138  0.00  0.00    +0.483 P 
ATOM     20  O   UNL     1       9.407  -5.876  24.363  0.00  0.00    -0.227 OA
BRANCH  19  21
ATOM     21  O   UNL     1       9.414  -4.374  26.438  0.00  0.00    -0.302 OA
ATOM     22  H   UNL     1       8.873  -3.699  26.879  0.00  0.00    +0.222 HD
ENDBRANCH  19  21
BRANCH  19  23
ATOM     23  O   UNL     1       7.161  -5.303  25.554  0.00  0.00    -0.186 OA
BRANCH  23  24
ATOM     24  P   UNL     1       6.376  -5.199  27.092  0.00  0.00    +0.492 P 
ATOM     25  O   UNL     1       6.756  -3.722  27.217  0.00  0.00    -0.226 OA
BRANCH  24  26
ATOM     26  O   UNL     1       7.654  -5.947  27.795  0.00  0.00    -0.302 OA
ATOM     27  H   UNL     1       7.338  -6.777  28.191  0.00  0.00    +0.222 HD
ENDBRANCH  24  26
BRANCH  24  28
ATOM     28  O   UNL     1       5.591  -5.096  28.630  0.00  0.00    -0.186 OA
BRANCH  28  29
ATOM     29  P   UNL     1       5.191  -6.442  29.354  0.00  0.00    +0.481 P 
ATOM     30  O   UNL     1       3.874  -6.491  30.038  0.00  0.00    -0.227 OA
BRANCH  29  31
ATOM     31  O   UNL     1       6.468  -6.710  30.274  0.00  0.00    -0.302 OA
ATOM     32  H   UNL     1       7.244  -6.217  29.933  0.00  0.00    +0.222 HD
ENDBRANCH  29  31
BRANCH  29  33
ATOM     33  O   UNL     1       5.396  -7.526  28.202  0.00  0.00    -0.302 OA
ATOM     34  H   UNL     1       5.562  -7.100  27.339  0.00  0.00    +0.222 HD
ENDBRANCH  29  33
ENDBRANCH  28  29
ENDBRANCH  24  28
ENDBRANCH  23  24
ENDBRANCH  19  23
ENDBRANCH  18  19
ENDBRANCH   1  18
TORSDOF 13
ENDMDL
MODEL 5
REMARK VINA RESULT:      -6.6      4.231      8.488
REMARK  Name = 
REMARK  13 active torsions:
REMARK  status: ('A' for Active; 'I' for Inactive)
REMARK    1  A    between atoms: O_1  and  C_2
REMARK    2  A    between atoms: C_5  and  N_24
REMARK    3  A    between atoms: C_8  and  C_10
REMARK    4  A    between atoms: C_10  and  O_11
REMARK    5  A    between atoms: O_11  and  P_12
REMARK    6  A    between atoms: P_12  and  O_13
REMARK    7  A    between atoms: P_12  and  O_15
REMARK    8  A    between atoms: O_15  and  P_16
REMARK    9  A    between atoms: P_16  and  O_17
REMARK   10  A    between atoms: P_16  and  O_19
REMARK   11  A    between atoms: O_19  and  P_20
REMARK   12  A    between atoms: P_20  and  O_21
REMARK   13  A    between atoms: P_20  and  O_22
REMARK                            x       y       z     vdW  Elec       q    Type
REMARK                         _______ _______ _______ _____ _____    ______ ____
ROOT
ATOM      1  C   UNL     1       9.941  -2.000  24.038  0.00  0.00    +0.206 C 
ENDROOT
BRANCH   1   3
ATOM      2  C   UNL     1       9.629  -4.308  25.032  0.00  0.00    +0.150 C 
ATOM      3  C   UNL     1       9.044  -3.230  24.115  0.00  0.00    +0.175 C 
ATOM      4  O   UNL     1       7.750  -2.865  24.641  0.00  0.00    -0.348 OA
ATOM      5  C   UNL     1       7.453  -3.720  25.765  0.00  0.00    +0.226 C 
ATOM      6  C   UNL     1       8.818  -4.148  26.294  0.00  0.00    +0.088 C 
BRANCH   5   7
ATOM      7  N   UNL     1       6.576  -4.832  25.361  0.00  0.00    -0.274 N 
ATOM      8  C   UNL     1       6.101  -5.658  26.378  0.00  0.00    +0.331 A 
ATOM      9  O   UNL     1       6.376  -5.515  27.567  0.00  0.00    -0.246 OA
ATOM     10  N   UNL     1       5.268  -6.676  25.981  0.00  0.00    -0.275 N 
ATOM     11  H   UNL     1       4.903  -7.265  26.715  0.00  0.00    +0.173 HD
ATOM     12  C   UNL     1       4.722  -6.819  24.744  0.00  0.00    +0.254 A 
ATOM     13  O   UNL     1       3.844  -7.638  24.489  0.00  0.00    -0.268 OA
ATOM     14  C   UNL     1       5.227  -5.902  23.715  0.00  0.00    +0.088 A 
ATOM     15  C   UNL     1       6.103  -4.957  24.066  0.00  0.00    +0.098 A 
ENDBRANCH   5   7
BRANCH   2  16
ATOM     16  O   UNL     1       9.440  -5.614  24.487  0.00  0.00    -0.389 OA
ATOM     17  H   UNL     1       8.495  -5.743  24.295  0.00  0.00    +0.210 HD
ENDBRANCH   2  16
ENDBRANCH   1   3
BRANCH   1  18
ATOM     18  O   UNL     1       9.857  -1.472  22.730  0.00  0.00    -0.284 OA
BRANCH  18  19
ATOM     19  P   UNL     1       9.194  -0.029  22.486  0.00  0.00    +0.483 P 
ATOM     20  O   UNL     1       9.068   0.308  21.038  0.00  0.00    -0.227 OA
BRANCH  19  21
ATOM     21  O   UNL     1       7.765  -0.231  23.176  0.00  0.00    -0.302 OA
ATOM     22  H   UNL     1       7.320  -0.970  22.730  0.00  0.00    +0.222 HD
ENDBRANCH  19  21
BRANCH  19  23
ATOM     23  O   UNL     1      10.052   0.980  23.355  0.00  0.00    -0.186 OA
BRANCH  23  24
ATOM     24  P   UNL     1       9.686   2.598  23.844  0.00  0.00    +0.492 P 
ATOM     25  O   UNL     1       8.399   2.131  24.527  0.00  0.00    -0.226 OA
BRANCH  24  26
ATOM     26  O   UNL     1       9.169   2.940  22.326  0.00  0.00    -0.302 OA
ATOM     27  H   UNL     1       8.341   2.452  22.173  0.00  0.00    +0.222 HD
ENDBRANCH  24  26
BRANCH  24  28
ATOM     28  O   UNL     1       9.321   4.218  24.332  0.00  0.00    -0.186 OA
BRANCH  28  29
ATOM     29  P   UNL     1      10.243   5.382  23.796  0.00  0.00    +0.481 P 
ATOM     30  O   UNL     1      10.757   6.364  24.784  0.00  0.00    -0.227 OA
BRANCH  29  31
ATOM     31  O   UNL     1       9.357   5.981  22.610  0.00  0.00    -0.302 OA
ATOM     32  H   UNL     1       9.890   6.594  22.062  0.00  0.00    +0.222 HD
ENDBRANCH  29  31
BRANCH  29  33
ATOM     33  O   UNL     1      11.364   4.589  22.985  0.00  0.00    -0.302 OA
ATOM     34  H   UNL     1      11.043   4.325  22.101  0.00  0.00    +0.222 HD
ENDBRANCH  29  33
ENDBRANCH  28  29
ENDBRANCH  24  28
ENDBRANCH  23  24
ENDBRANCH  19  23
ENDBRANCH  18  19
ENDBRANCH   1  18
TORSDOF 13
ENDMDL
MODEL 6
REMARK VINA RESULT:      -6.6      2.286      3.821
REMARK  Name = 
REMARK  13 active torsions:
REMARK  status: ('A' for Active; 'I' for Inactive)
REMARK    1  A    between atoms: O_1  and  C_2
REMARK    2  A    between atoms: C_5  and  N_24
REMARK    3  A    between atoms: C_8  and  C_10
REMARK    4  A    between atoms: C_10  and  O_11
REMARK    5  A    between atoms: O_11  and  P_12
REMARK    6  A    between atoms: P_12  and  O_13
REMARK    7  A    between atoms: P_12  and  O_15
REMARK    8  A    between atoms: O_15  and  P_16
REMARK    9  A    between atoms: P_16  and  O_17
REMARK   10  A    between atoms: P_16  and  O_19
REMARK   11  A    between atoms: O_19  and  P_20
REMARK   12  A    between atoms: P_20  and  O_21
REMARK   13  A    between atoms: P_20  and  O_22
REMARK                            x       y       z     vdW  Elec       q    Type
REMARK                         _______ _______ _______ _____ _____    ______ ____
ROOT
ATOM      1  C   UNL     1       7.455  -3.785  22.321  0.00  0.00    +0.206 C 
ENDROOT
BRANCH   1   3
ATOM      2  C   UNL     1       7.870  -2.218  24.268  0.00  0.00    +0.150 C 
ATOM      3  C   UNL     1       7.634  -2.335  22.759  0.00  0.00    +0.175 C 
ATOM      4  O   UNL     1       8.776  -1.757  22.093  0.00  0.00    -0.348 OA
ATOM      5  C   UNL     1       9.656  -1.197  23.091  0.00  0.00    +0.226 C 
ATOM      6  C   UNL     1       9.359  -1.997  24.356  0.00  0.00    +0.088 C 
BRANCH   5   7
ATOM      7  N   UNL     1       9.447   0.254  23.220  0.00  0.00    -0.274 N 
ATOM      8  C   UNL     1      10.202   0.913  24.189  0.00  0.00    +0.331 A 
ATOM      9  O   UNL     1      11.008   0.357  24.930  0.00  0.00    -0.246 OA
ATOM     10  N   UNL     1      10.006   2.270  24.278  0.00  0.00    -0.275 N 
ATOM     11  H   UNL     1      10.566   2.756  24.963  0.00  0.00    +0.173 HD
ATOM     12  C   UNL     1       9.312   3.032  23.392  0.00  0.00    +0.254 A 
ATOM     13  O   UNL     1       9.318   4.260  23.414  0.00  0.00    -0.268 OA
ATOM     14  C   UNL     1       8.563   2.295  22.367  0.00  0.00    +0.088 A 
ATOM     15  C   UNL     1       8.674   0.965  22.318  0.00  0.00    +0.098 A 
ENDBRANCH   5   7
BRANCH   2  16
ATOM     16  O   UNL     1       7.171  -1.102  24.818  0.00  0.00    -0.389 OA
ATOM     17  H   UNL     1       6.234  -1.160  24.564  0.00  0.00    +0.210 HD
ENDBRANCH   2  16
ENDBRANCH   1   3
BRANCH   1  18
ATOM     18  O   UNL     1       6.069  -4.060  22.257  0.00  0.00    -0.284 OA
BRANCH  18  19
ATOM     19  P   UNL     1       5.521  -5.518  22.646  0.00  0.00    +0.483 P 
ATOM     20  O   UNL     1       4.030  -5.583  22.670  0.00  0.00    -0.227 OA
BRANCH  19  21
ATOM     21  O   UNL     1       6.136  -6.401  21.463  0.00  0.00    -0.302 OA
ATOM     22  H   UNL     1       6.269  -7.301  21.800  0.00  0.00    +0.222 HD
ENDBRANCH  19  21
BRANCH  19  23
ATOM     23  O   UNL     1       6.247  -5.892  24.003  0.00  0.00    -0.186 OA
BRANCH  23  24
ATOM     24  P   UNL     1       5.776  -5.554  25.633  0.00  0.00    +0.492 P 
ATOM     25  O   UNL     1       4.768  -6.705  25.610  0.00  0.00    -0.226 OA
BRANCH  24  26
ATOM     26  O   UNL     1       4.872  -4.290  25.110  0.00  0.00    -0.302 OA
ATOM     27  H   UNL     1       5.322  -3.468  25.372  0.00  0.00    +0.222 HD
ENDBRANCH  24  26
BRANCH  24  28
ATOM     28  O   UNL     1       5.306  -5.215  27.263  0.00  0.00    -0.186 OA
BRANCH  28  29
ATOM     29  P   UNL     1       6.065  -5.964  28.428  0.00  0.00    +0.481 P 
ATOM     30  O   UNL     1       5.995  -5.372  29.788  0.00  0.00    -0.227 OA
BRANCH  29  31
ATOM     31  O   UNL     1       7.528  -6.129  27.811  0.00  0.00    -0.302 OA
ATOM     32  H   UNL     1       8.007  -5.275  27.836  0.00  0.00    +0.222 HD
ENDBRANCH  29  31
BRANCH  29  33
ATOM     33  O   UNL     1       5.500  -7.450  28.307  0.00  0.00    -0.302 OA
ATOM     34  H   UNL     1       4.638  -7.540  28.757  0.00  0.00    +0.222 HD
ENDBRANCH  29  33
ENDBRANCH  28  29
ENDBRANCH  24  28
ENDBRANCH  23  24
ENDBRANCH  19  23
ENDBRANCH  18  19
ENDBRANCH   1  18
TORSDOF 13
ENDMDL
MODEL 7
REMARK VINA RESULT:      -6.6      4.479      8.170
REMARK  Name = 
REMARK  13 active torsions:
REMARK  status: ('A' for Active; 'I' for Inactive)
REMARK    1  A    between atoms: O_1  and  C_2
REMARK    2  A    between atoms: C_5  and  N_24
REMARK    3  A    between atoms: C_8  and  C_10
REMARK    4  A    between atoms: C_10  and  O_11
REMARK    5  A    between atoms: O_11  and  P_12
REMARK    6  A    between atoms: P_12  and  O_13
REMARK    7  A    between atoms: P_12  and  O_15
REMARK    8  A    between atoms: O_15  and  P_16
REMARK    9  A    between atoms: P_16  and  O_17
REMARK   10  A    between atoms: P_16  and  O_19
REMARK   11  A    between atoms: O_19  and  P_20
REMARK   12  A    between atoms: P_20  and  O_21
REMARK   13  A    between atoms: P_20  and  O_22
REMARK                            x       y       z     vdW  Elec       q    Type
REMARK                         _______ _______ _______ _____ _____    ______ ____
ROOT
ATOM      1  C   UNL     1      10.482  -0.302  23.306  0.00  0.00    +0.206 C 
ENDROOT
BRANCH   1   3
ATOM      2  C   UNL     1       8.187  -0.904  24.191  0.00  0.00    +0.150 C 
ATOM      3  C   UNL     1       9.679  -1.250  24.189  0.00  0.00    +0.175 C 
ATOM      4  O   UNL     1       9.812  -2.604  23.709  0.00  0.00    -0.348 OA
ATOM      5  C   UNL     1       8.492  -3.153  23.510  0.00  0.00    +0.226 C 
ATOM      6  C   UNL     1       7.604  -1.938  23.261  0.00  0.00    +0.088 C 
BRANCH   5   7
ATOM      7  N   UNL     1       8.090  -3.981  24.660  0.00  0.00    -0.274 N 
ATOM      8  C   UNL     1       9.073  -4.796  25.220  0.00  0.00    +0.331 A 
ATOM      9  O   UNL     1      10.228  -4.865  24.808  0.00  0.00    -0.246 OA
ATOM     10  N   UNL     1       8.682  -5.544  26.304  0.00  0.00    -0.275 N 
ATOM     11  H   UNL     1       9.394  -6.120  26.727  0.00  0.00    +0.173 HD
ATOM     12  C   UNL     1       7.512  -5.408  26.982  0.00  0.00    +0.254 A 
ATOM     13  O   UNL     1       7.286  -5.971  28.049  0.00  0.00    -0.268 OA
ATOM     14  C   UNL     1       6.523  -4.510  26.373  0.00  0.00    +0.088 A 
ATOM     15  C   UNL     1       6.856  -3.838  25.268  0.00  0.00    +0.098 A 
ENDBRANCH   5   7
BRANCH   2  16
ATOM     16  O   UNL     1       7.623  -1.038  25.495  0.00  0.00    -0.389 OA
ATOM     17  H   UNL     1       7.833  -1.923  25.840  0.00  0.00    +0.210 HD
ENDBRANCH   2  16
ENDBRANCH   1   3
BRANCH   1  18
ATOM     18  O   UNL     1      10.644   0.920  23.998  0.00  0.00    -0.284 OA
BRANCH  18  19
ATOM     19  P   UNL     1      10.220   2.302  23.299  0.00  0.00    +0.483 P 
ATOM     20  O   UNL     1      11.208   3.394  23.540  0.00  0.00    -0.227 OA
BRANCH  19  21
ATOM     21  O   UNL     1      10.179   1.866  21.761  0.00  0.00    -0.302 OA
ATOM     22  H   UNL     1       9.630   2.507  21.283  0.00  0.00    +0.222 HD
ENDBRANCH  19  21
BRANCH  19  23
ATOM     23  O   UNL     1       8.743   2.589  23.797  0.00  0.00    -0.186 OA
BRANCH  23  24
ATOM     24  P   UNL     1       7.500   3.543  23.065  0.00  0.00    +0.492 P 
ATOM     25  O   UNL     1       7.430   2.586  21.872  0.00  0.00    -0.226 OA
BRANCH  24  26
ATOM     26  O   UNL     1       8.624   4.629  22.572  0.00  0.00    -0.302 OA
ATOM     27  H   UNL     1       9.244   4.174  21.977  0.00  0.00    +0.222 HD
ENDBRANCH  24  26
BRANCH  24  28
ATOM     28  O   UNL     1       6.257   4.498  22.333  0.00  0.00    -0.186 OA
BRANCH  28  29
ATOM     29  P   UNL     1       6.319   6.066  22.514  0.00  0.00    +0.481 P 
ATOM     30  O   UNL     1       6.773   6.590  23.827  0.00  0.00    -0.227 OA
BRANCH  29  31
ATOM     31  O   UNL     1       4.855   6.506  22.053  0.00  0.00    -0.302 OA
ATOM     32  H   UNL     1       4.626   7.379  22.435  0.00  0.00    +0.222 HD
ENDBRANCH  29  31
BRANCH  29  33
ATOM     33  O   UNL     1       7.197   6.523  21.263  0.00  0.00    -0.302 OA
ATOM     34  H   UNL     1       7.828   7.225  21.511  0.00  0.00    +0.222 HD
ENDBRANCH  29  33
ENDBRANCH  28  29
ENDBRANCH  24  28
ENDBRANCH  23  24
ENDBRANCH  19  23
ENDBRANCH  18  19
ENDBRANCH   1  18
TORSDOF 13
ENDMDL
MODEL 8
REMARK VINA RESULT:      -6.5      2.583      4.008
REMARK  Name = 
REMARK  13 active torsions:
REMARK  status: ('A' for Active; 'I' for Inactive)
REMARK    1  A    between atoms: O_1  and  C_2
REMARK    2  A    between atoms: C_5  and  N_24
REMARK    3  A    between atoms: C_8  and  C_10
REMARK    4  A    between atoms: C_10  and  O_11
REMARK    5  A    between atoms: O_11  and  P_12
REMARK    6  A    between atoms: P_12  and  O_13
REMARK    7  A    between atoms: P_12  and  O_15
REMARK    8  A    between atoms: O_15  and  P_16
REMARK    9  A    between atoms: P_16  and  O_17
REMARK   10  A    between atoms: P_16  and  O_19
REMARK   11  A    between atoms: O_19  and  P_20
REMARK   12  A    between atoms: P_20  and  O_21
REMARK   13  A    between atoms: P_20  and  O_22
REMARK                            x       y       z     vdW  Elec       q    Type
REMARK                         _______ _______ _______ _____ _____    ______ ____
ROOT
ATOM      1  C   UNL     1       9.802  -1.844  22.679  0.00  0.00    +0.206 C 
ENDROOT
BRANCH   1   3
ATOM      2  C   UNL     1       8.678   0.328  22.022  0.00  0.00    +0.150 C 
ATOM      3  C   UNL     1       9.926  -0.325  22.624  0.00  0.00    +0.175 C 
ATOM      4  O   UNL     1      10.096   0.204  23.955  0.00  0.00    -0.348 OA
ATOM      5  C   UNL     1       9.095   1.220  24.178  0.00  0.00    +0.226 C 
ATOM      6  C   UNL     1       7.952   0.845  23.239  0.00  0.00    +0.088 C 
BRANCH   5   7
ATOM      7  N   UNL     1       9.653   2.564  23.958  0.00  0.00    -0.274 N 
ATOM      8  C   UNL     1       8.891   3.641  24.409  0.00  0.00    +0.331 A 
ATOM      9  O   UNL     1       7.799   3.530  24.960  0.00  0.00    -0.246 OA
ATOM     10  N   UNL     1       9.440   4.885  24.212  0.00  0.00    -0.275 N 
ATOM     11  H   UNL     1       8.903   5.668  24.555  0.00  0.00    +0.173 HD
ATOM     12  C   UNL     1      10.714   5.137  23.813  0.00  0.00    +0.254 A 
ATOM     13  O   UNL     1      11.213   6.259  23.826  0.00  0.00    -0.268 OA
ATOM     14  C   UNL     1      11.490   3.967  23.383  0.00  0.00    +0.088 A 
ATOM     15  C   UNL     1      10.940   2.754  23.487  0.00  0.00    +0.098 A 
ENDBRANCH   5   7
BRANCH   2  16
ATOM     16  O   UNL     1       9.023   1.410  21.157  0.00  0.00    -0.389 OA
ATOM     17  H   UNL     1       9.768   1.900  21.546  0.00  0.00    +0.210 HD
ENDBRANCH   2  16
ENDBRANCH   1   3
BRANCH   1  18
ATOM     18  O   UNL     1       8.572  -2.210  22.086  0.00  0.00    -0.284 OA
BRANCH  18  19
ATOM     19  P   UNL     1       7.490  -3.045  22.930  0.00  0.00    +0.483 P 
ATOM     20  O   UNL     1       6.132  -2.427  22.894  0.00  0.00    -0.227 OA
BRANCH  19  21
ATOM     21  O   UNL     1       7.525  -4.449  22.165  0.00  0.00    -0.302 OA
ATOM     22  H   UNL     1       8.454  -4.704  22.048  0.00  0.00    +0.222 HD
ENDBRANCH  19  21
BRANCH  19  23
ATOM     23  O   UNL     1       8.127  -3.223  24.370  0.00  0.00    -0.186 OA
BRANCH  23  24
ATOM     24  P   UNL     1       7.912  -4.498  25.519  0.00  0.00    +0.492 P 
ATOM     25  O   UNL     1       8.838  -5.416  24.716  0.00  0.00    -0.226 OA
BRANCH  24  26
ATOM     26  O   UNL     1       6.444  -4.835  24.871  0.00  0.00    -0.302 OA
ATOM     27  H   UNL     1       6.031  -3.995  24.607  0.00  0.00    +0.222 HD
ENDBRANCH  24  26
BRANCH  24  28
ATOM     28  O   UNL     1       7.696  -5.773  26.668  0.00  0.00    -0.186 OA
BRANCH  28  29
ATOM     29  P   UNL     1       6.420  -5.729  27.598  0.00  0.00    +0.481 P 
ATOM     30  O   UNL     1       5.819  -4.400  27.880  0.00  0.00    -0.227 OA
BRANCH  29  31
ATOM     31  O   UNL     1       6.913  -6.558  28.870  0.00  0.00    -0.302 OA
ATOM     32  H   UNL     1       7.348  -7.389  28.587  0.00  0.00    +0.222 HD
ENDBRANCH  29  31
BRANCH  29  33
ATOM     33  O   UNL     1       5.444  -6.777  26.895  0.00  0.00    -0.302 OA
ATOM     34  H   UNL     1       5.630  -7.688  27.191  0.00  0.00    +0.222 HD
ENDBRANCH  29  33
ENDBRANCH  28  29
ENDBRANCH  24  28
ENDBRANCH  23  24
ENDBRANCH  19  23
ENDBRANCH  18  19
ENDBRANCH   1  18
TORSDOF 13
ENDMDL
MODEL 9
REMARK VINA RESULT:      -6.5      1.586      2.106
REMARK  Name = 
REMARK  13 active torsions:
REMARK  status: ('A' for Active; 'I' for Inactive)
REMARK    1  A    between atoms: O_1  and  C_2
REMARK    2  A    between atoms: C_5  and  N_24
REMARK    3  A    between atoms: C_8  and  C_10
REMARK    4  A    between atoms: C_10  and  O_11
REMARK    5  A    between atoms: O_11  and  P_12
REMARK    6  A    between atoms: P_12  and  O_13
REMARK    7  A    between atoms: P_12  and  O_15
REMARK    8  A    between atoms: O_15  and  P_16
REMARK    9  A    between atoms: P_16  and  O_17
REMARK   10  A    between atoms: P_16  and  O_19
REMARK   11  A    between atoms: O_19  and  P_20
REMARK   12  A    between atoms: P_20  and  O_21
REMARK   13  A    between atoms: P_20  and  O_22
REMARK                            x       y       z     vdW  Elec       q    Type
REMARK                         _______ _______ _______ _____ _____    ______ ____
ROOT
ATOM      1  C   UNL     1       9.190  -2.770  24.093  0.00  0.00    +0.206 C 
ENDROOT
BRANCH   1   3
ATOM      2  C   UNL     1       9.447  -0.501  25.187  0.00  0.00    +0.150 C 
ATOM      3  C   UNL     1       8.781  -1.302  24.064  0.00  0.00    +0.175 C 
ATOM      4  O   UNL     1       9.173  -0.705  22.811  0.00  0.00    -0.348 OA
ATOM      5  C   UNL     1       9.955   0.476  23.088  0.00  0.00    +0.226 C 
ATOM      6  C   UNL     1      10.557   0.222  24.467  0.00  0.00    +0.088 C 
BRANCH   5   7
ATOM      7  N   UNL     1       9.125   1.689  22.996  0.00  0.00    -0.274 N 
ATOM      8  C   UNL     1       9.767   2.907  23.215  0.00  0.00    +0.331 A 
ATOM      9  O   UNL     1      10.961   3.018  23.484  0.00  0.00    -0.246 OA
ATOM     10  N   UNL     1       8.979   4.026  23.103  0.00  0.00    -0.275 N 
ATOM     11  H   UNL     1       9.442   4.912  23.240  0.00  0.00    +0.173 HD
ATOM     12  C   UNL     1       7.712   4.059  22.612  0.00  0.00    +0.254 A 
ATOM     13  O   UNL     1       7.116   5.103  22.363  0.00  0.00    -0.268 OA
ATOM     14  C   UNL     1       7.091   2.753  22.361  0.00  0.00    +0.088 A 
ATOM     15  C   UNL     1       7.817   1.647  22.547  0.00  0.00    +0.098 A 
ENDBRANCH   5   7
BRANCH   2  16
ATOM     16  O   UNL     1       8.540   0.438  25.765  0.00  0.00    -0.389 OA
ATOM     17  H   UNL     1       7.710  -0.019  25.985  0.00  0.00    +0.210 HD
ENDBRANCH   2  16
ENDBRANCH   1   3
BRANCH   1  18
ATOM     18  O   UNL     1       8.935  -3.277  25.388  0.00  0.00    -0.284 OA
BRANCH  18  19
ATOM     19  P   UNL     1       8.939  -4.862  25.646  0.00  0.00    +0.483 P 
ATOM     20  O   UNL     1       9.304  -5.641  24.426  0.00  0.00    -0.227 OA
BRANCH  19  21
ATOM     21  O   UNL     1      10.056  -4.982  26.784  0.00  0.00    -0.302 OA
ATOM     22  H   UNL     1      10.414  -4.095  26.947  0.00  0.00    +0.222 HD
ENDBRANCH  19  21
BRANCH  19  23
ATOM     23  O   UNL     1       7.522  -5.189  26.273  0.00  0.00    -0.186 OA
BRANCH  23  24
ATOM     24  P   UNL     1       5.956  -5.138  25.540  0.00  0.00    +0.492 P 
ATOM     25  O   UNL     1       5.612  -6.516  26.113  0.00  0.00    -0.226 OA
BRANCH  24  26
ATOM     26  O   UNL     1       6.621  -5.521  24.092  0.00  0.00    -0.302 OA
ATOM     27  H   UNL     1       6.601  -6.489  23.997  0.00  0.00    +0.222 HD
ENDBRANCH  24  26
BRANCH  24  28
ATOM     28  O   UNL     1       4.389  -5.087  24.806  0.00  0.00    -0.186 OA
BRANCH  28  29
ATOM     29  P   UNL     1       4.200  -5.793  23.406  0.00  0.00    +0.481 P 
ATOM     30  O   UNL     1       4.872  -5.184  22.231  0.00  0.00    -0.227 OA
BRANCH  29  31
ATOM     31  O   UNL     1       2.611  -5.919  23.317  0.00  0.00    -0.302 OA
ATOM     32  H   UNL     1       2.320  -6.798  23.636  0.00  0.00    +0.222 HD
ENDBRANCH  29  31
BRANCH  29  33
ATOM     33  O   UNL     1       4.620  -7.299  23.721  0.00  0.00    -0.302 OA
ATOM     34  H   UNL     1       3.985  -7.726  24.327  0.00  0.00    +0.222 HD
ENDBRANCH  29  33
ENDBRANCH  28  29
ENDBRANCH  24  28
ENDBRANCH  23  24
ENDBRANCH  19  23
ENDBRANCH  18  19
ENDBRANCH   1  18
TORSDOF 13
ENDMDL
