MODEL 1
REMARK VINA RESULT:      -5.4      0.000      0.000
REMARK  Name = 
REMARK  3 active torsions:
REMARK  status: ('A' for Active; 'I' for Inactive)
REMARK    1  A    between atoms: C_1  and  S_2
REMARK    2  A    between atoms: S_2  and  C_5
REMARK    3  A    between atoms: C_8  and  C_11
REMARK                            x       y       z     vdW  Elec       q    Type
REMARK                         _______ _______ _______ _____ _____    ______ ____
ROOT
ATOM      1  C   UNL     1       9.322  -2.167  23.943  0.00  0.00    +0.088 A 
ATOM      2  C   UNL     1       9.565  -1.898  22.592  0.00  0.00    +0.028 A 
ATOM      3  C   UNL     1       9.866  -0.592  22.195  0.00  0.00    +0.018 A 
ATOM      4  C   UNL     1       9.930   0.436  23.146  0.00  0.00    +0.065 A 
ATOM      5  C   UNL     1       9.730   0.146  24.501  0.00  0.00    +0.018 A 
ATOM      6  C   UNL     1       9.426  -1.157  24.903  0.00  0.00    +0.028 A 
ENDROOT
BRANCH   4   7
ATOM      7  C   UNL     1      10.201   1.833  22.706  0.00  0.00    +0.308 C 
ATOM      8  N   UNL     1       9.927   2.260  21.514  0.00  0.00    -0.099 NA
ATOM      9  H   UNL     1       9.554   1.515  20.921  0.00  0.00    +0.363 HD
ATOM     10  N   UNL     1      10.768   2.733  23.556  0.00  0.00    -0.247 N 
ATOM     11  H   UNL     1      10.712   3.671  23.170  0.00  0.00    +0.288 HD
ATOM     12  H   UNL     1      10.456   2.696  24.519  0.00  0.00    +0.288 HD
ENDBRANCH   4   7
BRANCH   1  14
ATOM     13  C   UNL     1       8.146  -3.586  26.034  0.00  0.00    +0.200 C 
ATOM     14  S   UNL     1       8.921  -3.823  24.454  0.00  0.00    -0.006 S 
ATOM     15  O   UNL     1       7.925  -4.332  23.533  0.00  0.00    -0.170 OA
ATOM     16  O   UNL     1      10.171  -4.528  24.665  0.00  0.00    -0.170 OA
ENDBRANCH   1  14
TORSDOF 2
ENDMDL
MODEL 2
REMARK VINA RESULT:      -5.4      1.010      1.812
REMARK  Name = 
REMARK  3 active torsions:
REMARK  status: ('A' for Active; 'I' for Inactive)
REMARK    1  A    between atoms: C_1  and  S_2
REMARK    2  A    between atoms: S_2  and  C_5
REMARK    3  A    between atoms: C_8  and  C_11
REMARK                            x       y       z     vdW  Elec       q    Type
REMARK                         _______ _______ _______ _____ _____    ______ ____
ROOT
ATOM      1  C   UNL     1       9.362  -2.104  24.227  0.00  0.00    +0.088 A 
ATOM      2  C   UNL     1       9.281  -1.011  25.094  0.00  0.00    +0.028 A 
ATOM      3  C   UNL     1       9.552   0.272  24.610  0.00  0.00    +0.018 A 
ATOM      4  C   UNL     1       9.895   0.458  23.263  0.00  0.00    +0.065 A 
ATOM      5  C   UNL     1       9.928  -0.639  22.394  0.00  0.00    +0.018 A 
ATOM      6  C   UNL     1       9.661  -1.923  22.874  0.00  0.00    +0.028 A 
ENDROOT
BRANCH   4   7
ATOM      7  C   UNL     1      10.231   1.823  22.769  0.00  0.00    +0.308 C 
ATOM      8  N   UNL     1      10.011   2.202  21.550  0.00  0.00    -0.099 NA
ATOM      9  H   UNL     1       9.631   1.444  20.980  0.00  0.00    +0.363 HD
ATOM     10  N   UNL     1      10.802   2.742  23.596  0.00  0.00    -0.247 N 
ATOM     11  H   UNL     1      10.793   3.662  23.165  0.00  0.00    +0.288 HD
ATOM     12  H   UNL     1      10.458   2.761  24.548  0.00  0.00    +0.288 HD
ENDBRANCH   4   7
BRANCH   1  14
ATOM     13  C   UNL     1       7.796  -4.355  23.728  0.00  0.00    +0.200 C 
ATOM     14  S   UNL     1       9.036  -3.742  24.839  0.00  0.00    -0.006 S 
ATOM     15  O   UNL     1      10.242  -4.523  24.649  0.00  0.00    -0.170 OA
ATOM     16  O   UNL     1       8.437  -3.604  26.153  0.00  0.00    -0.170 OA
ENDBRANCH   1  14
TORSDOF 2
ENDMDL
MODEL 3
REMARK VINA RESULT:      -5.2      1.596      1.879
REMARK  Name = 
REMARK  3 active torsions:
REMARK  status: ('A' for Active; 'I' for Inactive)
REMARK    1  A    between atoms: C_1  and  S_2
REMARK    2  A    between atoms: S_2  and  C_5
REMARK    3  A    between atoms: C_8  and  C_11
REMARK                            x       y       z     vdW  Elec       q    Type
REMARK                         _______ _______ _______ _____ _____    ______ ____
ROOT
ATOM      1  C   UNL     1       9.643  -0.648  23.422  0.00  0.00    +0.088 A 
ATOM      2  C   UNL     1       9.848   0.010  22.206  0.00  0.00    +0.028 A 
ATOM      3  C   UNL     1      10.193   1.365  22.209  0.00  0.00    +0.018 A 
ATOM      4  C   UNL     1      10.338   2.053  23.422  0.00  0.00    +0.065 A 
ATOM      5  C   UNL     1      10.175   1.371  24.634  0.00  0.00    +0.018 A 
ATOM      6  C   UNL     1       9.827   0.018  24.637  0.00  0.00    +0.028 A 
ENDROOT
BRANCH   4   7
ATOM      7  C   UNL     1      10.656   3.508  23.412  0.00  0.00    +0.308 C 
ATOM      8  N   UNL     1      11.719   3.991  22.852  0.00  0.00    -0.099 NA
ATOM      9  H   UNL     1      12.316   3.252  22.471  0.00  0.00    +0.363 HD
ATOM     10  N   UNL     1       9.826   4.406  24.011  0.00  0.00    -0.247 N 
ATOM     11  H   UNL     1      10.084   5.355  23.755  0.00  0.00    +0.288 HD
ATOM     12  H   UNL     1       8.833   4.237  23.905  0.00  0.00    +0.288 HD
ENDBRANCH   4   7
BRANCH   1  14
ATOM     13  C   UNL     1       8.022  -2.477  24.765  0.00  0.00    +0.200 C 
ATOM     14  S   UNL     1       9.185  -2.368  23.428  0.00  0.00    -0.006 S 
ATOM     15  O   UNL     1       8.481  -2.633  22.191  0.00  0.00    -0.170 OA
ATOM     16  O   UNL     1      10.365  -3.130  23.793  0.00  0.00    -0.170 OA
ENDBRANCH   1  14
TORSDOF 2
ENDMDL
MODEL 4
REMARK VINA RESULT:      -5.0      2.944      3.500
REMARK  Name = 
REMARK  3 active torsions:
REMARK  status: ('A' for Active; 'I' for Inactive)
REMARK    1  A    between atoms: C_1  and  S_2
REMARK    2  A    between atoms: S_2  and  C_5
REMARK    3  A    between atoms: C_8  and  C_11
REMARK                            x       y       z     vdW  Elec       q    Type
REMARK                         _______ _______ _______ _____ _____    ______ ____
ROOT
ATOM      1  C   UNL     1       8.428  -0.270  22.559  0.00  0.00    +0.088 A 
ATOM      2  C   UNL     1       7.254   0.056  23.243  0.00  0.00    +0.028 A 
ATOM      3  C   UNL     1       6.687   1.322  23.071  0.00  0.00    +0.018 A 
ATOM      4  C   UNL     1       7.290   2.252  22.212  0.00  0.00    +0.065 A 
ATOM      5  C   UNL     1       8.440   1.898  21.497  0.00  0.00    +0.018 A 
ATOM      6  C   UNL     1       9.011   0.635  21.668  0.00  0.00    +0.028 A 
ENDROOT
BRANCH   4   7
ATOM      7  C   UNL     1       6.706   3.616  22.074  0.00  0.00    +0.308 C 
ATOM      8  N   UNL     1       7.431   4.679  21.926  0.00  0.00    -0.099 NA
ATOM      9  H   UNL     1       8.430   4.464  21.964  0.00  0.00    +0.363 HD
ATOM     10  N   UNL     1       5.357   3.802  22.106  0.00  0.00    -0.247 N 
ATOM     11  H   UNL     1       5.122   4.747  21.814  0.00  0.00    +0.288 HD
ATOM     12  H   UNL     1       4.798   3.103  21.631  0.00  0.00    +0.288 HD
ENDBRANCH   4   7
BRANCH   1  14
ATOM     13  C   UNL     1       9.227  -2.048  24.552  0.00  0.00    +0.200 C 
ATOM     14  S   UNL     1       9.167  -1.873  22.787  0.00  0.00    -0.006 S 
ATOM     15  O   UNL     1       8.239  -2.855  22.264  0.00  0.00    -0.170 OA
ATOM     16  O   UNL     1      10.529  -1.798  22.293  0.00  0.00    -0.170 OA
ENDBRANCH   1  14
TORSDOF 2
ENDMDL
MODEL 5
REMARK VINA RESULT:      -5.0      1.773      2.212
REMARK  Name = 
REMARK  3 active torsions:
REMARK  status: ('A' for Active; 'I' for Inactive)
REMARK    1  A    between atoms: C_1  and  S_2
REMARK    2  A    between atoms: S_2  and  C_5
REMARK    3  A    between atoms: C_8  and  C_11
REMARK                            x       y       z     vdW  Elec       q    Type
REMARK                         _______ _______ _______ _____ _____    ______ ____
ROOT
ATOM      1  C   UNL     1       8.130  -2.095  23.178  0.00  0.00    +0.088 A 
ATOM      2  C   UNL     1       9.363  -1.826  22.576  0.00  0.00    +0.028 A 
ATOM      3  C   UNL     1       9.670  -0.517  22.195  0.00  0.00    +0.018 A 
ATOM      4  C   UNL     1       8.751   0.517  22.422  0.00  0.00    +0.065 A 
ATOM      5  C   UNL     1       7.539   0.243  23.068  0.00  0.00    +0.018 A 
ATOM      6  C   UNL     1       7.226  -1.064  23.447  0.00  0.00    +0.028 A 
ENDROOT
BRANCH   4   7
ATOM      7  C   UNL     1       9.067   1.900  21.967  0.00  0.00    +0.308 C 
ATOM      8  N   UNL     1      10.264   2.277  21.647  0.00  0.00    -0.099 NA
ATOM      9  H   UNL     1      10.948   1.532  21.792  0.00  0.00    +0.363 HD
ATOM     10  N   UNL     1       8.089   2.843  21.875  0.00  0.00    -0.247 N 
ATOM     11  H   UNL     1       8.430   3.662  21.379  0.00  0.00    +0.288 HD
ATOM     12  H   UNL     1       7.194   2.526  21.522  0.00  0.00    +0.288 HD
ENDBRANCH   4   7
BRANCH   1  14
ATOM     13  C   UNL     1       7.131  -4.481  22.138  0.00  0.00    +0.200 C 
ATOM     14  S   UNL     1       7.723  -3.762  23.649  0.00  0.00    -0.006 S 
ATOM     15  O   UNL     1       8.960  -4.423  24.012  0.00  0.00    -0.170 OA
ATOM     16  O   UNL     1       6.614  -3.691  24.581  0.00  0.00    -0.170 OA
ENDBRANCH   1  14
TORSDOF 2
ENDMDL
MODEL 6
REMARK VINA RESULT:      -5.0      4.465      5.528
REMARK  Name = 
REMARK  3 active torsions:
REMARK  status: ('A' for Active; 'I' for Inactive)
REMARK    1  A    between atoms: C_1  and  S_2
REMARK    2  A    between atoms: S_2  and  C_5
REMARK    3  A    between atoms: C_8  and  C_11
REMARK                            x       y       z     vdW  Elec       q    Type
REMARK                         _______ _______ _______ _____ _____    ______ ____
ROOT
ATOM      1  C   UNL     1       8.451  -1.254  23.827  0.00  0.00    +0.088 A 
ATOM      2  C   UNL     1       9.682  -1.909  23.726  0.00  0.00    +0.028 A 
ATOM      3  C   UNL     1       9.840  -3.169  24.311  0.00  0.00    +0.018 A 
ATOM      4  C   UNL     1       8.770  -3.771  24.986  0.00  0.00    +0.065 A 
ATOM      5  C   UNL     1       7.528  -3.126  25.041  0.00  0.00    +0.018 A 
ATOM      6  C   UNL     1       7.366  -1.865  24.461  0.00  0.00    +0.028 A 
ENDROOT
BRANCH   4   7
ATOM      7  C   UNL     1       8.963  -5.091  25.649  0.00  0.00    +0.308 C 
ATOM      8  N   UNL     1       9.891  -5.924  25.297  0.00  0.00    -0.099 NA
ATOM      9  H   UNL     1      10.425  -5.581  24.495  0.00  0.00    +0.363 HD
ATOM     10  N   UNL     1       8.150  -5.485  26.668  0.00  0.00    -0.247 N 
ATOM     11  H   UNL     1       8.527  -6.309  27.126  0.00  0.00    +0.288 HD
ATOM     12  H   UNL     1       7.884  -4.766  27.330  0.00  0.00    +0.288 HD
ENDBRANCH   4   7
BRANCH   1  14
ATOM     13  C   UNL     1       9.226   0.268  21.624  0.00  0.00    +0.200 C 
ATOM     14  S   UNL     1       8.247   0.358  23.102  0.00  0.00    -0.006 S 
ATOM     15  O   UNL     1       6.856   0.486  22.718  0.00  0.00    -0.170 OA
ATOM     16  O   UNL     1       8.865   1.318  23.996  0.00  0.00    -0.170 OA
ENDBRANCH   1  14
TORSDOF 2
ENDMDL
MODEL 7
REMARK VINA RESULT:      -4.9      4.533      6.051
REMARK  Name = 
REMARK  3 active torsions:
REMARK  status: ('A' for Active; 'I' for Inactive)
REMARK    1  A    between atoms: C_1  and  S_2
REMARK    2  A    between atoms: S_2  and  C_5
REMARK    3  A    between atoms: C_8  and  C_11
REMARK                            x       y       z     vdW  Elec       q    Type
REMARK                         _______ _______ _______ _____ _____    ______ ____
ROOT
ATOM      1  C   UNL     1       8.667  -2.433  24.091  0.00  0.00    +0.088 A 
ATOM      2  C   UNL     1       8.700  -2.276  25.480  0.00  0.00    +0.028 A 
ATOM      3  C   UNL     1       8.182  -3.284  26.298  0.00  0.00    +0.018 A 
ATOM      4  C   UNL     1       7.642  -4.446  25.728  0.00  0.00    +0.065 A 
ATOM      5  C   UNL     1       7.656  -4.612  24.337  0.00  0.00    +0.018 A 
ATOM      6  C   UNL     1       8.170  -3.605  23.516  0.00  0.00    +0.028 A 
ENDROOT
BRANCH   4   7
ATOM      7  C   UNL     1       7.048  -5.492  26.606  0.00  0.00    +0.308 C 
ATOM      8  N   UNL     1       7.548  -5.809  27.758  0.00  0.00    -0.099 NA
ATOM      9  H   UNL     1       8.408  -5.292  27.953  0.00  0.00    +0.363 HD
ATOM     10  N   UNL     1       5.934  -6.175  26.220  0.00  0.00    -0.247 N 
ATOM     11  H   UNL     1       5.556  -6.707  26.998  0.00  0.00    +0.288 HD
ATOM     12  H   UNL     1       5.223  -5.635  25.742  0.00  0.00    +0.288 HD
ENDBRANCH   4   7
BRANCH   1  14
ATOM     13  C   UNL     1      10.162  -0.081  24.176  0.00  0.00    +0.200 C 
ATOM     14  S   UNL     1       9.306  -1.146  23.042  0.00  0.00    -0.006 S 
ATOM     15  O   UNL     1      10.285  -1.752  22.162  0.00  0.00    -0.170 OA
ATOM     16  O   UNL     1       8.172  -0.418  22.507  0.00  0.00    -0.170 OA
ENDBRANCH   1  14
TORSDOF 2
ENDMDL
MODEL 8
REMARK VINA RESULT:      -4.9      2.101      2.472
REMARK  Name = 
REMARK  3 active torsions:
REMARK  status: ('A' for Active; 'I' for Inactive)
REMARK    1  A    between atoms: C_1  and  S_2
REMARK    2  A    between atoms: S_2  and  C_5
REMARK    3  A    between atoms: C_8  and  C_11
REMARK                            x       y       z     vdW  Elec       q    Type
REMARK                         _______ _______ _______ _____ _____    ______ ____
ROOT
ATOM      1  C   UNL     1       9.213  -0.190  23.241  0.00  0.00    +0.088 A 
ATOM      2  C   UNL     1       9.526   0.460  22.044  0.00  0.00    +0.028 A 
ATOM      3  C   UNL     1       9.986   1.779  22.078  0.00  0.00    +0.018 A 
ATOM      4  C   UNL     1      10.138   2.440  23.305  0.00  0.00    +0.065 A 
ATOM      5  C   UNL     1       9.865   1.764  24.500  0.00  0.00    +0.018 A 
ATOM      6  C   UNL     1       9.402   0.447  24.471  0.00  0.00    +0.028 A 
ENDROOT
BRANCH   4   7
ATOM      7  C   UNL     1      10.581   3.863  23.327  0.00  0.00    +0.308 C 
ATOM      8  N   UNL     1       9.765   4.849  23.522  0.00  0.00    -0.099 NA
ATOM      9  H   UNL     1       8.797   4.530  23.607  0.00  0.00    +0.363 HD
ATOM     10  N   UNL     1      11.889   4.188  23.133  0.00  0.00    -0.247 N 
ATOM     11  H   UNL     1      12.051   5.164  23.363  0.00  0.00    +0.288 HD
ATOM     12  H   UNL     1      12.571   3.574  23.563  0.00  0.00    +0.288 HD
ENDBRANCH   4   7
BRANCH   1  14
ATOM     13  C   UNL     1       9.879  -2.774  24.048  0.00  0.00    +0.200 C 
ATOM     14  S   UNL     1       8.609  -1.863  23.206  0.00  0.00    -0.006 S 
ATOM     15  O   UNL     1       7.407  -1.907  24.014  0.00  0.00    -0.170 OA
ATOM     16  O   UNL     1       8.591  -2.289  21.819  0.00  0.00    -0.170 OA
ENDBRANCH   1  14
TORSDOF 2
ENDMDL
MODEL 9
REMARK VINA RESULT:      -4.9      4.798      5.782
REMARK  Name = 
REMARK  3 active torsions:
REMARK  status: ('A' for Active; 'I' for Inactive)
REMARK    1  A    between atoms: C_1  and  S_2
REMARK    2  A    between atoms: S_2  and  C_5
REMARK    3  A    between atoms: C_8  and  C_11
REMARK                            x       y       z     vdW  Elec       q    Type
REMARK                         _______ _______ _______ _____ _____    ______ ____
ROOT
ATOM      1  C   UNL     1       8.919   3.471  23.409  0.00  0.00    +0.088 A 
ATOM      2  C   UNL     1       8.938   4.840  23.692  0.00  0.00    +0.028 A 
ATOM      3  C   UNL     1      10.164   5.506  23.784  0.00  0.00    +0.018 A 
ATOM      4  C   UNL     1      11.362   4.805  23.586  0.00  0.00    +0.065 A 
ATOM      5  C   UNL     1      11.328   3.444  23.257  0.00  0.00    +0.018 A 
ATOM      6  C   UNL     1      10.106   2.774  23.168  0.00  0.00    +0.028 A 
ENDROOT
BRANCH   4   7
ATOM      7  C   UNL     1      12.665   5.513  23.735  0.00  0.00    +0.308 C 
ATOM      8  N   UNL     1      13.759   5.092  23.185  0.00  0.00    -0.099 NA
ATOM      9  H   UNL     1      13.620   4.208  22.690  0.00  0.00    +0.363 HD
ATOM     10  N   UNL     1      12.758   6.651  24.477  0.00  0.00    -0.247 N 
ATOM     11  H   UNL     1      13.655   7.103  24.325  0.00  0.00    +0.288 HD
ATOM     12  H   UNL     1      11.983   7.299  24.400  0.00  0.00    +0.288 HD
ENDBRANCH   4   7
BRANCH   1  14
ATOM     13  C   UNL     1       6.566   3.032  24.839  0.00  0.00    +0.200 C 
ATOM     14  S   UNL     1       7.364   2.613  23.309  0.00  0.00    -0.006 S 
ATOM     15  O   UNL     1       6.609   3.208  22.225  0.00  0.00    -0.170 OA
ATOM     16  O   UNL     1       7.651   1.191  23.325  0.00  0.00    -0.170 OA
ENDBRANCH   1  14
TORSDOF 2
ENDMDL
