MODEL 1
REMARK VINA RESULT:      -7.2      0.000      0.000
REMARK  Name = 
REMARK  14 active torsions:
REMARK  status: ('A' for Active; 'I' for Inactive)
REMARK    1  A    between atoms: O_1  and  C_2
REMARK    2  A    between atoms: C_2  and  CA_4
REMARK    3  A    between atoms: CA_4  and  CB_6
REMARK    4  A    between atoms: CA_4  and  N_14
REMARK    5  A    between atoms: CB_6  and  CG_7
REMARK    6  A    between atoms: CZ_10  and  OH_11
REMARK    7  A    between atoms: C_15  and  CA_17
REMARK    8  A    between atoms: CA_17  and  CB_19
REMARK    9  A    between atoms: CA_17  and  N_26
REMARK   10  A    between atoms: CB_19  and  CG_20
REMARK   11  A    between atoms: C_27  and  C_29
REMARK   12  A    between atoms: C_29  and  S_31
REMARK   13  A    between atoms: C_29  and  C_32
REMARK   14  A    between atoms: C_32  and  C_33
REMARK                            x       y       z     vdW  Elec       q    Type
REMARK                         _______ _______ _______ _____ _____    ______ ____
ROOT
ATOM      1  CA  PHE A   1       9.382  -2.409  24.949  0.00  0.00    +0.163 C 
ENDROOT
BRANCH   1   4
ATOM      2  N   PHE A   1       7.736  -3.986  25.850  0.00  0.00    -0.301 N 
ATOM      3  H   PHE A   1       7.275  -3.138  26.186  0.00  0.00    +0.150 HD
ATOM      4  C   PHE A   1       8.879  -3.868  25.094  0.00  0.00    +0.234 C 
ATOM      5  O   PHE A   1       9.389  -4.823  24.509  0.00  0.00    -0.274 OA
BRANCH   2   6
ATOM      6  CA  PHE A   1       7.024  -5.249  26.066  0.00  0.00    +0.186 C 
BRANCH   6   7
ATOM      7  C   PHE A   1       6.692  -5.431  27.549  0.00  0.00    +0.326 C 
ATOM      8  OXT PHE A   1       5.831  -4.802  28.145  0.00  0.00    -0.249 OA
BRANCH   7   9
ATOM      9  O   PHE A   1       7.445  -6.371  28.179  0.00  0.00    -0.479 OA
ATOM     10  H   PHE A   1       7.040  -7.257  28.255  0.00  0.00    +0.295 HD
ENDBRANCH   7   9
ENDBRANCH   6   7
BRANCH   6  11
ATOM     11  CB  PHE A   1       5.757  -5.338  25.211  0.00  0.00    +0.069 C 
BRANCH  11  12
ATOM     12  CG  PHE A   1       5.901  -4.881  23.776  0.00  0.00    -0.045 A 
ATOM     13  CD2 PHE A   1       5.648  -3.582  23.331  0.00  0.00    +0.007 A 
ATOM     14  CE2 PHE A   1       5.670  -3.287  21.958  0.00  0.00    +0.045 A 
ATOM     15  CZ  PHE A   1       5.885  -4.297  21.033  0.00  0.00    +0.117 A 
ATOM     16  CE1 PHE A   1       6.203  -5.570  21.461  0.00  0.00    +0.045 A 
ATOM     17  CD1 PHE A   1       6.272  -5.827  22.829  0.00  0.00    +0.007 A 
BRANCH  15  18
ATOM     18  OH  PHE A   1       5.781  -4.015  19.705  0.00  0.00    -0.507 OA
ATOM     19  HH  PHE A   1       4.932  -3.566  19.552  0.00  0.00    +0.292 HD
ENDBRANCH  15  18
ENDBRANCH  11  12
ENDBRANCH   6  11
ENDBRANCH   2   6
ENDBRANCH   1   4
BRANCH   1  20
ATOM     20  N   PHE A   1       8.219  -1.523  25.109  0.00  0.00    -0.303 N 
ATOM     21  H   PHE A   1       7.493  -1.598  24.411  0.00  0.00    +0.149 HD
ATOM     22  C   UNK A   0       8.041  -0.737  26.208  0.00  0.00    +0.227 C 
ATOM     23  O   UNK A   0       8.855  -0.719  27.129  0.00  0.00    -0.275 OA
BRANCH  22  24
ATOM     24  C   UNK A   0       6.809   0.211  26.210  0.00  0.00    +0.133 C 
BRANCH  24  25
ATOM     25  S   UNK A   0       5.874  -0.140  27.769  0.00  0.00    -0.165 S 
ATOM     26  H   UNK A   0       6.851  -0.828  28.389  0.00  0.00    +0.102 HD
ENDBRANCH  24  25
BRANCH  24  27
ATOM     27  C   UNK A   0       7.064   1.731  26.126  0.00  0.00    +0.058 C 
BRANCH  27  28
ATOM     28  C   UNK A   0       7.051   2.310  24.730  0.00  0.00    -0.046 A 
ATOM     29  C   UNK A   0       6.480   1.611  23.661  0.00  0.00    +0.004 A 
ATOM     30  C   UNK A   0       6.315   2.225  22.414  0.00  0.00    +0.000 A 
ATOM     31  C   UNK A   0       6.729   3.539  22.218  0.00  0.00    +0.000 A 
ATOM     32  C   UNK A   0       7.413   4.194  23.234  0.00  0.00    +0.000 A 
ATOM     33  C   UNK A   0       7.605   3.568  24.472  0.00  0.00    +0.004 A 
ENDBRANCH  27  28
ENDBRANCH  24  27
ENDBRANCH  22  24
ENDBRANCH   1  20
BRANCH   1  34
ATOM     34  CB  PHE A   1      10.064  -2.178  23.587  0.00  0.00    +0.067 C 
BRANCH  34  35
ATOM     35  CG  PHE A   1      10.014  -0.722  23.155  0.00  0.00    -0.045 A 
ATOM     36  CD2 PHE A   1      10.595   0.280  23.945  0.00  0.00    +0.004 A 
ATOM     37  CE2 PHE A   1      10.639   1.603  23.496  0.00  0.00    +0.000 A 
ATOM     38  CZ  PHE A   1      10.095   1.940  22.259  0.00  0.00    +0.000 A 
ATOM     39  CE1 PHE A   1       9.477   0.962  21.483  0.00  0.00    +0.000 A 
ATOM     40  CD1 PHE A   1       9.428  -0.360  21.932  0.00  0.00    +0.004 A 
ENDBRANCH  34  35
ENDBRANCH   1  34
TORSDOF 14
ENDMDL
MODEL 2
REMARK VINA RESULT:      -6.8      2.196      5.669
REMARK  Name = 
REMARK  14 active torsions:
REMARK  status: ('A' for Active; 'I' for Inactive)
REMARK    1  A    between atoms: O_1  and  C_2
REMARK    2  A    between atoms: C_2  and  CA_4
REMARK    3  A    between atoms: CA_4  and  CB_6
REMARK    4  A    between atoms: CA_4  and  N_14
REMARK    5  A    between atoms: CB_6  and  CG_7
REMARK    6  A    between atoms: CZ_10  and  OH_11
REMARK    7  A    between atoms: C_15  and  CA_17
REMARK    8  A    between atoms: CA_17  and  CB_19
REMARK    9  A    between atoms: CA_17  and  N_26
REMARK   10  A    between atoms: CB_19  and  CG_20
REMARK   11  A    between atoms: C_27  and  C_29
REMARK   12  A    between atoms: C_29  and  S_31
REMARK   13  A    between atoms: C_29  and  C_32
REMARK   14  A    between atoms: C_32  and  C_33
REMARK                            x       y       z     vdW  Elec       q    Type
REMARK                         _______ _______ _______ _____ _____    ______ ____
ROOT
ATOM      1  CA  PHE A   1       5.920  -1.267  25.972  0.00  0.00    +0.163 C 
ENDROOT
BRANCH   1   4
ATOM      2  N   PHE A   1       7.875  -2.578  25.292  0.00  0.00    -0.301 N 
ATOM      3  H   PHE A   1       7.266  -2.885  24.533  0.00  0.00    +0.150 HD
ATOM      4  C   PHE A   1       7.407  -1.647  26.190  0.00  0.00    +0.234 C 
ATOM      5  O   PHE A   1       8.133  -1.101  27.019  0.00  0.00    -0.274 OA
BRANCH   2   6
ATOM      6  CA  PHE A   1       9.267  -3.039  25.243  0.00  0.00    +0.186 C 
BRANCH   6   7
ATOM      7  C   PHE A   1       9.366  -4.496  25.703  0.00  0.00    +0.326 C 
ATOM      8  OXT PHE A   1       8.769  -4.958  26.664  0.00  0.00    -0.249 OA
BRANCH   7   9
ATOM      9  O   PHE A   1      10.189  -5.267  24.945  0.00  0.00    -0.479 OA
ATOM     10  H   PHE A   1       9.797  -6.093  24.601  0.00  0.00    +0.295 HD
ENDBRANCH   7   9
ENDBRANCH   6   7
BRANCH   6  11
ATOM     11  CB  PHE A   1       9.870  -2.869  23.846  0.00  0.00    +0.069 C 
BRANCH  11  12
ATOM     12  CG  PHE A   1       9.785  -1.476  23.262  0.00  0.00    -0.045 A 
ATOM     13  CD2 PHE A   1       9.241  -1.175  22.011  0.00  0.00    +0.007 A 
ATOM     14  CE2 PHE A   1       9.336   0.125  21.492  0.00  0.00    +0.045 A 
ATOM     15  CZ  PHE A   1      10.024   1.105  22.192  0.00  0.00    +0.117 A 
ATOM     16  CE1 PHE A   1      10.506   0.840  23.457  0.00  0.00    +0.045 A 
ATOM     17  CD1 PHE A   1      10.321  -0.429  24.001  0.00  0.00    +0.007 A 
BRANCH  15  18
ATOM     18  OH  PHE A   1      10.210   2.326  21.616  0.00  0.00    -0.507 OA
ATOM     19  HH  PHE A   1      10.459   2.958  22.312  0.00  0.00    +0.292 HD
ENDBRANCH  15  18
ENDBRANCH  11  12
ENDBRANCH   6  11
ENDBRANCH   2   6
ENDBRANCH   1   4
BRANCH   1  20
ATOM     20  N   PHE A   1       5.186  -2.507  25.678  0.00  0.00    -0.303 N 
ATOM     21  H   PHE A   1       5.742  -3.320  25.453  0.00  0.00    +0.149 HD
ATOM     22  C   UNK A   0       3.837  -2.615  25.832  0.00  0.00    +0.227 C 
ATOM     23  O   UNK A   0       3.152  -1.670  26.221  0.00  0.00    -0.275 OA
BRANCH  22  24
ATOM     24  C   UNK A   0       3.179  -3.957  25.406  0.00  0.00    +0.133 C 
BRANCH  24  25
ATOM     25  S   UNK A   0       1.377  -3.815  25.809  0.00  0.00    -0.165 S 
ATOM     26  H   UNK A   0       1.250  -5.019  26.398  0.00  0.00    +0.102 HD
ENDBRANCH  24  25
BRANCH  24  27
ATOM     27  C   UNK A   0       3.316  -4.397  23.933  0.00  0.00    +0.058 C 
BRANCH  27  28
ATOM     28  C   UNK A   0       4.731  -4.462  23.409  0.00  0.00    -0.046 A 
ATOM     29  C   UNK A   0       5.595  -5.497  23.784  0.00  0.00    +0.004 A 
ATOM     30  C   UNK A   0       6.840  -5.649  23.160  0.00  0.00    +0.000 A 
ATOM     31  C   UNK A   0       7.239  -4.762  22.166  0.00  0.00    +0.000 A 
ATOM     32  C   UNK A   0       6.445  -3.659  21.880  0.00  0.00    +0.000 A 
ATOM     33  C   UNK A   0       5.213  -3.492  22.526  0.00  0.00    +0.004 A 
ENDBRANCH  27  28
ENDBRANCH  24  27
ENDBRANCH  22  24
ENDBRANCH   1  20
BRANCH   1  34
ATOM     34  CB  PHE A   1       5.758  -0.249  24.827  0.00  0.00    +0.067 C 
BRANCH  34  35
ATOM     35  CG  PHE A   1       6.331   1.114  25.180  0.00  0.00    -0.045 A 
ATOM     36  CD2 PHE A   1       6.128   1.669  26.451  0.00  0.00    +0.004 A 
ATOM     37  CE2 PHE A   1       6.743   2.873  26.806  0.00  0.00    +0.000 A 
ATOM     38  CZ  PHE A   1       7.558   3.539  25.894  0.00  0.00    +0.000 A 
ATOM     39  CE1 PHE A   1       7.733   3.019  24.614  0.00  0.00    +0.000 A 
ATOM     40  CD1 PHE A   1       7.117   1.819  24.255  0.00  0.00    +0.004 A 
ENDBRANCH  34  35
ENDBRANCH   1  34
TORSDOF 14
ENDMDL
MODEL 3
REMARK VINA RESULT:      -6.8      1.762      2.157
REMARK  Name = 
REMARK  14 active torsions:
REMARK  status: ('A' for Active; 'I' for Inactive)
REMARK    1  A    between atoms: O_1  and  C_2
REMARK    2  A    between atoms: C_2  and  CA_4
REMARK    3  A    between atoms: CA_4  and  CB_6
REMARK    4  A    between atoms: CA_4  and  N_14
REMARK    5  A    between atoms: CB_6  and  CG_7
REMARK    6  A    between atoms: CZ_10  and  OH_11
REMARK    7  A    between atoms: C_15  and  CA_17
REMARK    8  A    between atoms: CA_17  and  CB_19
REMARK    9  A    between atoms: CA_17  and  N_26
REMARK   10  A    between atoms: CB_19  and  CG_20
REMARK   11  A    between atoms: C_27  and  C_29
REMARK   12  A    between atoms: C_29  and  S_31
REMARK   13  A    between atoms: C_29  and  C_32
REMARK   14  A    between atoms: C_32  and  C_33
REMARK                            x       y       z     vdW  Elec       q    Type
REMARK                         _______ _______ _______ _____ _____    ______ ____
ROOT
ATOM      1  CA  PHE A   1       9.114  -2.009  24.907  0.00  0.00    +0.163 C 
ENDROOT
BRANCH   1   4
ATOM      2  N   PHE A   1       7.444  -3.449  25.976  0.00  0.00    -0.301 N 
ATOM      3  H   PHE A   1       7.231  -2.609  26.518  0.00  0.00    +0.150 HD
ATOM      4  C   PHE A   1       8.395  -3.380  24.986  0.00  0.00    +0.234 C 
ATOM      5  O   PHE A   1       8.580  -4.291  24.180  0.00  0.00    -0.274 OA
BRANCH   2   6
ATOM      6  CA  PHE A   1       6.576  -4.610  26.199  0.00  0.00    +0.186 C 
BRANCH   6   7
ATOM      7  C   PHE A   1       6.918  -5.288  27.528  0.00  0.00    +0.326 C 
ATOM      8  OXT PHE A   1       6.252  -5.182  28.548  0.00  0.00    -0.249 OA
BRANCH   7   9
ATOM      9  O   PHE A   1       8.049  -6.041  27.497  0.00  0.00    -0.479 OA
ATOM     10  H   PHE A   1       7.958  -6.956  27.828  0.00  0.00    +0.295 HD
ENDBRANCH   7   9
ENDBRANCH   6   7
BRANCH   6  11
ATOM     11  CB  PHE A   1       5.094  -4.227  26.151  0.00  0.00    +0.069 C 
BRANCH  11  12
ATOM     12  CG  PHE A   1       4.216  -5.117  25.299  0.00  0.00    -0.045 A 
ATOM     13  CD2 PHE A   1       4.234  -6.514  25.335  0.00  0.00    +0.007 A 
ATOM     14  CE2 PHE A   1       3.487  -7.255  24.406  0.00  0.00    +0.045 A 
ATOM     15  CZ  PHE A   1       2.774  -6.607  23.410  0.00  0.00    +0.117 A 
ATOM     16  CE1 PHE A   1       2.693  -5.229  23.404  0.00  0.00    +0.045 A 
ATOM     17  CD1 PHE A   1       3.361  -4.507  24.390  0.00  0.00    +0.007 A 
BRANCH  15  18
ATOM     18  OH  PHE A   1       2.156  -7.345  22.446  0.00  0.00    -0.507 OA
ATOM     19  HH  PHE A   1       2.791  -7.501  21.726  0.00  0.00    +0.292 HD
ENDBRANCH  15  18
ENDBRANCH  11  12
ENDBRANCH   6  11
ENDBRANCH   2   6
ENDBRANCH   1   4
BRANCH   1  20
ATOM     20  N   PHE A   1       8.096  -0.966  25.102  0.00  0.00    -0.303 N 
ATOM     21  H   PHE A   1       7.461  -0.804  24.333  0.00  0.00    +0.149 HD
ATOM     22  C   UNK A   0       7.910  -0.336  26.295  0.00  0.00    +0.227 C 
ATOM     23  O   UNK A   0       8.594  -0.602  27.281  0.00  0.00    -0.275 OA
BRANCH  22  24
ATOM     24  C   UNK A   0       6.855   0.805  26.339  0.00  0.00    +0.133 C 
BRANCH  24  25
ATOM     25  S   UNK A   0       6.024   0.694  27.990  0.00  0.00    -0.165 S 
ATOM     26  H   UNK A   0       4.829   1.177  27.599  0.00  0.00    +0.102 HD
ENDBRANCH  24  25
BRANCH  24  27
ATOM     27  C   UNK A   0       7.345   2.255  26.136  0.00  0.00    +0.058 C 
BRANCH  27  28
ATOM     28  C   UNK A   0       7.279   2.764  24.715  0.00  0.00    -0.046 A 
ATOM     29  C   UNK A   0       6.713   1.992  23.694  0.00  0.00    +0.004 A 
ATOM     30  C   UNK A   0       6.497   2.537  22.423  0.00  0.00    +0.000 A 
ATOM     31  C   UNK A   0       6.855   3.855  22.155  0.00  0.00    +0.000 A 
ATOM     32  C   UNK A   0       7.534   4.584  23.121  0.00  0.00    +0.000 A 
ATOM     33  C   UNK A   0       7.777   4.027  24.383  0.00  0.00    +0.004 A 
ENDBRANCH  27  28
ENDBRANCH  24  27
ENDBRANCH  22  24
ENDBRANCH   1  20
BRANCH   1  34
ATOM     34  CB  PHE A   1       9.837  -1.826  23.559  0.00  0.00    +0.067 C 
BRANCH  34  35
ATOM     35  CG  PHE A   1      10.113  -0.365  23.245  0.00  0.00    -0.045 A 
ATOM     36  CD2 PHE A   1       9.732   0.187  22.014  0.00  0.00    +0.004 A 
ATOM     37  CE2 PHE A   1       9.893   1.554  21.769  0.00  0.00    +0.000 A 
ATOM     38  CZ  PHE A   1      10.444   2.380  22.746  0.00  0.00    +0.000 A 
ATOM     39  CE1 PHE A   1      10.865   1.836  23.957  0.00  0.00    +0.000 A 
ATOM     40  CD1 PHE A   1      10.709   0.471  24.202  0.00  0.00    +0.004 A 
ENDBRANCH  34  35
ENDBRANCH   1  34
TORSDOF 14
ENDMDL
MODEL 4
REMARK VINA RESULT:      -6.7      2.881      4.863
REMARK  Name = 
REMARK  14 active torsions:
REMARK  status: ('A' for Active; 'I' for Inactive)
REMARK    1  A    between atoms: O_1  and  C_2
REMARK    2  A    between atoms: C_2  and  CA_4
REMARK    3  A    between atoms: CA_4  and  CB_6
REMARK    4  A    between atoms: CA_4  and  N_14
REMARK    5  A    between atoms: CB_6  and  CG_7
REMARK    6  A    between atoms: CZ_10  and  OH_11
REMARK    7  A    between atoms: C_15  and  CA_17
REMARK    8  A    between atoms: CA_17  and  CB_19
REMARK    9  A    between atoms: CA_17  and  N_26
REMARK   10  A    between atoms: CB_19  and  CG_20
REMARK   11  A    between atoms: C_27  and  C_29
REMARK   12  A    between atoms: C_29  and  S_31
REMARK   13  A    between atoms: C_29  and  C_32
REMARK   14  A    between atoms: C_32  and  C_33
REMARK                            x       y       z     vdW  Elec       q    Type
REMARK                         _______ _______ _______ _____ _____    ______ ____
ROOT
ATOM      1  CA  PHE A   1       7.594  -1.768  24.289  0.00  0.00    +0.163 C 
ENDROOT
BRANCH   1   4
ATOM      2  N   PHE A   1       5.756  -1.770  25.909  0.00  0.00    -0.301 N 
ATOM      3  H   PHE A   1       5.175  -1.906  25.080  0.00  0.00    +0.150 HD
ATOM      4  C   PHE A   1       7.122  -1.721  25.764  0.00  0.00    +0.234 C 
ATOM      5  O   PHE A   1       7.892  -1.737  26.724  0.00  0.00    -0.274 OA
BRANCH   2   6
ATOM      6  CA  PHE A   1       5.071  -1.819  27.205  0.00  0.00    +0.186 C 
BRANCH   6   7
ATOM      7  C   PHE A   1       4.409  -0.474  27.512  0.00  0.00    +0.326 C 
ATOM      8  OXT PHE A   1       4.428   0.070  28.607  0.00  0.00    -0.249 OA
BRANCH   7   9
ATOM      9  O   PHE A   1       3.777   0.095  26.452  0.00  0.00    -0.479 OA
ATOM     10  H   PHE A   1       3.423  -0.526  25.787  0.00  0.00    +0.295 HD
ENDBRANCH   7   9
ENDBRANCH   6   7
BRANCH   6  11
ATOM     11  CB  PHE A   1       4.044  -2.954  27.260  0.00  0.00    +0.069 C 
BRANCH  11  12
ATOM     12  CG  PHE A   1       4.230  -4.055  26.239  0.00  0.00    -0.045 A 
ATOM     13  CD2 PHE A   1       3.504  -4.160  25.050  0.00  0.00    +0.007 A 
ATOM     14  CE2 PHE A   1       3.643  -5.294  24.234  0.00  0.00    +0.045 A 
ATOM     15  CZ  PHE A   1       4.458  -6.343  24.633  0.00  0.00    +0.117 A 
ATOM     16  CE1 PHE A   1       5.232  -6.222  25.769  0.00  0.00    +0.045 A 
ATOM     17  CD1 PHE A   1       5.156  -5.051  26.520  0.00  0.00    +0.007 A 
BRANCH  15  18
ATOM     18  OH  PHE A   1       4.486  -7.483  23.890  0.00  0.00    -0.507 OA
ATOM     19  HH  PHE A   1       3.610  -7.607  23.486  0.00  0.00    +0.292 HD
ENDBRANCH  15  18
ENDBRANCH  11  12
ENDBRANCH   6  11
ENDBRANCH   2   6
ENDBRANCH   1   4
BRANCH   1  20
ATOM     20  N   PHE A   1       8.065  -0.420  23.933  0.00  0.00    -0.303 N 
ATOM     21  H   PHE A   1       7.439   0.346  24.134  0.00  0.00    +0.149 HD
ATOM     22  C   UNK A   0       9.330  -0.179  23.487  0.00  0.00    +0.227 C 
ATOM     23  O   UNK A   0      10.151  -1.085  23.348  0.00  0.00    -0.275 OA
BRANCH  22  24
ATOM     24  C   UNK A   0       9.669   1.279  23.069  0.00  0.00    +0.133 C 
BRANCH  24  25
ATOM     25  S   UNK A   0       8.700   1.627  21.530  0.00  0.00    -0.165 S 
ATOM     26  H   UNK A   0       7.502   1.239  22.005  0.00  0.00    +0.102 HD
ENDBRANCH  24  25
BRANCH  24  27
ATOM     27  C   UNK A   0       9.393   2.408  24.085  0.00  0.00    +0.058 C 
BRANCH  27  28
ATOM     28  C   UNK A   0      10.159   3.688  23.849  0.00  0.00    -0.046 A 
ATOM     29  C   UNK A   0       9.600   4.934  24.154  0.00  0.00    +0.004 A 
ATOM     30  C   UNK A   0      10.377   6.098  24.100  0.00  0.00    +0.000 A 
ATOM     31  C   UNK A   0      11.716   6.031  23.729  0.00  0.00    +0.000 A 
ATOM     32  C   UNK A   0      12.243   4.819  23.301  0.00  0.00    +0.000 A 
ATOM     33  C   UNK A   0      11.456   3.661  23.327  0.00  0.00    +0.004 A 
ENDBRANCH  27  28
ENDBRANCH  24  27
ENDBRANCH  22  24
ENDBRANCH   1  20
BRANCH   1  34
ATOM     34  CB  PHE A   1       6.462  -2.219  23.347  0.00  0.00    +0.067 C 
BRANCH  34  35
ATOM     35  CG  PHE A   1       6.701  -3.608  22.779  0.00  0.00    -0.045 A 
ATOM     36  CD2 PHE A   1       7.584  -4.497  23.409  0.00  0.00    +0.004 A 
ATOM     37  CE2 PHE A   1       7.723  -5.808  22.946  0.00  0.00    +0.000 A 
ATOM     38  CZ  PHE A   1       6.990  -6.242  21.843  0.00  0.00    +0.000 A 
ATOM     39  CE1 PHE A   1       6.142  -5.356  21.183  0.00  0.00    +0.000 A 
ATOM     40  CD1 PHE A   1       6.005  -4.045  21.642  0.00  0.00    +0.004 A 
ENDBRANCH  34  35
ENDBRANCH   1  34
TORSDOF 14
ENDMDL
MODEL 5
REMARK VINA RESULT:      -6.7      2.047      3.341
REMARK  Name = 
REMARK  14 active torsions:
REMARK  status: ('A' for Active; 'I' for Inactive)
REMARK    1  A    between atoms: O_1  and  C_2
REMARK    2  A    between atoms: C_2  and  CA_4
REMARK    3  A    between atoms: CA_4  and  CB_6
REMARK    4  A    between atoms: CA_4  and  N_14
REMARK    5  A    between atoms: CB_6  and  CG_7
REMARK    6  A    between atoms: CZ_10  and  OH_11
REMARK    7  A    between atoms: C_15  and  CA_17
REMARK    8  A    between atoms: CA_17  and  CB_19
REMARK    9  A    between atoms: CA_17  and  N_26
REMARK   10  A    between atoms: CB_19  and  CG_20
REMARK   11  A    between atoms: C_27  and  C_29
REMARK   12  A    between atoms: C_29  and  S_31
REMARK   13  A    between atoms: C_29  and  C_32
REMARK   14  A    between atoms: C_32  and  C_33
REMARK                            x       y       z     vdW  Elec       q    Type
REMARK                         _______ _______ _______ _____ _____    ______ ____
ROOT
ATOM      1  CA  PHE A   1       9.005  -2.381  24.267  0.00  0.00    +0.163 C 
ENDROOT
BRANCH   1   4
ATOM      2  N   PHE A   1       6.901  -3.357  23.477  0.00  0.00    -0.301 N 
ATOM      3  H   PHE A   1       6.624  -2.382  23.356  0.00  0.00    +0.150 HD
ATOM      4  C   PHE A   1       8.176  -3.640  23.907  0.00  0.00    +0.234 C 
ATOM      5  O   PHE A   1       8.638  -4.780  23.908  0.00  0.00    -0.274 OA
BRANCH   2   6
ATOM      6  CA  PHE A   1       5.952  -4.371  23.004  0.00  0.00    +0.186 C 
BRANCH   6   7
ATOM      7  C   PHE A   1       6.324  -4.838  21.595  0.00  0.00    +0.326 C 
ATOM      8  OXT PHE A   1       5.879  -4.350  20.566  0.00  0.00    -0.249 OA
BRANCH   7   9
ATOM      9  O   PHE A   1       7.212  -5.867  21.562  0.00  0.00    -0.479 OA
ATOM     10  H   PHE A   1       7.695  -6.036  22.394  0.00  0.00    +0.295 HD
ENDBRANCH   7   9
ENDBRANCH   6   7
BRANCH   6  11
ATOM     11  CB  PHE A   1       5.869  -5.560  23.966  0.00  0.00    +0.069 C 
BRANCH  11  12
ATOM     12  CG  PHE A   1       4.499  -6.184  24.118  0.00  0.00    -0.045 A 
ATOM     13  CD2 PHE A   1       4.172  -7.150  25.073  0.00  0.00    +0.007 A 
ATOM     14  CE2 PHE A   1       2.916  -7.775  25.045  0.00  0.00    +0.045 A 
ATOM     15  CZ  PHE A   1       2.014  -7.481  24.034  0.00  0.00    +0.117 A 
ATOM     16  CE1 PHE A   1       2.297  -6.481  23.126  0.00  0.00    +0.045 A 
ATOM     17  CD1 PHE A   1       3.509  -5.801  23.222  0.00  0.00    +0.007 A 
BRANCH  15  18
ATOM     18  OH  PHE A   1       0.851  -8.186  23.953  0.00  0.00    -0.507 OA
ATOM     19  HH  PHE A   1       0.547  -8.170  23.030  0.00  0.00    +0.292 HD
ENDBRANCH  15  18
ENDBRANCH  11  12
ENDBRANCH   6  11
ENDBRANCH   2   6
ENDBRANCH   1   4
BRANCH   1  20
ATOM     20  N   PHE A   1       8.055  -1.297  24.560  0.00  0.00    -0.303 N 
ATOM     21  H   PHE A   1       7.515  -0.946  23.782  0.00  0.00    +0.149 HD
ATOM     22  C   UNK A   0       7.798  -0.869  25.827  0.00  0.00    +0.227 C 
ATOM     23  O   UNK A   0       8.357  -1.365  26.804  0.00  0.00    -0.275 OA
BRANCH  22  24
ATOM     24  C   UNK A   0       6.835   0.341  25.986  0.00  0.00    +0.133 C 
BRANCH  24  25
ATOM     25  S   UNK A   0       5.985   0.129  27.618  0.00  0.00    -0.165 S 
ATOM     26  H   UNK A   0       5.298   1.286  27.591  0.00  0.00    +0.102 HD
ENDBRANCH  24  25
BRANCH  24  27
ATOM     27  C   UNK A   0       7.437   1.761  25.930  0.00  0.00    +0.058 C 
BRANCH  27  28
ATOM     28  C   UNK A   0       7.151   2.532  24.663  0.00  0.00    -0.046 A 
ATOM     29  C   UNK A   0       7.496   3.883  24.544  0.00  0.00    +0.004 A 
ATOM     30  C   UNK A   0       7.391   4.540  23.312  0.00  0.00    +0.000 A 
ATOM     31  C   UNK A   0       6.929   3.859  22.190  0.00  0.00    +0.000 A 
ATOM     32  C   UNK A   0       6.463   2.558  22.329  0.00  0.00    +0.000 A 
ATOM     33  C   UNK A   0       6.541   1.911  23.569  0.00  0.00    +0.004 A 
ENDBRANCH  27  28
ENDBRANCH  24  27
ENDBRANCH  22  24
ENDBRANCH   1  20
BRANCH   1  34
ATOM     34  CB  PHE A   1       9.956  -1.983  23.122  0.00  0.00    +0.067 C 
BRANCH  34  35
ATOM     35  CG  PHE A   1      10.170  -0.481  23.044  0.00  0.00    -0.045 A 
ATOM     36  CD2 PHE A   1       9.795   0.238  21.901  0.00  0.00    +0.004 A 
ATOM     37  CE2 PHE A   1       9.897   1.631  21.872  0.00  0.00    +0.000 A 
ATOM     38  CZ  PHE A   1      10.383   2.320  22.981  0.00  0.00    +0.000 A 
ATOM     39  CE1 PHE A   1      10.798   1.615  24.108  0.00  0.00    +0.000 A 
ATOM     40  CD1 PHE A   1      10.701   0.222  24.137  0.00  0.00    +0.004 A 
ENDBRANCH  34  35
ENDBRANCH   1  34
TORSDOF 14
ENDMDL
MODEL 6
REMARK VINA RESULT:      -6.7      1.534      3.398
REMARK  Name = 
REMARK  14 active torsions:
REMARK  status: ('A' for Active; 'I' for Inactive)
REMARK    1  A    between atoms: O_1  and  C_2
REMARK    2  A    between atoms: C_2  and  CA_4
REMARK    3  A    between atoms: CA_4  and  CB_6
REMARK    4  A    between atoms: CA_4  and  N_14
REMARK    5  A    between atoms: CB_6  and  CG_7
REMARK    6  A    between atoms: CZ_10  and  OH_11
REMARK    7  A    between atoms: C_15  and  CA_17
REMARK    8  A    between atoms: CA_17  and  CB_19
REMARK    9  A    between atoms: CA_17  and  N_26
REMARK   10  A    between atoms: CB_19  and  CG_20
REMARK   11  A    between atoms: C_27  and  C_29
REMARK   12  A    between atoms: C_29  and  S_31
REMARK   13  A    between atoms: C_29  and  C_32
REMARK   14  A    between atoms: C_32  and  C_33
REMARK                            x       y       z     vdW  Elec       q    Type
REMARK                         _______ _______ _______ _____ _____    ______ ____
ROOT
ATOM      1  CA  PHE A   1       8.512  -2.114  24.146  0.00  0.00    +0.163 C 
ENDROOT
BRANCH   1   4
ATOM      2  N   PHE A   1       6.634  -3.558  23.519  0.00  0.00    -0.301 N 
ATOM      3  H   PHE A   1       6.436  -3.545  24.520  0.00  0.00    +0.150 HD
ATOM      4  C   PHE A   1       7.682  -2.809  23.037  0.00  0.00    +0.234 C 
ATOM      5  O   PHE A   1       7.874  -2.634  21.834  0.00  0.00    -0.274 OA
BRANCH   2   6
ATOM      6  CA  PHE A   1       5.659  -4.245  22.666  0.00  0.00    +0.186 C 
BRANCH   6   7
ATOM      7  C   PHE A   1       6.237  -5.563  22.144  0.00  0.00    +0.326 C 
ATOM      8  OXT PHE A   1       7.256  -6.087  22.573  0.00  0.00    -0.249 OA
BRANCH   7   9
ATOM      9  O   PHE A   1       5.520  -6.131  21.139  0.00  0.00    -0.479 OA
ATOM     10  H   PHE A   1       4.656  -6.509  21.397  0.00  0.00    +0.295 HD
ENDBRANCH   7   9
ENDBRANCH   6   7
BRANCH   6  11
ATOM     11  CB  PHE A   1       4.336  -4.486  23.398  0.00  0.00    +0.069 C 
BRANCH  11  12
ATOM     12  CG  PHE A   1       4.447  -5.181  24.738  0.00  0.00    -0.045 A 
ATOM     13  CD2 PHE A   1       5.005  -4.607  25.883  0.00  0.00    +0.007 A 
ATOM     14  CE2 PHE A   1       5.196  -5.379  27.039  0.00  0.00    +0.045 A 
ATOM     15  CZ  PHE A   1       4.887  -6.731  27.034  0.00  0.00    +0.117 A 
ATOM     16  CE1 PHE A   1       4.273  -7.294  25.934  0.00  0.00    +0.045 A 
ATOM     17  CD1 PHE A   1       4.001  -6.494  24.826  0.00  0.00    +0.007 A 
BRANCH  15  18
ATOM     18  OH  PHE A   1       5.193  -7.487  28.124  0.00  0.00    -0.507 OA
ATOM     19  HH  PHE A   1       5.905  -8.103  27.880  0.00  0.00    +0.292 HD
ENDBRANCH  15  18
ENDBRANCH  11  12
ENDBRANCH   6  11
ENDBRANCH   2   6
ENDBRANCH   1   4
BRANCH   1  20
ATOM     20  N   PHE A   1       7.769  -0.916  24.567  0.00  0.00    -0.303 N 
ATOM     21  H   PHE A   1       7.532  -0.253  23.843  0.00  0.00    +0.149 HD
ATOM     22  C   UNK A   0       7.292  -0.756  25.833  0.00  0.00    +0.227 C 
ATOM     23  O   UNK A   0       7.466  -1.608  26.702  0.00  0.00    -0.275 OA
BRANCH  22  24
ATOM     24  C   UNK A   0       6.597   0.594  26.164  0.00  0.00    +0.133 C 
BRANCH  24  25
ATOM     25  S   UNK A   0       6.000   0.467  27.912  0.00  0.00    -0.165 S 
ATOM     26  H   UNK A   0       6.174  -0.862  28.043  0.00  0.00    +0.102 HD
ENDBRANCH  24  25
BRANCH  24  27
ATOM     27  C   UNK A   0       7.424   1.890  26.024  0.00  0.00    +0.058 C 
BRANCH  27  28
ATOM     28  C   UNK A   0       7.193   2.667  24.749  0.00  0.00    -0.046 A 
ATOM     29  C   UNK A   0       7.655   3.980  24.607  0.00  0.00    +0.004 A 
ATOM     30  C   UNK A   0       7.594   4.628  23.367  0.00  0.00    +0.000 A 
ATOM     31  C   UNK A   0       7.060   3.976  22.260  0.00  0.00    +0.000 A 
ATOM     32  C   UNK A   0       6.481   2.724  22.423  0.00  0.00    +0.000 A 
ATOM     33  C   UNK A   0       6.516   2.089  23.671  0.00  0.00    +0.004 A 
ENDBRANCH  27  28
ENDBRANCH  24  27
ENDBRANCH  22  24
ENDBRANCH   1  20
BRANCH   1  34
ATOM     34  CB  PHE A   1       9.921  -1.738  23.647  0.00  0.00    +0.067 C 
BRANCH  34  35
ATOM     35  CG  PHE A   1      10.057  -0.251  23.367  0.00  0.00    -0.045 A 
ATOM     36  CD2 PHE A   1      10.570   0.617  24.341  0.00  0.00    +0.004 A 
ATOM     37  CE2 PHE A   1      10.791   1.965  24.046  0.00  0.00    +0.000 A 
ATOM     38  CZ  PHE A   1      10.494   2.462  22.778  0.00  0.00    +0.000 A 
ATOM     39  CE1 PHE A   1       9.944   1.619  21.816  0.00  0.00    +0.000 A 
ATOM     40  CD1 PHE A   1       9.718   0.273  22.110  0.00  0.00    +0.004 A 
ENDBRANCH  34  35
ENDBRANCH   1  34
TORSDOF 14
ENDMDL
MODEL 7
REMARK VINA RESULT:      -6.6      2.043      5.645
REMARK  Name = 
REMARK  14 active torsions:
REMARK  status: ('A' for Active; 'I' for Inactive)
REMARK    1  A    between atoms: O_1  and  C_2
REMARK    2  A    between atoms: C_2  and  CA_4
REMARK    3  A    between atoms: CA_4  and  CB_6
REMARK    4  A    between atoms: CA_4  and  N_14
REMARK    5  A    between atoms: CB_6  and  CG_7
REMARK    6  A    between atoms: CZ_10  and  OH_11
REMARK    7  A    between atoms: C_15  and  CA_17
REMARK    8  A    between atoms: CA_17  and  CB_19
REMARK    9  A    between atoms: CA_17  and  N_26
REMARK   10  A    between atoms: CB_19  and  CG_20
REMARK   11  A    between atoms: C_27  and  C_29
REMARK   12  A    between atoms: C_29  and  S_31
REMARK   13  A    between atoms: C_29  and  C_32
REMARK   14  A    between atoms: C_32  and  C_33
REMARK                            x       y       z     vdW  Elec       q    Type
REMARK                         _______ _______ _______ _____ _____    ______ ____
ROOT
ATOM      1  CA  PHE A   1       5.564  -1.772  24.855  0.00  0.00    +0.163 C 
ENDROOT
BRANCH   1   4
ATOM      2  N   PHE A   1       7.854  -2.446  24.300  0.00  0.00    -0.301 N 
ATOM      3  H   PHE A   1       7.584  -2.175  23.353  0.00  0.00    +0.150 HD
ATOM      4  C   PHE A   1       6.953  -2.272  25.325  0.00  0.00    +0.234 C 
ATOM      5  O   PHE A   1       7.261  -2.407  26.509  0.00  0.00    -0.274 OA
BRANCH   2   6
ATOM      6  CA  PHE A   1       9.254  -2.836  24.498  0.00  0.00    +0.186 C 
BRANCH   6   7
ATOM      7  C   PHE A   1       9.383  -4.359  24.558  0.00  0.00    +0.326 C 
ATOM      8  OXT PHE A   1      10.220  -4.956  25.221  0.00  0.00    -0.249 OA
BRANCH   7   9
ATOM      9  O   PHE A   1       8.475  -5.029  23.799  0.00  0.00    -0.479 OA
ATOM     10  H   PHE A   1       7.923  -4.475  23.214  0.00  0.00    +0.295 HD
ENDBRANCH   7   9
ENDBRANCH   6   7
BRANCH   6  11
ATOM     11  CB  PHE A   1      10.162  -2.256  23.410  0.00  0.00    +0.069 C 
BRANCH  11  12
ATOM     12  CG  PHE A   1      10.082  -0.757  23.221  0.00  0.00    -0.045 A 
ATOM     13  CD2 PHE A   1       9.795  -0.127  22.007  0.00  0.00    +0.007 A 
ATOM     14  CE2 PHE A   1       9.886   1.269  21.896  0.00  0.00    +0.045 A 
ATOM     15  CZ  PHE A   1      10.317   2.027  22.974  0.00  0.00    +0.117 A 
ATOM     16  CE1 PHE A   1      10.537   1.426  24.196  0.00  0.00    +0.045 A 
ATOM     17  CD1 PHE A   1      10.352   0.050  24.319  0.00  0.00    +0.007 A 
BRANCH  15  18
ATOM     18  OH  PHE A   1      10.515   3.364  22.810  0.00  0.00    -0.507 OA
ATOM     19  HH  PHE A   1      11.470   3.524  22.724  0.00  0.00    +0.292 HD
ENDBRANCH  15  18
ENDBRANCH  11  12
ENDBRANCH   6  11
ENDBRANCH   2   6
ENDBRANCH   1   4
BRANCH   1  20
ATOM     20  N   PHE A   1       5.447  -0.359  25.249  0.00  0.00    -0.303 N 
ATOM     21  H   PHE A   1       5.009  -0.172  26.139  0.00  0.00    +0.149 HD
ATOM     22  C   UNK A   0       6.019   0.651  24.535  0.00  0.00    +0.227 C 
ATOM     23  O   UNK A   0       6.661   0.435  23.509  0.00  0.00    -0.275 OA
BRANCH  22  24
ATOM     24  C   UNK A   0       5.747   2.103  25.019  0.00  0.00    +0.133 C 
BRANCH  24  25
ATOM     25  S   UNK A   0       4.466   1.986  26.350  0.00  0.00    -0.165 S 
ATOM     26  H   UNK A   0       4.203   3.304  26.434  0.00  0.00    +0.102 HD
ENDBRANCH  24  25
BRANCH  24  27
ATOM     27  C   UNK A   0       6.938   2.923  25.558  0.00  0.00    +0.058 C 
BRANCH  27  28
ATOM     28  C   UNK A   0       7.478   3.973  24.616  0.00  0.00    -0.046 A 
ATOM     29  C   UNK A   0       7.059   4.032  23.282  0.00  0.00    +0.004 A 
ATOM     30  C   UNK A   0       7.426   5.109  22.466  0.00  0.00    +0.000 A 
ATOM     31  C   UNK A   0       8.224   6.131  22.970  0.00  0.00    +0.000 A 
ATOM     32  C   UNK A   0       8.749   6.015  24.250  0.00  0.00    +0.000 A 
ATOM     33  C   UNK A   0       8.406   4.921  25.055  0.00  0.00    +0.004 A 
ENDBRANCH  27  28
ENDBRANCH  24  27
ENDBRANCH  22  24
ENDBRANCH   1  20
BRANCH   1  34
ATOM     34  CB  PHE A   1       4.424  -2.608  25.468  0.00  0.00    +0.067 C 
BRANCH  34  35
ATOM     35  CG  PHE A   1       4.458  -4.056  25.008  0.00  0.00    -0.045 A 
ATOM     36  CD2 PHE A   1       4.663  -5.094  25.928  0.00  0.00    +0.004 A 
ATOM     37  CE2 PHE A   1       4.590  -6.429  25.520  0.00  0.00    +0.000 A 
ATOM     38  CZ  PHE A   1       4.322  -6.740  24.188  0.00  0.00    +0.000 A 
ATOM     39  CE1 PHE A   1       4.160  -5.717  23.257  0.00  0.00    +0.000 A 
ATOM     40  CD1 PHE A   1       4.236  -4.383  23.662  0.00  0.00    +0.004 A 
ENDBRANCH  34  35
ENDBRANCH   1  34
TORSDOF 14
ENDMDL
MODEL 8
REMARK VINA RESULT:      -6.5      1.669      2.780
REMARK  Name = 
REMARK  14 active torsions:
REMARK  status: ('A' for Active; 'I' for Inactive)
REMARK    1  A    between atoms: O_1  and  C_2
REMARK    2  A    between atoms: C_2  and  CA_4
REMARK    3  A    between atoms: CA_4  and  CB_6
REMARK    4  A    between atoms: CA_4  and  N_14
REMARK    5  A    between atoms: CB_6  and  CG_7
REMARK    6  A    between atoms: CZ_10  and  OH_11
REMARK    7  A    between atoms: C_15  and  CA_17
REMARK    8  A    between atoms: CA_17  and  CB_19
REMARK    9  A    between atoms: CA_17  and  N_26
REMARK   10  A    between atoms: CB_19  and  CG_20
REMARK   11  A    between atoms: C_27  and  C_29
REMARK   12  A    between atoms: C_29  and  S_31
REMARK   13  A    between atoms: C_29  and  C_32
REMARK   14  A    between atoms: C_32  and  C_33
REMARK                            x       y       z     vdW  Elec       q    Type
REMARK                         _______ _______ _______ _____ _____    ______ ____
ROOT
ATOM      1  CA  PHE A   1       8.002  -3.674  26.195  0.00  0.00    +0.163 C 
ENDROOT
BRANCH   1   4
ATOM      2  N   PHE A   1       5.891  -4.171  27.336  0.00  0.00    -0.301 N 
ATOM      3  H   PHE A   1       5.559  -3.341  26.842  0.00  0.00    +0.150 HD
ATOM      4  C   PHE A   1       7.176  -4.608  27.116  0.00  0.00    +0.234 C 
ATOM      5  O   PHE A   1       7.589  -5.689  27.534  0.00  0.00    -0.274 OA
BRANCH   2   6
ATOM      6  CA  PHE A   1       4.892  -4.919  28.107  0.00  0.00    +0.186 C 
BRANCH   6   7
ATOM      7  C   PHE A   1       4.337  -4.058  29.244  0.00  0.00    +0.326 C 
ATOM      8  OXT PHE A   1       3.552  -3.133  29.090  0.00  0.00    -0.249 OA
BRANCH   7   9
ATOM      9  O   PHE A   1       4.789  -4.401  30.479  0.00  0.00    -0.479 OA
ATOM     10  H   PHE A   1       4.240  -5.045  30.967  0.00  0.00    +0.295 HD
ENDBRANCH   7   9
ENDBRANCH   6   7
BRANCH   6  11
ATOM     11  CB  PHE A   1       3.759  -5.435  27.215  0.00  0.00    +0.069 C 
BRANCH  11  12
ATOM     12  CG  PHE A   1       4.064  -5.484  25.733  0.00  0.00    -0.045 A 
ATOM     13  CD2 PHE A   1       4.601  -6.591  25.072  0.00  0.00    +0.007 A 
ATOM     14  CE2 PHE A   1       4.984  -6.494  23.726  0.00  0.00    +0.045 A 
ATOM     15  CZ  PHE A   1       4.886  -5.282  23.060  0.00  0.00    +0.117 A 
ATOM     16  CE1 PHE A   1       4.296  -4.200  23.679  0.00  0.00    +0.045 A 
ATOM     17  CD1 PHE A   1       3.832  -4.336  24.986  0.00  0.00    +0.007 A 
BRANCH  15  18
ATOM     18  OH  PHE A   1       5.376  -5.177  21.793  0.00  0.00    -0.507 OA
ATOM     19  HH  PHE A   1       6.287  -5.518  21.788  0.00  0.00    +0.292 HD
ENDBRANCH  15  18
ENDBRANCH  11  12
ENDBRANCH   6  11
ENDBRANCH   2   6
ENDBRANCH   1   4
BRANCH   1  20
ATOM     20  N   PHE A   1       7.273  -2.401  26.090  0.00  0.00    -0.303 N 
ATOM     21  H   PHE A   1       6.308  -2.455  25.797  0.00  0.00    +0.149 HD
ATOM     22  C   UNK A   0       7.806  -1.215  26.495  0.00  0.00    +0.227 C 
ATOM     23  O   UNK A   0       8.939  -1.142  26.968  0.00  0.00    -0.275 OA
BRANCH  22  24
ATOM     24  C   UNK A   0       6.958   0.065  26.250  0.00  0.00    +0.133 C 
BRANCH  24  25
ATOM     25  S   UNK A   0       5.950   0.332  27.780  0.00  0.00    -0.165 S 
ATOM     26  H   UNK A   0       6.984   0.453  28.633  0.00  0.00    +0.102 HD
ENDBRANCH  24  25
BRANCH  24  27
ATOM     27  C   UNK A   0       7.702   1.376  25.922  0.00  0.00    +0.058 C 
BRANCH  27  28
ATOM     28  C   UNK A   0       8.087   1.553  24.471  0.00  0.00    -0.046 A 
ATOM     29  C   UNK A   0       7.143   1.408  23.449  0.00  0.00    +0.004 A 
ATOM     30  C   UNK A   0       7.464   1.744  22.128  0.00  0.00    +0.000 A 
ATOM     31  C   UNK A   0       8.733   2.217  21.813  0.00  0.00    +0.000 A 
ATOM     32  C   UNK A   0       9.713   2.241  22.797  0.00  0.00    +0.000 A 
ATOM     33  C   UNK A   0       9.399   1.875  24.113  0.00  0.00    +0.004 A 
ENDBRANCH  27  28
ENDBRANCH  24  27
ENDBRANCH  22  24
ENDBRANCH   1  20
BRANCH   1  34
ATOM     34  CB  PHE A   1       8.219  -4.299  24.804  0.00  0.00    +0.067 C 
BRANCH  34  35
ATOM     35  CG  PHE A   1       8.707  -3.284  23.784  0.00  0.00    -0.045 A 
ATOM     36  CD2 PHE A   1       7.882  -2.879  22.725  0.00  0.00    +0.004 A 
ATOM     37  CE2 PHE A   1       8.294  -1.870  21.851  0.00  0.00    +0.000 A 
ATOM     38  CZ  PHE A   1       9.537  -1.262  22.018  0.00  0.00    +0.000 A 
ATOM     39  CE1 PHE A   1      10.382  -1.685  23.040  0.00  0.00    +0.000 A 
ATOM     40  CD1 PHE A   1       9.975  -2.696  23.913  0.00  0.00    +0.004 A 
ENDBRANCH  34  35
ENDBRANCH   1  34
TORSDOF 14
ENDMDL
MODEL 9
REMARK VINA RESULT:      -6.5      2.731      6.697
REMARK  Name = 
REMARK  14 active torsions:
REMARK  status: ('A' for Active; 'I' for Inactive)
REMARK    1  A    between atoms: O_1  and  C_2
REMARK    2  A    between atoms: C_2  and  CA_4
REMARK    3  A    between atoms: CA_4  and  CB_6
REMARK    4  A    between atoms: CA_4  and  N_14
REMARK    5  A    between atoms: CB_6  and  CG_7
REMARK    6  A    between atoms: CZ_10  and  OH_11
REMARK    7  A    between atoms: C_15  and  CA_17
REMARK    8  A    between atoms: CA_17  and  CB_19
REMARK    9  A    between atoms: CA_17  and  N_26
REMARK   10  A    between atoms: CB_19  and  CG_20
REMARK   11  A    between atoms: C_27  and  C_29
REMARK   12  A    between atoms: C_29  and  S_31
REMARK   13  A    between atoms: C_29  and  C_32
REMARK   14  A    between atoms: C_32  and  C_33
REMARK                            x       y       z     vdW  Elec       q    Type
REMARK                         _______ _______ _______ _____ _____    ______ ____
ROOT
ATOM      1  CA  PHE A   1       6.156  -1.216  25.455  0.00  0.00    +0.163 C 
ENDROOT
BRANCH   1   4
ATOM      2  N   PHE A   1       6.231   1.119  26.198  0.00  0.00    -0.301 N 
ATOM      3  H   PHE A   1       7.232   1.026  26.017  0.00  0.00    +0.150 HD
ATOM      4  C   PHE A   1       5.403   0.058  25.919  0.00  0.00    +0.234 C 
ATOM      5  O   PHE A   1       4.176   0.150  25.942  0.00  0.00    -0.274 OA
BRANCH   2   6
ATOM      6  CA  PHE A   1       5.754   2.453  26.578  0.00  0.00    +0.186 C 
BRANCH   6   7
ATOM      7  C   PHE A   1       6.123   2.761  28.031  0.00  0.00    +0.326 C 
ATOM      8  OXT PHE A   1       5.320   2.812  28.951  0.00  0.00    -0.249 OA
BRANCH   7   9
ATOM      9  O   PHE A   1       7.448   2.981  28.237  0.00  0.00    -0.479 OA
ATOM     10  H   PHE A   1       7.676   3.832  28.659  0.00  0.00    +0.295 HD
ENDBRANCH   7   9
ENDBRANCH   6   7
BRANCH   6  11
ATOM     11  CB  PHE A   1       6.294   3.535  25.640  0.00  0.00    +0.069 C 
BRANCH  11  12
ATOM     12  CG  PHE A   1       7.329   3.075  24.637  0.00  0.00    -0.045 A 
ATOM     13  CD2 PHE A   1       8.710   3.189  24.816  0.00  0.00    +0.007 A 
ATOM     14  CE2 PHE A   1       9.589   2.868  23.770  0.00  0.00    +0.045 A 
ATOM     15  CZ  PHE A   1       9.089   2.491  22.532  0.00  0.00    +0.117 A 
ATOM     16  CE1 PHE A   1       7.732   2.309  22.362  0.00  0.00    +0.045 A 
ATOM     17  CD1 PHE A   1       6.877   2.540  23.437  0.00  0.00    +0.007 A 
BRANCH  15  18
ATOM     18  OH  PHE A   1       9.953   2.302  21.496  0.00  0.00    -0.507 OA
ATOM     19  HH  PHE A   1      10.018   3.134  20.996  0.00  0.00    +0.292 HD
ENDBRANCH  15  18
ENDBRANCH  11  12
ENDBRANCH   6  11
ENDBRANCH   2   6
ENDBRANCH   1   4
BRANCH   1  20
ATOM     20  N   PHE A   1       5.597  -2.354  26.201  0.00  0.00    -0.303 N 
ATOM     21  H   PHE A   1       5.820  -2.404  27.185  0.00  0.00    +0.149 HD
ATOM     22  C   UNK A   0       4.710  -3.228  25.649  0.00  0.00    +0.227 C 
ATOM     23  O   UNK A   0       4.330  -3.116  24.485  0.00  0.00    -0.275 OA
BRANCH  22  24
ATOM     24  C   UNK A   0       4.263  -4.433  26.524  0.00  0.00    +0.133 C 
BRANCH  24  25
ATOM     25  S   UNK A   0       2.651  -5.022  25.829  0.00  0.00    -0.165 S 
ATOM     26  H   UNK A   0       3.159  -5.991  25.046  0.00  0.00    +0.102 HD
ENDBRANCH  24  25
BRANCH  24  27
ATOM     27  C   UNK A   0       5.217  -5.642  26.635  0.00  0.00    +0.058 C 
BRANCH  27  28
ATOM     28  C   UNK A   0       6.612  -5.413  26.101  0.00  0.00    -0.046 A 
ATOM     29  C   UNK A   0       6.874  -5.438  24.726  0.00  0.00    +0.004 A 
ATOM     30  C   UNK A   0       8.126  -5.052  24.232  0.00  0.00    +0.000 A 
ATOM     31  C   UNK A   0       9.132  -4.649  25.104  0.00  0.00    +0.000 A 
ATOM     32  C   UNK A   0       8.921  -4.745  26.474  0.00  0.00    +0.000 A 
ATOM     33  C   UNK A   0       7.678  -5.160  26.968  0.00  0.00    +0.004 A 
ENDBRANCH  27  28
ENDBRANCH  24  27
ENDBRANCH  22  24
ENDBRANCH   1  20
BRANCH   1  34
ATOM     34  CB  PHE A   1       7.673  -1.094  25.695  0.00  0.00    +0.067 C 
BRANCH  34  35
ATOM     35  CG  PHE A   1       8.462  -1.067  24.397  0.00  0.00    -0.045 A 
ATOM     36  CD2 PHE A   1       9.822  -0.727  24.392  0.00  0.00    +0.004 A 
ATOM     37  CE2 PHE A   1      10.570  -0.804  23.214  0.00  0.00    +0.000 A 
ATOM     38  CZ  PHE A   1       9.965  -1.212  22.027  0.00  0.00    +0.000 A 
ATOM     39  CE1 PHE A   1       8.606  -1.512  22.010  0.00  0.00    +0.000 A 
ATOM     40  CD1 PHE A   1       7.856  -1.432  23.185  0.00  0.00    +0.004 A 
ENDBRANCH  34  35
ENDBRANCH   1  34
TORSDOF 14
ENDMDL
