MODEL 1
REMARK VINA RESULT:      -6.5      0.000      0.000
REMARK  Name = 
REMARK  6 active torsions:
REMARK  status: ('A' for Active; 'I' for Inactive)
REMARK    1  A    between atoms: C_1  and  C_2
REMARK    2  A    between atoms: C_9  and  C_10
REMARK    3  A    between atoms: C_13  and  N_14
REMARK    4  A    between atoms: N_14  and  N_15
REMARK    5  A    between atoms: C_16  and  C_17
REMARK    6  A    between atoms: C_16  and  C_19
REMARK                            x       y       z     vdW  Elec       q    Type
REMARK                         _______ _______ _______ _____ _____    ______ ____
ROOT
ATOM      1  C   UNL     1       9.737   0.925  23.926  0.00  0.00    -0.002 A 
ATOM      2  C   UNL     1      10.137   0.152  22.825  0.00  0.00    +0.011 A 
ATOM      3  C   UNL     1      10.136  -1.249  22.896  0.00  0.00    +0.025 A 
ATOM      4  C   UNL     1       9.717  -1.907  24.058  0.00  0.00    +0.048 A 
ATOM      5  C   UNL     1       9.309  -1.126  25.147  0.00  0.00    +0.025 A 
ATOM      6  C   UNL     1       9.317   0.273  25.086  0.00  0.00    +0.011 A 
ENDROOT
BRANCH   1   9
ATOM      7  C   UNL     1       7.504   3.124  23.277  0.00  0.00    +0.014 C 
ATOM      8  C   UNL     1       8.652   3.280  24.280  0.00  0.00    +0.046 C 
ATOM      9  C   UNL     1       9.841   2.425  23.851  0.00  0.00    +0.070 C 
ATOM     10  N   UNL     1      10.953   2.925  23.406  0.00  0.00    -0.184 NA
ATOM     11  N   UNL     1      11.120   4.264  23.367  0.00  0.00    -0.207 N 
ATOM     12  H   UNL     1      12.014   4.593  23.017  0.00  0.00    +0.177 HD
ATOM     13  C   UNL     1      10.282   5.215  23.863  0.00  0.00    +0.233 C 
ATOM     14  O   UNL     1      10.591   6.406  23.843  0.00  0.00    -0.274 OA
ATOM     15  C   UNL     1       8.992   4.754  24.471  0.00  0.00    +0.107 C 
ENDBRANCH   1   9
BRANCH   4  16
ATOM     16  N   UNL     1       9.770  -3.318  24.138  0.00  0.00    -0.236 N 
ATOM     17  H   UNL     1       9.656  -3.777  23.232  0.00  0.00    +0.174 HD
BRANCH  16  18
ATOM     18  N   UNL     1       9.272  -3.885  25.280  0.00  0.00    -0.160 NA
ATOM     19  C   UNL     1       8.288  -4.730  25.213  0.00  0.00    +0.234 C 
BRANCH  19  20
ATOM     20  C   UNL     1       7.838  -5.229  26.482  0.00  0.00    +0.132 C 
ATOM     21  N   UNL     1       7.497  -5.628  27.519  0.00  0.00    -0.188 NA
ENDBRANCH  19  20
BRANCH  19  22
ATOM     22  C   UNL     1       7.709  -5.118  23.961  0.00  0.00    +0.132 C 
ATOM     23  N   UNL     1       7.257  -5.418  22.935  0.00  0.00    -0.188 NA
ENDBRANCH  19  22
ENDBRANCH  16  18
ENDBRANCH   4  16
TORSDOF 5
ENDMDL
MODEL 2
REMARK VINA RESULT:      -6.5      3.258      8.202
REMARK  Name = 
REMARK  6 active torsions:
REMARK  status: ('A' for Active; 'I' for Inactive)
REMARK    1  A    between atoms: C_1  and  C_2
REMARK    2  A    between atoms: C_9  and  C_10
REMARK    3  A    between atoms: C_13  and  N_14
REMARK    4  A    between atoms: N_14  and  N_15
REMARK    5  A    between atoms: C_16  and  C_17
REMARK    6  A    between atoms: C_16  and  C_19
REMARK                            x       y       z     vdW  Elec       q    Type
REMARK                         _______ _______ _______ _____ _____    ______ ____
ROOT
ATOM      1  C   UNL     1       9.485  -0.094  23.476  0.00  0.00    -0.002 A 
ATOM      2  C   UNL     1       9.615   0.349  22.151  0.00  0.00    +0.011 A 
ATOM      3  C   UNL     1      10.142   1.618  21.868  0.00  0.00    +0.025 A 
ATOM      4  C   UNL     1      10.568   2.462  22.900  0.00  0.00    +0.048 A 
ATOM      5  C   UNL     1      10.445   2.005  24.219  0.00  0.00    +0.025 A 
ATOM      6  C   UNL     1       9.911   0.743  24.508  0.00  0.00    +0.011 A 
ENDROOT
BRANCH   1   9
ATOM      7  C   UNL     1       6.449  -0.786  24.214  0.00  0.00    +0.014 C 
ATOM      8  C   UNL     1       7.374  -1.636  23.337  0.00  0.00    +0.046 C 
ATOM      9  C   UNL     1       8.828  -1.421  23.750  0.00  0.00    +0.070 C 
ATOM     10  N   UNL     1       9.540  -2.328  24.345  0.00  0.00    -0.184 NA
ATOM     11  N   UNL     1       9.018  -3.553  24.568  0.00  0.00    -0.207 N 
ATOM     12  H   UNL     1       9.627  -4.221  25.031  0.00  0.00    +0.177 HD
ATOM     13  C   UNL     1       7.822  -4.033  24.131  0.00  0.00    +0.233 C 
ATOM     14  O   UNL     1       7.498  -5.204  24.328  0.00  0.00    -0.274 OA
ATOM     15  C   UNL     1       6.937  -3.097  23.364  0.00  0.00    +0.107 C 
ENDBRANCH   1   9
BRANCH   4  16
ATOM     16  N   UNL     1      11.049   3.759  22.609  0.00  0.00    -0.236 N 
ATOM     17  H   UNL     1      11.718   3.777  21.836  0.00  0.00    +0.174 HD
BRANCH  16  18
ATOM     18  N   UNL     1      11.177   4.617  23.668  0.00  0.00    -0.160 NA
ATOM     19  C   UNL     1      12.142   5.486  23.690  0.00  0.00    +0.234 C 
BRANCH  19  20
ATOM     20  C   UNL     1      12.185   6.305  24.870  0.00  0.00    +0.132 C 
ATOM     21  N   UNL     1      12.227   6.988  25.809  0.00  0.00    -0.188 NA
ENDBRANCH  19  20
BRANCH  19  22
ATOM     22  C   UNL     1      13.080   5.602  22.613  0.00  0.00    +0.132 C 
ATOM     23  N   UNL     1      13.855   5.680  21.753  0.00  0.00    -0.188 NA
ENDBRANCH  19  22
ENDBRANCH  16  18
ENDBRANCH   4  16
TORSDOF 5
ENDMDL
MODEL 3
REMARK VINA RESULT:      -6.4      0.632      2.052
REMARK  Name = 
REMARK  6 active torsions:
REMARK  status: ('A' for Active; 'I' for Inactive)
REMARK    1  A    between atoms: C_1  and  C_2
REMARK    2  A    between atoms: C_9  and  C_10
REMARK    3  A    between atoms: C_13  and  N_14
REMARK    4  A    between atoms: N_14  and  N_15
REMARK    5  A    between atoms: C_16  and  C_17
REMARK    6  A    between atoms: C_16  and  C_19
REMARK                            x       y       z     vdW  Elec       q    Type
REMARK                         _______ _______ _______ _____ _____    ______ ____
ROOT
ATOM      1  C   UNL     1       9.848   0.872  24.056  0.00  0.00    -0.002 A 
ATOM      2  C   UNL     1       9.426   0.276  25.254  0.00  0.00    +0.011 A 
ATOM      3  C   UNL     1       9.327  -1.119  25.363  0.00  0.00    +0.025 A 
ATOM      4  C   UNL     1       9.666  -1.947  24.287  0.00  0.00    +0.048 A 
ATOM      5  C   UNL     1      10.096  -1.342  23.099  0.00  0.00    +0.025 A 
ATOM      6  C   UNL     1      10.188   0.051  22.981  0.00  0.00    +0.011 A 
ENDROOT
BRANCH   1   9
ATOM      7  C   UNL     1       7.438   2.914  23.538  0.00  0.00    +0.014 C 
ATOM      8  C   UNL     1       8.649   3.167  24.443  0.00  0.00    +0.046 C 
ATOM      9  C   UNL     1       9.852   2.374  23.940  0.00  0.00    +0.070 C 
ATOM     10  N   UNL     1      10.892   2.927  23.397  0.00  0.00    -0.184 NA
ATOM     11  N   UNL     1      10.972   4.273  23.315  0.00  0.00    -0.207 N 
ATOM     12  H   UNL     1      11.814   4.645  22.887  0.00  0.00    +0.177 HD
ATOM     13  C   UNL     1      10.118   5.184  23.855  0.00  0.00    +0.233 C 
ATOM     14  O   UNL     1      10.350   6.391  23.784  0.00  0.00    -0.274 OA
ATOM     15  C   UNL     1       8.910   4.663  24.573  0.00  0.00    +0.107 C 
ENDBRANCH   1   9
BRANCH   4  16
ATOM     16  N   UNL     1       9.512  -3.349  24.389  0.00  0.00    -0.236 N 
ATOM     17  H   UNL     1      10.366  -3.827  24.685  0.00  0.00    +0.174 HD
BRANCH  16  18
ATOM     18  N   UNL     1       8.651  -3.937  23.502  0.00  0.00    -0.160 NA
ATOM     19  C   UNL     1       7.828  -4.859  23.905  0.00  0.00    +0.234 C 
BRANCH  19  20
ATOM     20  C   UNL     1       7.000  -5.416  22.873  0.00  0.00    +0.132 C 
ATOM     21  N   UNL     1       6.342  -5.890  22.040  0.00  0.00    -0.188 NA
ENDBRANCH  19  20
BRANCH  19  22
ATOM     22  C   UNL     1       7.770  -5.273  25.276  0.00  0.00    +0.132 C 
ATOM     23  N   UNL     1       7.746  -5.618  26.383  0.00  0.00    -0.188 NA
ENDBRANCH  19  22
ENDBRANCH  16  18
ENDBRANCH   4  16
TORSDOF 5
ENDMDL
MODEL 4
REMARK VINA RESULT:      -6.3      3.305      8.336
REMARK  Name = 
REMARK  6 active torsions:
REMARK  status: ('A' for Active; 'I' for Inactive)
REMARK    1  A    between atoms: C_1  and  C_2
REMARK    2  A    between atoms: C_9  and  C_10
REMARK    3  A    between atoms: C_13  and  N_14
REMARK    4  A    between atoms: N_14  and  N_15
REMARK    5  A    between atoms: C_16  and  C_17
REMARK    6  A    between atoms: C_16  and  C_19
REMARK                            x       y       z     vdW  Elec       q    Type
REMARK                         _______ _______ _______ _____ _____    ______ ____
ROOT
ATOM      1  C   UNL     1       8.855  -0.641  24.957  0.00  0.00    -0.002 A 
ATOM      2  C   UNL     1      10.166  -0.247  24.650  0.00  0.00    +0.011 A 
ATOM      3  C   UNL     1      10.445   1.072  24.264  0.00  0.00    +0.025 A 
ATOM      4  C   UNL     1       9.426   2.029  24.196  0.00  0.00    +0.048 A 
ATOM      5  C   UNL     1       8.122   1.629  24.515  0.00  0.00    +0.025 A 
ATOM      6  C   UNL     1       7.836   0.310  24.892  0.00  0.00    +0.011 A 
ENDROOT
BRANCH   1   9
ATOM      7  C   UNL     1       8.111  -3.079  23.021  0.00  0.00    +0.014 C 
ATOM      8  C   UNL     1       8.984  -3.166  24.278  0.00  0.00    +0.046 C 
ATOM      9  C   UNL     1       8.573  -2.086  25.275  0.00  0.00    +0.070 C 
ATOM     10  N   UNL     1       7.973  -2.343  26.396  0.00  0.00    -0.184 NA
ATOM     11  N   UNL     1       7.743  -3.625  26.756  0.00  0.00    -0.207 N 
ATOM     12  H   UNL     1       7.277  -3.762  27.648  0.00  0.00    +0.177 HD
ATOM     13  C   UNL     1       8.177  -4.750  26.126  0.00  0.00    +0.233 C 
ATOM     14  O   UNL     1       7.974  -5.865  26.606  0.00  0.00    -0.274 OA
ATOM     15  C   UNL     1       8.948  -4.578  24.852  0.00  0.00    +0.107 C 
ENDBRANCH   1   9
BRANCH   4  16
ATOM     16  N   UNL     1       9.708   3.343  23.755  0.00  0.00    -0.236 N 
ATOM     17  H   UNL     1       8.958   3.747  23.189  0.00  0.00    +0.174 HD
BRANCH  16  18
ATOM     18  N   UNL     1      11.020   3.632  23.491  0.00  0.00    -0.160 NA
ATOM     19  C   UNL     1      11.441   4.859  23.541  0.00  0.00    +0.234 C 
BRANCH  19  20
ATOM     20  C   UNL     1      12.828   5.032  23.215  0.00  0.00    +0.132 C 
ATOM     21  N   UNL     1      13.944   5.185  22.929  0.00  0.00    -0.188 NA
ENDBRANCH  19  20
BRANCH  19  22
ATOM     22  C   UNL     1      10.571   5.943  23.895  0.00  0.00    +0.132 C 
ATOM     23  N   UNL     1       9.851   6.803  24.191  0.00  0.00    -0.188 NA
ENDBRANCH  19  22
ENDBRANCH  16  18
ENDBRANCH   4  16
TORSDOF 5
ENDMDL
MODEL 5
REMARK VINA RESULT:      -6.3      1.335      1.761
REMARK  Name = 
REMARK  6 active torsions:
REMARK  status: ('A' for Active; 'I' for Inactive)
REMARK    1  A    between atoms: C_1  and  C_2
REMARK    2  A    between atoms: C_9  and  C_10
REMARK    3  A    between atoms: C_13  and  N_14
REMARK    4  A    between atoms: N_14  and  N_15
REMARK    5  A    between atoms: C_16  and  C_17
REMARK    6  A    between atoms: C_16  and  C_19
REMARK                            x       y       z     vdW  Elec       q    Type
REMARK                         _______ _______ _______ _____ _____    ______ ____
ROOT
ATOM      1  C   UNL     1       9.418   1.114  23.075  0.00  0.00    -0.002 A 
ATOM      2  C   UNL     1       8.808   0.399  24.116  0.00  0.00    +0.011 A 
ATOM      3  C   UNL     1       8.423  -0.938  23.937  0.00  0.00    +0.025 A 
ATOM      4  C   UNL     1       8.655  -1.593  22.722  0.00  0.00    +0.048 A 
ATOM      5  C   UNL     1       9.275  -0.873  21.693  0.00  0.00    +0.025 A 
ATOM      6  C   UNL     1       9.654   0.465  21.863  0.00  0.00    +0.011 A 
ENDROOT
BRANCH   1   9
ATOM      7  C   UNL     1       7.629   3.709  22.518  0.00  0.00    +0.014 C 
ATOM      8  C   UNL     1       8.618   3.534  23.675  0.00  0.00    +0.046 C 
ATOM      9  C   UNL     1       9.733   2.574  23.268  0.00  0.00    +0.070 C 
ATOM     10  N   UNL     1      10.958   2.952  23.063  0.00  0.00    -0.184 NA
ATOM     11  N   UNL     1      11.308   4.240  23.272  0.00  0.00    -0.207 N 
ATOM     12  H   UNL     1      12.282   4.472  23.102  0.00  0.00    +0.177 HD
ATOM     13  C   UNL     1      10.539   5.227  23.806  0.00  0.00    +0.233 C 
ATOM     14  O   UNL     1      11.006   6.345  24.028  0.00  0.00    -0.274 OA
ATOM     15  C   UNL     1       9.121   4.892  24.154  0.00  0.00    +0.107 C 
ENDBRANCH   1   9
BRANCH   4  16
ATOM     16  N   UNL     1       8.215  -2.923  22.532  0.00  0.00    -0.236 N 
ATOM     17  H   UNL     1       7.528  -3.017  21.781  0.00  0.00    +0.174 HD
BRANCH  16  18
ATOM     18  N   UNL     1       8.143  -3.709  23.650  0.00  0.00    -0.160 NA
ATOM     19  C   UNL     1       7.041  -4.335  23.939  0.00  0.00    +0.234 C 
BRANCH  19  20
ATOM     20  C   UNL     1       7.086  -5.101  25.153  0.00  0.00    +0.132 C 
ATOM     21  N   UNL     1       7.109  -5.740  26.123  0.00  0.00    -0.188 NA
ENDBRANCH  19  20
BRANCH  19  22
ATOM     22  C   UNL     1       5.883  -4.252  23.098  0.00  0.00    +0.132 C 
ATOM     23  N   UNL     1       4.960  -4.192  22.398  0.00  0.00    -0.188 NA
ENDBRANCH  19  22
ENDBRANCH  16  18
ENDBRANCH   4  16
TORSDOF 5
ENDMDL
MODEL 6
REMARK VINA RESULT:      -6.1      3.293      8.302
REMARK  Name = 
REMARK  6 active torsions:
REMARK  status: ('A' for Active; 'I' for Inactive)
REMARK    1  A    between atoms: C_1  and  C_2
REMARK    2  A    between atoms: C_9  and  C_10
REMARK    3  A    between atoms: C_13  and  N_14
REMARK    4  A    between atoms: N_14  and  N_15
REMARK    5  A    between atoms: C_16  and  C_17
REMARK    6  A    between atoms: C_16  and  C_19
REMARK                            x       y       z     vdW  Elec       q    Type
REMARK                         _______ _______ _______ _____ _____    ______ ____
ROOT
ATOM      1  C   UNL     1       9.123  -1.111  24.540  0.00  0.00    -0.002 A 
ATOM      2  C   UNL     1       8.755   0.074  25.195  0.00  0.00    +0.011 A 
ATOM      3  C   UNL     1       9.336   1.299  24.838  0.00  0.00    +0.025 A 
ATOM      4  C   UNL     1      10.281   1.370  23.808  0.00  0.00    +0.048 A 
ATOM      5  C   UNL     1      10.633   0.183  23.153  0.00  0.00    +0.025 A 
ATOM      6  C   UNL     1      10.063  -1.045  23.512  0.00  0.00    +0.011 A 
ENDROOT
BRANCH   1   9
ATOM      7  C   UNL     1       7.144  -3.153  23.072  0.00  0.00    +0.014 C 
ATOM      8  C   UNL     1       8.302  -3.537  23.999  0.00  0.00    +0.046 C 
ATOM      9  C   UNL     1       8.553  -2.423  25.011  0.00  0.00    +0.070 C 
ATOM     10  N   UNL     1       8.287  -2.538  26.276  0.00  0.00    -0.184 NA
ATOM     11  N   UNL     1       7.823  -3.710  26.762  0.00  0.00    -0.207 N 
ATOM     12  H   UNL     1       7.641  -3.740  27.760  0.00  0.00    +0.177 HD
ATOM     13  C   UNL     1       7.696  -4.888  26.092  0.00  0.00    +0.233 C 
ATOM     14  O   UNL     1       7.341  -5.913  26.674  0.00  0.00    -0.274 OA
ATOM     15  C   UNL     1       8.044  -4.899  24.635  0.00  0.00    +0.107 C 
ENDBRANCH   1   9
BRANCH   4  16
ATOM     16  N   UNL     1      10.900   2.602  23.491  0.00  0.00    -0.236 N 
ATOM     17  H   UNL     1      11.901   2.615  23.703  0.00  0.00    +0.174 HD
BRANCH  16  18
ATOM     18  N   UNL     1      10.136   3.727  23.639  0.00  0.00    -0.160 NA
ATOM     19  C   UNL     1      10.696   4.899  23.651  0.00  0.00    +0.234 C 
BRANCH  19  20
ATOM     20  C   UNL     1       9.789   5.996  23.843  0.00  0.00    +0.132 C 
ATOM     21  N   UNL     1       9.040   6.874  23.980  0.00  0.00    -0.188 NA
ENDBRANCH  19  20
BRANCH  19  22
ATOM     22  C   UNL     1      12.110   5.063  23.485  0.00  0.00    +0.132 C 
ATOM     23  N   UNL     1      13.256   5.173  23.340  0.00  0.00    -0.188 NA
ENDBRANCH  19  22
ENDBRANCH  16  18
ENDBRANCH   4  16
TORSDOF 5
ENDMDL
MODEL 7
REMARK VINA RESULT:      -6.0      2.108      3.304
REMARK  Name = 
REMARK  6 active torsions:
REMARK  status: ('A' for Active; 'I' for Inactive)
REMARK    1  A    between atoms: C_1  and  C_2
REMARK    2  A    between atoms: C_9  and  C_10
REMARK    3  A    between atoms: C_13  and  N_14
REMARK    4  A    between atoms: N_14  and  N_15
REMARK    5  A    between atoms: C_16  and  C_17
REMARK    6  A    between atoms: C_16  and  C_19
REMARK                            x       y       z     vdW  Elec       q    Type
REMARK                         _______ _______ _______ _____ _____    ______ ____
ROOT
ATOM      1  C   UNL     1       8.894  -1.659  24.207  0.00  0.00    -0.002 A 
ATOM      2  C   UNL     1       9.717  -2.795  24.230  0.00  0.00    +0.011 A 
ATOM      3  C   UNL     1       9.216  -4.033  24.661  0.00  0.00    +0.025 A 
ATOM      4  C   UNL     1       7.881  -4.165  25.059  0.00  0.00    +0.048 A 
ATOM      5  C   UNL     1       7.065  -3.027  25.021  0.00  0.00    +0.025 A 
ATOM      6  C   UNL     1       7.562  -1.787  24.601  0.00  0.00    +0.011 A 
ENDROOT
BRANCH   1   9
ATOM      7  C   UNL     1       9.406  -0.360  21.327  0.00  0.00    +0.014 C 
ATOM      8  C   UNL     1       8.975   0.397  22.588  0.00  0.00    +0.046 C 
ATOM      9  C   UNL     1       9.487  -0.326  23.831  0.00  0.00    +0.070 C 
ATOM     10  N   UNL     1      10.428   0.143  24.591  0.00  0.00    -0.184 NA
ATOM     11  N   UNL     1      10.958   1.358  24.330  0.00  0.00    -0.207 N 
ATOM     12  H   UNL     1      11.685   1.674  24.965  0.00  0.00    +0.177 HD
ATOM     13  C   UNL     1      10.542   2.258  23.399  0.00  0.00    +0.233 C 
ATOM     14  O   UNL     1      11.056   3.373  23.319  0.00  0.00    -0.274 OA
ATOM     15  C   UNL     1       9.408   1.856  22.504  0.00  0.00    +0.107 C 
ENDBRANCH   1   9
BRANCH   4  16
ATOM     16  N   UNL     1       7.399  -5.404  25.542  0.00  0.00    -0.236 N 
ATOM     17  H   UNL     1       6.714  -5.839  24.920  0.00  0.00    +0.174 HD
BRANCH  16  18
ATOM     18  N   UNL     1       7.297  -5.534  26.900  0.00  0.00    -0.160 NA
ATOM     19  C   UNL     1       6.224  -6.039  27.429  0.00  0.00    +0.234 C 
BRANCH  19  20
ATOM     20  C   UNL     1       6.229  -6.092  28.864  0.00  0.00    +0.132 C 
ATOM     21  N   UNL     1       6.258  -6.142  30.024  0.00  0.00    -0.188 NA
ENDBRANCH  19  20
BRANCH  19  22
ATOM     22  C   UNL     1       5.130  -6.500  26.624  0.00  0.00    +0.132 C 
ATOM     23  N   UNL     1       4.256  -6.862  25.954  0.00  0.00    -0.188 NA
ENDBRANCH  19  22
ENDBRANCH  16  18
ENDBRANCH   4  16
TORSDOF 5
ENDMDL
MODEL 8
REMARK VINA RESULT:      -6.0      3.538      8.383
REMARK  Name = 
REMARK  6 active torsions:
REMARK  status: ('A' for Active; 'I' for Inactive)
REMARK    1  A    between atoms: C_1  and  C_2
REMARK    2  A    between atoms: C_9  and  C_10
REMARK    3  A    between atoms: C_13  and  N_14
REMARK    4  A    between atoms: N_14  and  N_15
REMARK    5  A    between atoms: C_16  and  C_17
REMARK    6  A    between atoms: C_16  and  C_19
REMARK                            x       y       z     vdW  Elec       q    Type
REMARK                         _______ _______ _______ _____ _____    ______ ____
ROOT
ATOM      1  C   UNL     1       8.734  -0.625  23.469  0.00  0.00    -0.002 A 
ATOM      2  C   UNL     1       9.287   0.067  22.381  0.00  0.00    +0.011 A 
ATOM      3  C   UNL     1       9.702   1.400  22.516  0.00  0.00    +0.025 A 
ATOM      4  C   UNL     1       9.592   2.062  23.745  0.00  0.00    +0.048 A 
ATOM      5  C   UNL     1       9.050   1.359  24.827  0.00  0.00    +0.025 A 
ATOM      6  C   UNL     1       8.625   0.030  24.696  0.00  0.00    +0.011 A 
ENDROOT
BRANCH   1   9
ATOM      7  C   UNL     1       9.890  -3.435  24.477  0.00  0.00    +0.014 C 
ATOM      8  C   UNL     1       8.407  -3.063  24.365  0.00  0.00    +0.046 C 
ATOM      9  C   UNL     1       8.211  -2.023  23.266  0.00  0.00    +0.070 C 
ATOM     10  N   UNL     1       7.618  -2.280  22.140  0.00  0.00    -0.184 NA
ATOM     11  N   UNL     1       7.084  -3.502  21.926  0.00  0.00    -0.207 N 
ATOM     12  H   UNL     1       6.626  -3.639  21.030  0.00  0.00    +0.177 HD
ATOM     13  C   UNL     1       6.973  -4.522  22.820  0.00  0.00    +0.233 C 
ATOM     14  O   UNL     1       6.382  -5.561  22.526  0.00  0.00    -0.274 OA
ATOM     15  C   UNL     1       7.558  -4.317  24.184  0.00  0.00    +0.107 C 
ENDBRANCH   1   9
BRANCH   4  16
ATOM     16  N   UNL     1       9.963   3.422  23.858  0.00  0.00    -0.236 N 
ATOM     17  H   UNL     1       9.166   4.061  23.828  0.00  0.00    +0.174 HD
BRANCH  16  18
ATOM     18  N   UNL     1      11.167   3.776  23.311  0.00  0.00    -0.160 NA
ATOM     19  C   UNL     1      11.596   4.998  23.412  0.00  0.00    +0.234 C 
BRANCH  19  20
ATOM     20  C   UNL     1      12.856   5.246  22.769  0.00  0.00    +0.132 C 
ATOM     21  N   UNL     1      13.863   5.454  22.228  0.00  0.00    -0.188 NA
ENDBRANCH  19  20
BRANCH  19  22
ATOM     22  C   UNL     1      10.854   6.004  24.113  0.00  0.00    +0.132 C 
ATOM     23  N   UNL     1      10.234   6.802  24.683  0.00  0.00    -0.188 NA
ENDBRANCH  19  22
ENDBRANCH  16  18
ENDBRANCH   4  16
TORSDOF 5
ENDMDL
MODEL 9
REMARK VINA RESULT:      -5.9      2.451      3.723
REMARK  Name = 
REMARK  6 active torsions:
REMARK  status: ('A' for Active; 'I' for Inactive)
REMARK    1  A    between atoms: C_1  and  C_2
REMARK    2  A    between atoms: C_9  and  C_10
REMARK    3  A    between atoms: C_13  and  N_14
REMARK    4  A    between atoms: N_14  and  N_15
REMARK    5  A    between atoms: C_16  and  C_17
REMARK    6  A    between atoms: C_16  and  C_19
REMARK                            x       y       z     vdW  Elec       q    Type
REMARK                         _______ _______ _______ _____ _____    ______ ____
ROOT
ATOM      1  C   UNL     1       8.712  -1.575  24.027  0.00  0.00    -0.002 A 
ATOM      2  C   UNL     1       9.501  -2.725  24.177  0.00  0.00    +0.011 A 
ATOM      3  C   UNL     1       8.921  -3.951  24.536  0.00  0.00    +0.025 A 
ATOM      4  C   UNL     1       7.540  -4.057  24.734  0.00  0.00    +0.048 A 
ATOM      5  C   UNL     1       6.759  -2.906  24.571  0.00  0.00    +0.025 A 
ATOM      6  C   UNL     1       7.334  -1.677  24.221  0.00  0.00    +0.011 A 
ENDROOT
BRANCH   1   9
ATOM      7  C   UNL     1       9.345  -0.151  21.232  0.00  0.00    +0.014 C 
ATOM      8  C   UNL     1       8.927   0.558  22.524  0.00  0.00    +0.046 C 
ATOM      9  C   UNL     1       9.377  -0.256  23.735  0.00  0.00    +0.070 C 
ATOM     10  N   UNL     1      10.325   0.124  24.536  0.00  0.00    -0.184 NA
ATOM     11  N   UNL     1      10.919   1.323  24.352  0.00  0.00    -0.207 N 
ATOM     12  H   UNL     1      11.647   1.568  25.015  0.00  0.00    +0.177 HD
ATOM     13  C   UNL     1      10.566   2.291  23.463  0.00  0.00    +0.233 C 
ATOM     14  O   UNL     1      11.136   3.382  23.453  0.00  0.00    -0.274 OA
ATOM     15  C   UNL     1       9.432   1.996  22.528  0.00  0.00    +0.107 C 
ENDBRANCH   1   9
BRANCH   4  16
ATOM     16  N   UNL     1       6.971  -5.284  25.148  0.00  0.00    -0.236 N 
ATOM     17  H   UNL     1       7.669  -5.983  25.413  0.00  0.00    +0.174 HD
BRANCH  16  18
ATOM     18  N   UNL     1       5.804  -5.655  24.536  0.00  0.00    -0.160 NA
ATOM     19  C   UNL     1       4.914  -6.341  25.188  0.00  0.00    +0.234 C 
BRANCH  19  20
ATOM     20  C   UNL     1       3.750  -6.693  24.425  0.00  0.00    +0.132 C 
ATOM     21  N   UNL     1       2.793  -6.966  23.824  0.00  0.00    -0.188 NA
ENDBRANCH  19  20
BRANCH  19  22
ATOM     22  C   UNL     1       5.100  -6.708  26.561  0.00  0.00    +0.132 C 
ATOM     23  N   UNL     1       5.264  -6.984  27.676  0.00  0.00    -0.188 NA
ENDBRANCH  19  22
ENDBRANCH  16  18
ENDBRANCH   4  16
TORSDOF 5
ENDMDL
