MODEL 1
REMARK VINA RESULT:      -4.4      0.000      0.000
REMARK  Name = 
REMARK  20 active torsions:
REMARK  status: ('A' for Active; 'I' for Inactive)
REMARK    1  A    between atoms: NZ_1  and  CE_2
REMARK    2  A    between atoms: CE_2  and  CD_3
REMARK    3  A    between atoms: CD_3  and  CG_4
REMARK    4  A    between atoms: CG_4  and  CB_5
REMARK    5  A    between atoms: CB_5  and  CA_6
REMARK    6  A    between atoms: CA_11  and  CB_13
REMARK    7  A    between atoms: CB_13  and  CG_14
REMARK    8  A    between atoms: C_26  and  C_79
REMARK    9  A    between atoms: C_34  and  O_72
REMARK   10  A    between atoms: CA_40  and  CB_42
REMARK   11  A    between atoms: CB_42  and  CG_43
REMARK   12  A    between atoms: C_52  and  C_54
REMARK   13  A    between atoms: C_54  and  C_55
REMARK   14  A    between atoms: C_58  and  O_59
REMARK   15  A    between atoms: O_59  and  C_60
REMARK   16  A    between atoms: C_60  and  C_61
REMARK   17  A    between atoms: O_72  and  C_73
REMARK   18  A    between atoms: N_75  and  C_76
REMARK   19  A    between atoms: C_76  and  C_77
REMARK   20  A    between atoms: C_77  and  N_78
REMARK                            x       y       z     vdW  Elec       q    Type
REMARK                         _______ _______ _______ _____ _____    ______ ____
ROOT
ATOM      1  CA  LYS A   6       7.080  -0.963  22.792  0.00  0.00    +0.159 C 
ATOM      2  C   LYS A   6       5.729  -1.858  23.772  0.00  0.00    +0.234 C 
ATOM      3  O   LYS A   6       5.306  -2.865  23.179  0.00  0.00    -0.274 OA
ATOM      4  N   UNK A   1       5.040  -1.685  25.079  0.00  0.00    -0.302 N 
ATOM      5  H   UNK A   1       4.561  -2.568  25.188  0.00  0.00    +0.150 HD
ATOM      6  C   UNK A   1       4.519  -0.616  26.279  0.00  0.00    +0.163 C 
ATOM      7  C   UNK A   1       5.035  -0.144  27.857  0.00  0.00    +0.234 C 
ATOM      8  O   UNK A   1       5.399  -0.983  28.712  0.00  0.00    -0.274 OA
ATOM      9  N   PHE A   2       4.854   1.261  28.285  0.00  0.00    -0.302 N 
ATOM     10  H   PHE A   2       4.015   1.746  27.999  0.00  0.00    +0.150 HD
ATOM     11  CA  PHE A   2       6.045   2.231  28.745  0.00  0.00    +0.163 C 
ATOM     12  C   PHE A   2       6.078   3.768  29.251  0.00  0.00    +0.237 C 
ATOM     13  O   PHE A   2       5.978   3.923  30.480  0.00  0.00    -0.274 OA
ATOM     14  N   UNK A   3       6.275   4.946  28.409  0.00  0.00    -0.285 N 
ATOM     15  C   UNK A   3       6.076   5.205  26.915  0.00  0.00    +0.166 C 
ATOM     16  C   UNK A   3       4.782   6.051  26.894  0.00  0.00    +0.078 C 
ATOM     17  C   UNK A   3       4.364   6.161  28.369  0.00  0.00    +0.198 C 
ATOM     18  C   UNK A   3       7.192   5.908  25.994  0.00  0.00    +0.235 C 
ATOM     19  O   UNK A   3       8.209   6.437  26.439  0.00  0.00    -0.274 OA
ATOM     20  N   UNK A   4       6.875   5.813  24.640  0.00  0.00    -0.299 N 
ATOM     21  H   UNK A   4       5.942   6.148  24.408  0.00  0.00    +0.150 HD
ATOM     22  C   UNK A   4       7.774   5.930  23.458  0.00  0.00    +0.190 C 
ATOM     23  C   UNK A   4       6.932   5.341  22.222  0.00  0.00    +0.238 C 
ATOM     24  O   UNK A   4       5.863   5.898  21.931  0.00  0.00    -0.273 OA
ATOM     25  N   TRP A   5       7.233   4.084  21.699  0.00  0.00    -0.302 N 
ATOM     26  H   TRP A   5       8.205   3.826  21.555  0.00  0.00    +0.150 HD
ATOM     27  CA  TRP A   5       6.256   2.914  21.684  0.00  0.00    +0.163 C 
ATOM     28  C   TRP A   5       7.085   1.531  21.795  0.00  0.00    +0.234 C 
ATOM     29  O   TRP A   5       8.283   1.562  21.499  0.00  0.00    -0.274 OA
ATOM     30  C   UNK A   3       5.748   6.152  29.037  0.00  0.00    +0.153 C 
ATOM     31  N   LYS A   6       6.448   0.357  22.222  0.00  0.00    -0.302 N 
ATOM     32  H   LYS A   6       5.479   0.244  21.944  0.00  0.00    +0.150 HD
ENDROOT
BRANCH  22  33
ATOM     33  C   UNK A   4       9.147   5.326  23.649  0.00  0.00    -0.018 A 
ATOM     34  C   UNK A   4      10.266   6.172  23.652  0.00  0.00    +0.006 A 
ATOM     35  C   UNK A   4      11.555   5.646  23.564  0.00  0.00    +0.000 A 
ATOM     36  C   UNK A   4      11.738   4.268  23.507  0.00  0.00    +0.000 A 
ATOM     37  C   UNK A   4      10.647   3.419  23.650  0.00  0.00    +0.000 A 
ATOM     38  C   UNK A   4       9.368   3.951  23.776  0.00  0.00    +0.006 A 
ENDBRANCH  22  33
BRANCH   6  39
ATOM     39  C   UNK A   1       2.968  -0.829  26.399  0.00  0.00    +0.067 C 
BRANCH  39  40
ATOM     40  C   UNK A   1       2.284  -2.147  26.770  0.00  0.00    -0.045 A 
ATOM     41  C   UNK A   1       2.394  -2.673  28.069  0.00  0.00    +0.007 A 
ATOM     42  C   UNK A   1       2.078  -4.012  28.332  0.00  0.00    +0.046 A 
ATOM     43  C   UNK A   1       1.650  -4.829  27.271  0.00  0.00    +0.121 A 
ATOM     44  C   UNK A   1       1.421  -4.298  26.023  0.00  0.00    +0.046 A 
ATOM     45  C   UNK A   1       1.752  -2.957  25.760  0.00  0.00    +0.007 A 
BRANCH  43  46
ATOM     46  O   UNK A   1       1.513  -6.170  27.545  0.00  0.00    -0.487 OA
BRANCH  46  47
ATOM     47  C   UNK A   1       2.778  -6.802  27.811  0.00  0.00    +0.264 C 
BRANCH  47  48
ATOM     48  C   UNK A   1       3.652  -6.608  26.613  0.00  0.00    -0.010 A 
ATOM     49  C   UNK A   1       4.798  -5.795  26.711  0.00  0.00    +0.007 A 
ATOM     50  C   UNK A   1       5.626  -5.667  25.609  0.00  0.00    +0.000 A 
ATOM     51  C   UNK A   1       5.327  -6.312  24.416  0.00  0.00    +0.000 A 
ATOM     52  C   UNK A   1       4.191  -7.114  24.321  0.00  0.00    +0.000 A 
ATOM     53  C   UNK A   1       3.352  -7.258  25.418  0.00  0.00    +0.007 A 
ENDBRANCH  47  48
ENDBRANCH  46  47
ENDBRANCH  43  46
ENDBRANCH  39  40
ENDBRANCH   6  39
BRANCH   1  54
ATOM     54  CB  LYS A   6       8.732  -0.661  23.196  0.00  0.00    +0.032 C 
BRANCH  54  55
ATOM     55  CG  LYS A   6       9.997  -1.590  23.012  0.00  0.00    +0.003 C 
BRANCH  55  56
ATOM     56  CD  LYS A   6      10.156  -2.891  23.931  0.00  0.00    +0.015 C 
BRANCH  56  57
ATOM     57  CE  LYS A   6       8.938  -3.770  24.337  0.00  0.00    +0.077 C 
BRANCH  57  58
ATOM     58  NZ  LYS A   6       8.202  -4.434  23.264  0.00  0.00    -0.330 NA
ATOM     59  HZ1 LYS A   6       7.728  -3.724  22.698  0.00  0.00    +0.118 HD
ATOM     60  HZ2 LYS A   6       8.880  -4.841  22.612  0.00  0.00    +0.118 HD
ENDBRANCH  57  58
ENDBRANCH  56  57
ENDBRANCH  55  56
ENDBRANCH  54  55
ENDBRANCH   1  54
BRANCH  11  61
ATOM     61  CB  PHE A   2       6.913   2.417  27.565  0.00  0.00    +0.067 C 
BRANCH  61  62
ATOM     62  CG  PHE A   2       7.918   1.388  27.335  0.00  0.00    -0.045 A 
ATOM     63  CD2 PHE A   2       7.986   1.217  25.997  0.00  0.00    +0.004 A 
ATOM     64  CE2 PHE A   2       8.067  -0.080  25.705  0.00  0.00    +0.000 A 
ATOM     65  CZ  PHE A   2       8.626  -1.056  26.543  0.00  0.00    +0.000 A 
ATOM     66  CE1 PHE A   2       8.769  -0.796  27.865  0.00  0.00    +0.000 A 
ATOM     67  CD1 PHE A   2       8.375   0.454  28.285  0.00  0.00    +0.004 A 
ENDBRANCH  61  62
ENDBRANCH  11  61
BRANCH  17  68
ATOM     68  O   UNK A   3       3.683   4.989  28.916  0.00  0.00    -0.445 OA
BRANCH  68  69
ATOM     69  C   UNK A   3       2.351   4.871  29.041  0.00  0.00    +0.401 C 
ATOM     70  N   UNK A   3       1.995   3.595  28.709  0.00  0.00    -0.280 N 
ATOM     71  H   UNK A   3       2.736   2.935  28.485  0.00  0.00    +0.152 HD
ATOM     72  O   UNK A   3       1.589   5.764  29.359  0.00  0.00    -0.226 OA
BRANCH  70  73
ATOM     73  C   UNK A   3       0.643   3.077  28.805  0.00  0.00    +0.122 C 
BRANCH  73  74
ATOM     74  C   UNK A   3       0.593   1.651  29.384  0.00  0.00    +0.096 C 
BRANCH  74  75
ATOM     75  N   UNK A   3       1.920   1.095  29.660  0.00  0.00    -0.329 NA
ATOM     76  H   UNK A   3       2.281   0.657  28.810  0.00  0.00    +0.118 HD
ATOM     77  H   UNK A   3       2.579   1.837  29.880  0.00  0.00    +0.118 HD
ENDBRANCH  74  75
ENDBRANCH  73  74
ENDBRANCH  70  73
ENDBRANCH  68  69
ENDBRANCH  17  68
BRANCH  27  78
ATOM     78  CB  TRP A   5       5.302   3.137  22.849  0.00  0.00    +0.069 C 
BRANCH  78  79
ATOM     79  CG  TRP A   5       3.869   3.380  22.618  0.00  0.00    -0.020 A 
ATOM     80  CD2 TRP A   5       2.813   3.679  23.530  0.00  0.00    +0.003 A 
ATOM     81  CE3 TRP A   5       2.700   3.833  24.929  0.00  0.00    +0.010 A 
ATOM     82  CZ3 TRP A   5       1.505   4.337  25.469  0.00  0.00    +0.001 A 
ATOM     83  CH2 TRP A   5       0.443   4.680  24.625  0.00  0.00    +0.002 A 
ATOM     84  CZ2 TRP A   5       0.512   4.485  23.254  0.00  0.00    +0.026 A 
ATOM     85  CE2 TRP A   5       1.691   3.939  22.751  0.00  0.00    +0.047 A 
ATOM     86  NE1 TRP A   5       1.981   3.503  21.490  0.00  0.00    -0.360 N 
ATOM     87  HE1 TRP A   5       1.301   3.435  20.749  0.00  0.00    +0.165 HD
ATOM     88  CD1 TRP A   5       3.313   3.282  21.360  0.00  0.00    +0.087 A 
ENDBRANCH  78  79
ENDBRANCH  27  78
TORSDOF 20
ENDMDL
MODEL 2
REMARK VINA RESULT:      -2.4      2.244      5.984
REMARK  Name = 
REMARK  20 active torsions:
REMARK  status: ('A' for Active; 'I' for Inactive)
REMARK    1  A    between atoms: NZ_1  and  CE_2
REMARK    2  A    between atoms: CE_2  and  CD_3
REMARK    3  A    between atoms: CD_3  and  CG_4
REMARK    4  A    between atoms: CG_4  and  CB_5
REMARK    5  A    between atoms: CB_5  and  CA_6
REMARK    6  A    between atoms: CA_11  and  CB_13
REMARK    7  A    between atoms: CB_13  and  CG_14
REMARK    8  A    between atoms: C_26  and  C_79
REMARK    9  A    between atoms: C_34  and  O_72
REMARK   10  A    between atoms: CA_40  and  CB_42
REMARK   11  A    between atoms: CB_42  and  CG_43
REMARK   12  A    between atoms: C_52  and  C_54
REMARK   13  A    between atoms: C_54  and  C_55
REMARK   14  A    between atoms: C_58  and  O_59
REMARK   15  A    between atoms: O_59  and  C_60
REMARK   16  A    between atoms: C_60  and  C_61
REMARK   17  A    between atoms: O_72  and  C_73
REMARK   18  A    between atoms: N_75  and  C_76
REMARK   19  A    between atoms: C_76  and  C_77
REMARK   20  A    between atoms: C_77  and  N_78
REMARK                            x       y       z     vdW  Elec       q    Type
REMARK                         _______ _______ _______ _____ _____    ______ ____
ROOT
ATOM      1  CA  LYS A   6       9.842   3.349  23.487  0.00  0.00    +0.159 C 
ATOM      2  C   LYS A   6      10.720   1.791  24.110  0.00  0.00    +0.234 C 
ATOM      3  O   LYS A   6      11.770   1.561  23.487  0.00  0.00    -0.274 OA
ATOM      4  N   UNK A   1      10.493   0.765  25.165  0.00  0.00    -0.302 N 
ATOM      5  H   UNK A   1      11.382   0.286  25.192  0.00  0.00    +0.150 HD
ATOM      6  C   UNK A   1       9.375  -0.079  26.107  0.00  0.00    +0.163 C 
ATOM      7  C   UNK A   1       8.801  -0.025  27.733  0.00  0.00    +0.234 C 
ATOM      8  O   UNK A   1       9.580   0.099  28.706  0.00  0.00    -0.274 OA
ATOM      9  N   PHE A   2       7.380  -0.334  28.009  0.00  0.00    -0.302 N 
ATOM     10  H   PHE A   2       6.936  -1.067  27.474  0.00  0.00    +0.150 HD
ATOM     11  CA  PHE A   2       6.352   0.672  28.717  0.00  0.00    +0.163 C 
ATOM     12  C   PHE A   2       4.789   0.545  29.117  0.00  0.00    +0.237 C 
ATOM     13  O   PHE A   2       4.569   0.107  30.259  0.00  0.00    -0.274 OA
ATOM     14  N   UNK A   3       3.655   0.953  28.291  0.00  0.00    -0.285 N 
ATOM     15  C   UNK A   3       3.485   1.170  26.787  0.00  0.00    +0.166 C 
ATOM     16  C   UNK A   3       2.679  -0.077  26.359  0.00  0.00    +0.078 C 
ATOM     17  C   UNK A   3       2.499  -0.888  27.652  0.00  0.00    +0.198 C 
ATOM     18  C   UNK A   3       2.803   2.489  26.167  0.00  0.00    +0.235 C 
ATOM     19  O   UNK A   3       2.221   3.337  26.841  0.00  0.00    -0.274 OA
ATOM     20  N   UNK A   4       2.982   2.560  24.787  0.00  0.00    -0.299 N 
ATOM     21  H   UNK A   4       2.688   1.723  24.286  0.00  0.00    +0.150 HD
ATOM     22  C   UNK A   4       2.906   3.748  23.892  0.00  0.00    +0.190 C 
ATOM     23  C   UNK A   4       3.587   3.288  22.511  0.00  0.00    +0.238 C 
ATOM     24  O   UNK A   4       3.078   2.334  21.904  0.00  0.00    -0.273 OA
ATOM     25  N   TRP A   5       4.862   3.736  22.169  0.00  0.00    -0.302 N 
ATOM     26  H   TRP A   5       5.099   4.714  22.314  0.00  0.00    +0.150 HD
ATOM     27  CA  TRP A   5       6.058   2.816  21.958  0.00  0.00    +0.163 C 
ATOM     28  C   TRP A   5       7.408   3.599  22.378  0.00  0.00    +0.234 C 
ATOM     29  O   TRP A   5       7.360   4.831  22.421  0.00  0.00    -0.274 OA
ATOM     30  C   UNK A   3       2.431   0.258  28.674  0.00  0.00    +0.153 C 
ATOM     31  N   LYS A   6       8.575   2.883  22.685  0.00  0.00    -0.302 N 
ATOM     32  H   LYS A   6       8.730   2.030  22.158  0.00  0.00    +0.150 HD
ENDROOT
BRANCH  22  33
ATOM     33  C   UNK A   4       3.458   5.022  24.490  0.00  0.00    -0.018 A 
ATOM     34  C   UNK A   4       4.848   5.170  24.608  0.00  0.00    +0.006 A 
ATOM     35  C   UNK A   4       5.390   6.198  25.380  0.00  0.00    +0.000 A 
ATOM     36  C   UNK A   4       4.548   7.108  26.011  0.00  0.00    +0.000 A 
ATOM     37  C   UNK A   4       3.178   7.057  25.782  0.00  0.00    +0.000 A 
ATOM     38  C   UNK A   4       2.648   6.052  24.980  0.00  0.00    +0.006 A 
ENDBRANCH  22  33
BRANCH   6  39
ATOM     39  C   UNK A   1       9.625  -1.600  25.809  0.00  0.00    +0.067 C 
BRANCH  39  40
ATOM     40  C   UNK A   1       8.555  -2.694  25.846  0.00  0.00    -0.045 A 
ATOM     41  C   UNK A   1       7.367  -2.514  26.578  0.00  0.00    +0.007 A 
ATOM     42  C   UNK A   1       6.551  -3.604  26.904  0.00  0.00    +0.046 A 
ATOM     43  C   UNK A   1       6.938  -4.890  26.490  0.00  0.00    +0.121 A 
ATOM     44  C   UNK A   1       8.029  -5.065  25.671  0.00  0.00    +0.046 A 
ATOM     45  C   UNK A   1       8.854  -3.971  25.357  0.00  0.00    +0.007 A 
BRANCH  43  46
ATOM     46  O   UNK A   1       6.196  -5.941  26.974  0.00  0.00    -0.487 OA
BRANCH  46  47
ATOM     47  C   UNK A   1       4.802  -5.605  27.106  0.00  0.00    +0.264 C 
BRANCH  47  48
ATOM     48  C   UNK A   1       4.044  -6.358  26.059  0.00  0.00    -0.010 A 
ATOM     49  C   UNK A   1       2.791  -6.918  26.374  0.00  0.00    +0.007 A 
ATOM     50  C   UNK A   1       2.078  -7.566  25.380  0.00  0.00    +0.000 A 
ATOM     51  C   UNK A   1       2.593  -7.682  24.095  0.00  0.00    +0.000 A 
ATOM     52  C   UNK A   1       3.834  -7.130  23.787  0.00  0.00    +0.000 A 
ATOM     53  C   UNK A   1       4.562  -6.471  24.770  0.00  0.00    +0.007 A 
ENDBRANCH  47  48
ENDBRANCH  46  47
ENDBRANCH  43  46
ENDBRANCH  39  40
ENDBRANCH   6  39
BRANCH   1  54
ATOM     54  CB  LYS A   6       9.471   4.821  24.309  0.00  0.00    +0.032 C 
BRANCH  54  55
ATOM     55  CG  LYS A   6      10.264   6.187  24.331  0.00  0.00    +0.003 C 
BRANCH  55  56
ATOM     56  CD  LYS A   6      11.857   6.169  24.480  0.00  0.00    +0.015 C 
BRANCH  56  57
ATOM     57  CE  LYS A   6      12.767   5.338  23.528  0.00  0.00    +0.077 C 
BRANCH  57  58
ATOM     58  NZ  LYS A   6      12.429   5.340  22.107  0.00  0.00    -0.330 NA
ATOM     59  HZ1 LYS A   6      12.033   6.252  21.860  0.00  0.00    +0.118 HD
ATOM     60  HZ2 LYS A   6      13.302   5.309  21.569  0.00  0.00    +0.118 HD
ENDBRANCH  57  58
ENDBRANCH  56  57
ENDBRANCH  55  56
ENDBRANCH  54  55
ENDBRANCH   1  54
BRANCH  11  61
ATOM     61  CB  PHE A   2       6.207   1.829  27.812  0.00  0.00    +0.067 C 
BRANCH  61  62
ATOM     62  CG  PHE A   2       6.843   3.068  28.242  0.00  0.00    -0.045 A 
ATOM     63  CD2 PHE A   2       6.437   3.282  29.512  0.00  0.00    +0.004 A 
ATOM     64  CE2 PHE A   2       6.144   4.569  29.687  0.00  0.00    +0.000 A 
ATOM     65  CZ  PHE A   2       6.727   5.628  28.974  0.00  0.00    +0.000 A 
ATOM     66  CE1 PHE A   2       7.341   5.375  27.793  0.00  0.00    +0.000 A 
ATOM     67  CD1 PHE A   2       7.377   4.058  27.395  0.00  0.00    +0.004 A 
ENDBRANCH  61  62
ENDBRANCH  11  61
BRANCH  17  68
ATOM     68  O   UNK A   3       3.658  -1.679  28.063  0.00  0.00    -0.445 OA
BRANCH  68  69
ATOM     69  C   UNK A   3       3.615  -2.694  28.940  0.00  0.00    +0.401 C 
ATOM     70  N   UNK A   3       2.316  -2.897  29.308  0.00  0.00    -0.280 N 
ATOM     71  H   UNK A   3       1.599  -2.333  28.856  0.00  0.00    +0.152 HD
ATOM     72  O   UNK A   3       4.579  -3.303  29.366  0.00  0.00    -0.226 OA
BRANCH  70  73
ATOM     73  C   UNK A   3       1.874  -3.967  30.183  0.00  0.00    +0.122 C 
BRANCH  73  74
ATOM     74  C   UNK A   3       1.638  -5.289  29.431  0.00  0.00    +0.096 C 
BRANCH  74  75
ATOM     75  N   UNK A   3       0.448  -5.263  28.577  0.00  0.00    -0.329 NA
ATOM     76  H   UNK A   3       0.122  -6.221  28.432  0.00  0.00    +0.118 HD
ATOM     77  H   UNK A   3      -0.318  -4.788  29.048  0.00  0.00    +0.118 HD
ENDBRANCH  74  75
ENDBRANCH  73  74
ENDBRANCH  70  73
ENDBRANCH  68  69
ENDBRANCH  17  68
BRANCH  27  78
ATOM     78  CB  TRP A   5       5.798   1.575  22.800  0.00  0.00    +0.069 C 
BRANCH  78  79
ATOM     79  CG  TRP A   5       6.623   0.366  22.641  0.00  0.00    -0.020 A 
ATOM     80  CD2 TRP A   5       6.364  -0.994  22.985  0.00  0.00    +0.003 A 
ATOM     81  CE3 TRP A   5       5.302  -1.697  23.597  0.00  0.00    +0.010 A 
ATOM     82  CZ3 TRP A   5       5.316  -3.102  23.590  0.00  0.00    +0.001 A 
ATOM     83  CH2 TRP A   5       6.372  -3.790  22.985  0.00  0.00    +0.002 A 
ATOM     84  CZ2 TRP A   5       7.452  -3.122  22.427  0.00  0.00    +0.026 A 
ATOM     85  CE2 TRP A   5       7.435  -1.730  22.491  0.00  0.00    +0.047 A 
ATOM     86  NE1 TRP A   5       8.411  -0.830  22.169  0.00  0.00    -0.360 N 
ATOM     87  HE1 TRP A   5       9.353  -1.090  21.920  0.00  0.00    +0.165 HD
ATOM     88  CD1 TRP A   5       7.904   0.427  22.133  0.00  0.00    +0.087 A 
ENDBRANCH  78  79
ENDBRANCH  27  78
TORSDOF 20
ENDMDL
MODEL 3
REMARK VINA RESULT:      -1.7      2.233      6.438
REMARK  Name = 
REMARK  20 active torsions:
REMARK  status: ('A' for Active; 'I' for Inactive)
REMARK    1  A    between atoms: NZ_1  and  CE_2
REMARK    2  A    between atoms: CE_2  and  CD_3
REMARK    3  A    between atoms: CD_3  and  CG_4
REMARK    4  A    between atoms: CG_4  and  CB_5
REMARK    5  A    between atoms: CB_5  and  CA_6
REMARK    6  A    between atoms: CA_11  and  CB_13
REMARK    7  A    between atoms: CB_13  and  CG_14
REMARK    8  A    between atoms: C_26  and  C_79
REMARK    9  A    between atoms: C_34  and  O_72
REMARK   10  A    between atoms: CA_40  and  CB_42
REMARK   11  A    between atoms: CB_42  and  CG_43
REMARK   12  A    between atoms: C_52  and  C_54
REMARK   13  A    between atoms: C_54  and  C_55
REMARK   14  A    between atoms: C_58  and  O_59
REMARK   15  A    between atoms: O_59  and  C_60
REMARK   16  A    between atoms: C_60  and  C_61
REMARK   17  A    between atoms: O_72  and  C_73
REMARK   18  A    between atoms: N_75  and  C_76
REMARK   19  A    between atoms: C_76  and  C_77
REMARK   20  A    between atoms: C_77  and  N_78
REMARK                            x       y       z     vdW  Elec       q    Type
REMARK                         _______ _______ _______ _____ _____    ______ ____
ROOT
ATOM      1  CA  LYS A   6       8.736   4.190  24.063  0.00  0.00    +0.159 C 
ATOM      2  C   LYS A   6       9.775   2.672  24.514  0.00  0.00    +0.234 C 
ATOM      3  O   LYS A   6      10.833   2.616  23.865  0.00  0.00    -0.274 OA
ATOM      4  N   UNK A   1       9.669   1.523  25.454  0.00  0.00    -0.302 N 
ATOM      5  H   UNK A   1      10.602   1.137  25.427  0.00  0.00    +0.150 HD
ATOM      6  C   UNK A   1       8.656   0.476  26.307  0.00  0.00    +0.163 C 
ATOM      7  C   UNK A   1       8.105   0.300  27.933  0.00  0.00    +0.234 C 
ATOM      8  O   UNK A   1       8.883   0.400  28.909  0.00  0.00    -0.274 OA
ATOM      9  N   PHE A   2       6.727  -0.179  28.181  0.00  0.00    -0.302 N 
ATOM     10  H   PHE A   2       6.350  -0.893  27.573  0.00  0.00    +0.150 HD
ATOM     11  CA  PHE A   2       5.614   0.638  28.997  0.00  0.00    +0.163 C 
ATOM     12  C   PHE A   2       4.078   0.312  29.389  0.00  0.00    +0.237 C 
ATOM     13  O   PHE A   2       3.921  -0.264  30.479  0.00  0.00    -0.274 OA
ATOM     14  N   UNK A   3       2.896   0.686  28.616  0.00  0.00    -0.285 N 
ATOM     15  C   UNK A   3       2.682   1.042  27.144  0.00  0.00    +0.166 C 
ATOM     16  C   UNK A   3       1.999  -0.229  26.590  0.00  0.00    +0.078 C 
ATOM     17  C   UNK A   3       1.921  -1.185  27.791  0.00  0.00    +0.198 C 
ATOM     18  C   UNK A   3       1.861   2.343  26.670  0.00  0.00    +0.235 C 
ATOM     19  O   UNK A   3       1.208   3.052  27.434  0.00  0.00    -0.274 OA
ATOM     20  N   UNK A   4       2.011   2.575  25.305  0.00  0.00    -0.299 N 
ATOM     21  H   UNK A   4       1.794   1.770  24.720  0.00  0.00    +0.150 HD
ATOM     22  C   UNK A   4       1.802   3.837  24.542  0.00  0.00    +0.190 C 
ATOM     23  C   UNK A   4       2.504   3.596  23.117  0.00  0.00    +0.238 C 
ATOM     24  O   UNK A   4       2.084   2.664  22.414  0.00  0.00    -0.273 OA
ATOM     25  N   TRP A   5       3.722   4.205  22.817  0.00  0.00    -0.302 N 
ATOM     26  H   TRP A   5       3.862   5.181  23.064  0.00  0.00    +0.150 HD
ATOM     27  CA  TRP A   5       5.001   3.438  22.504  0.00  0.00    +0.163 C 
ATOM     28  C   TRP A   5       6.272   4.306  22.999  0.00  0.00    +0.234 C 
ATOM     29  O   TRP A   5       6.101   5.516  23.173  0.00  0.00    -0.274 OA
ATOM     30  C   UNK A   3       1.754  -0.165  28.929  0.00  0.00    +0.153 C 
ATOM     31  N   LYS A   6       7.509   3.684  23.222  0.00  0.00    -0.302 N 
ATOM     32  H   LYS A   6       7.742   2.912  22.607  0.00  0.00    +0.150 HD
ENDROOT
BRANCH  22  33
ATOM     33  C   UNK A   4       2.233   5.091  25.269  0.00  0.00    -0.018 A 
ATOM     34  C   UNK A   4       3.602   5.343  25.434  0.00  0.00    +0.006 A 
ATOM     35  C   UNK A   4       4.041   6.335  26.311  0.00  0.00    +0.000 A 
ATOM     36  C   UNK A   4       3.114   7.108  27.003  0.00  0.00    +0.000 A 
ATOM     37  C   UNK A   4       1.757   6.964  26.736  0.00  0.00    +0.000 A 
ATOM     38  C   UNK A   4       1.329   5.998  25.832  0.00  0.00    +0.006 A 
ENDBRANCH  22  33
BRANCH   6  39
ATOM     39  C   UNK A   1       9.053  -0.972  25.849  0.00  0.00    +0.067 C 
BRANCH  39  40
ATOM     40  C   UNK A   1       8.069  -2.061  25.412  0.00  0.00    -0.045 A 
ATOM     41  C   UNK A   1       6.690  -1.922  25.654  0.00  0.00    +0.007 A 
ATOM     42  C   UNK A   1       5.833  -3.027  25.580  0.00  0.00    +0.046 A 
ATOM     43  C   UNK A   1       6.373  -4.285  25.261  0.00  0.00    +0.121 A 
ATOM     44  C   UNK A   1       7.695  -4.412  24.903  0.00  0.00    +0.046 A 
ATOM     45  C   UNK A   1       8.555  -3.304  24.991  0.00  0.00    +0.007 A 
BRANCH  43  46
ATOM     46  O   UNK A   1       5.524  -5.362  25.363  0.00  0.00    -0.487 OA
BRANCH  46  47
ATOM     47  C   UNK A   1       4.954  -5.727  24.093  0.00  0.00    +0.264 C 
BRANCH  47  48
ATOM     48  C   UNK A   1       3.500  -5.377  24.121  0.00  0.00    -0.010 A 
ATOM     49  C   UNK A   1       2.619  -5.989  23.208  0.00  0.00    +0.007 A 
ATOM     50  C   UNK A   1       1.269  -5.695  23.281  0.00  0.00    +0.000 A 
ATOM     51  C   UNK A   1       0.785  -4.797  24.224  0.00  0.00    +0.000 A 
ATOM     52  C   UNK A   1       1.660  -4.191  25.124  0.00  0.00    +0.000 A 
ATOM     53  C   UNK A   1       3.018  -4.478  25.070  0.00  0.00    +0.007 A 
ENDBRANCH  47  48
ENDBRANCH  46  47
ENDBRANCH  43  46
ENDBRANCH  39  40
ENDBRANCH   6  39
BRANCH   1  54
ATOM     54  CB  LYS A   6       8.231   5.522  25.039  0.00  0.00    +0.032 C 
BRANCH  54  55
ATOM     55  CG  LYS A   6       9.103   6.609  25.782  0.00  0.00    +0.003 C 
BRANCH  55  56
ATOM     56  CD  LYS A   6      10.700   6.506  25.731  0.00  0.00    +0.015 C 
BRANCH  56  57
ATOM     57  CE  LYS A   6      11.500   6.727  24.415  0.00  0.00    +0.077 C 
BRANCH  57  58
ATOM     58  NZ  LYS A   6      11.170   5.874  23.277  0.00  0.00    -0.330 NA
ATOM     59  HZ1 LYS A   6      11.074   6.457  22.441  0.00  0.00    +0.118 HD
ATOM     60  HZ2 LYS A   6      11.985   5.290  23.065  0.00  0.00    +0.118 HD
ENDBRANCH  57  58
ENDBRANCH  56  57
ENDBRANCH  55  56
ENDBRANCH  54  55
ENDBRANCH   1  54
BRANCH  11  61
ATOM     61  CB  PHE A   2       5.340   1.863  28.221  0.00  0.00    +0.067 C 
BRANCH  61  62
ATOM     62  CG  PHE A   2       6.148   3.029  28.549  0.00  0.00    -0.045 A 
ATOM     63  CD2 PHE A   2       6.291   3.026  29.892  0.00  0.00    +0.004 A 
ATOM     64  CE2 PHE A   2       6.150   4.261  30.370  0.00  0.00    +0.000 A 
ATOM     65  CZ  PHE A   2       6.446   5.434  29.660  0.00  0.00    +0.000 A 
ATOM     66  CE1 PHE A   2       6.527   5.390  28.308  0.00  0.00    +0.000 A 
ATOM     67  CD1 PHE A   2       6.343   4.156  27.727  0.00  0.00    +0.004 A 
ENDBRANCH  61  62
ENDBRANCH  11  61
BRANCH  17  68
ATOM     68  O   UNK A   3       3.160  -1.893  28.110  0.00  0.00    -0.445 OA
BRANCH  68  69
ATOM     69  C   UNK A   3       3.225  -3.038  28.808  0.00  0.00    +0.401 C 
ATOM     70  N   UNK A   3       4.355  -3.709  28.440  0.00  0.00    -0.280 N 
ATOM     71  H   UNK A   3       4.984  -3.258  27.779  0.00  0.00    +0.152 HD
ATOM     72  O   UNK A   3       2.392  -3.428  29.605  0.00  0.00    -0.226 OA
BRANCH  70  73
ATOM     73  C   UNK A   3       4.799  -4.950  29.047  0.00  0.00    +0.122 C 
BRANCH  73  74
ATOM     74  C   UNK A   3       4.331  -6.192  28.267  0.00  0.00    +0.096 C 
BRANCH  74  75
ATOM     75  N   UNK A   3       5.150  -7.379  28.525  0.00  0.00    -0.329 NA
ATOM     76  H   UNK A   3       5.948  -7.112  29.106  0.00  0.00    +0.118 HD
ATOM     77  H   UNK A   3       4.631  -8.057  29.078  0.00  0.00    +0.118 HD
ENDBRANCH  74  75
ENDBRANCH  73  74
ENDBRANCH  70  73
ENDBRANCH  68  69
ENDBRANCH  17  68
BRANCH  27  78
ATOM     78  CB  TRP A   5       4.881   2.096  23.212  0.00  0.00    +0.069 C 
BRANCH  78  79
ATOM     79  CG  TRP A   5       5.819   1.000  22.920  0.00  0.00    -0.020 A 
ATOM     80  CD2 TRP A   5       7.054   0.993  22.204  0.00  0.00    +0.003 A 
ATOM     81  CE3 TRP A   5       7.824   1.952  21.510  0.00  0.00    +0.010 A 
ATOM     82  CZ3 TRP A   5       9.121   1.614  21.088  0.00  0.00    +0.001 A 
ATOM     83  CH2 TRP A   5       9.637   0.342  21.356  0.00  0.00    +0.002 A 
ATOM     84  CZ2 TRP A   5       8.879  -0.632  21.988  0.00  0.00    +0.026 A 
ATOM     85  CE2 TRP A   5       7.580  -0.285  22.352  0.00  0.00    +0.047 A 
ATOM     86  NE1 TRP A   5       6.572  -1.068  22.840  0.00  0.00    -0.360 N 
ATOM     87  HE1 TRP A   5       6.626  -2.073  22.910  0.00  0.00    +0.165 HD
ATOM     88  CD1 TRP A   5       5.555  -0.298  23.302  0.00  0.00    +0.087 A 
ENDBRANCH  78  79
ENDBRANCH  27  78
TORSDOF 20
ENDMDL
