MODEL 1
REMARK VINA RESULT:      -7.0      0.000      0.000
REMARK  Name = 
REMARK  11 active torsions:
REMARK  status: ('A' for Active; 'I' for Inactive)
REMARK    1  A    between atoms: C_1  and  C_2
REMARK    2  A    between atoms: C_2  and  O_3
REMARK    3  A    between atoms: O_3  and  C_4
REMARK    4  A    between atoms: C_4  and  C_6
REMARK    5  A    between atoms: C_6  and  C_8
REMARK    6  A    between atoms: C_6  and  N_16
REMARK    7  A    between atoms: C_8  and  C_9
REMARK    8  A    between atoms: C_9  and  C_10
REMARK    9  A    between atoms: N_16  and  C_17
REMARK   10  A    between atoms: C_26  and  C_31
REMARK   11  A    between atoms: C_31  and  O_32
REMARK                            x       y       z     vdW  Elec       q    Type
REMARK                         _______ _______ _______ _____ _____    ______ ____
ROOT
ATOM      1  N   UNL     1       8.394  -3.789  22.919  0.00  0.00    -0.293 NA
ATOM      2  H   UNL     1       8.511  -4.068  21.935  0.00  0.00    +0.123 HD
ENDROOT
BRANCH   1   3
ATOM      3  C   UNL     1       7.799  -2.423  22.949  0.00  0.00    +0.143 C 
ATOM      4  C   UNL     1       9.010  -1.435  22.813  0.00  0.00    +0.247 C 
ATOM      5  O   UNL     1      10.045  -1.843  22.262  0.00  0.00    -0.273 OA
ATOM      6  N   UNL     1       8.935  -0.099  23.216  0.00  0.00    -0.219 N 
ATOM      7  N   UNL     1       7.748   0.581  23.527  0.00  0.00    -0.224 NA
ATOM      8  C   UNL     1       7.121   1.267  22.405  0.00  0.00    +0.106 C 
ATOM      9  C   UNL     1       8.123   2.282  21.839  0.00  0.00    +0.019 C 
ATOM     10  C   UNL     1       9.487   1.640  21.553  0.00  0.00    +0.037 C 
ATOM     11  C   UNL     1       6.913   0.149  24.622  0.00  0.00    +0.106 C 
ATOM     12  C   UNL     1       6.085  -1.067  24.282  0.00  0.00    +0.019 C 
ATOM     13  C   UNL     1      10.005   0.833  22.753  0.00  0.00    +0.202 C 
ATOM     14  C   UNL     1       6.951  -2.311  24.216  0.00  0.00    +0.029 C 
BRANCH  13  15
ATOM     15  C   UNL     1      10.508   1.714  23.904  0.00  0.00    +0.327 C 
ATOM     16  O   UNL     1      11.104   2.772  23.759  0.00  0.00    -0.249 OA
BRANCH  15  17
ATOM     17  O   UNL     1      10.336   1.152  25.128  0.00  0.00    -0.479 OA
ATOM     18  H   UNL     1       9.459   1.414  25.481  0.00  0.00    +0.295 HD
ENDBRANCH  15  17
ENDBRANCH  13  15
ENDBRANCH   1   3
BRANCH   1  19
ATOM     19  C   UNL     1       7.714  -4.867  23.663  0.00  0.00    +0.164 C 
BRANCH  19  20
ATOM     20  C   UNL     1       8.666  -5.337  24.780  0.00  0.00    +0.324 C 
ATOM     21  O   UNL     1       9.888  -5.315  24.706  0.00  0.00    -0.249 OA
BRANCH  20  22
ATOM     22  O   UNL     1       7.946  -5.802  25.841  0.00  0.00    -0.464 OA
BRANCH  22  24
ATOM     23  C   UNL     1       6.294  -4.596  27.129  0.00  0.00    +0.048 C 
ATOM     24  C   UNL     1       7.771  -4.882  26.928  0.00  0.00    +0.229 C 
ENDBRANCH  22  24
ENDBRANCH  20  22
ENDBRANCH  19  20
BRANCH  19  25
ATOM     25  C   UNL     1       7.316  -6.062  22.791  0.00  0.00    +0.035 C 
BRANCH  25  26
ATOM     26  C   UNL     1       5.935  -5.891  22.144  0.00  0.00    +0.037 C 
BRANCH  26  27
ATOM     27  C   UNL     1       4.882  -5.757  23.217  0.00  0.00    -0.047 A 
ATOM     28  C   UNL     1       4.690  -6.779  24.156  0.00  0.00    +0.003 A 
ATOM     29  C   UNL     1       3.791  -6.608  25.208  0.00  0.00    +0.000 A 
ATOM     30  C   UNL     1       3.078  -5.416  25.330  0.00  0.00    +0.000 A 
ATOM     31  C   UNL     1       3.252  -4.400  24.392  0.00  0.00    +0.000 A 
ATOM     32  C   UNL     1       4.151  -4.569  23.338  0.00  0.00    +0.003 A 
ENDBRANCH  26  27
ENDBRANCH  25  26
ENDBRANCH  19  25
ENDBRANCH   1  19
TORSDOF 10
ENDMDL
MODEL 2
REMARK VINA RESULT:      -6.8      1.974      7.245
REMARK  Name = 
REMARK  11 active torsions:
REMARK  status: ('A' for Active; 'I' for Inactive)
REMARK    1  A    between atoms: C_1  and  C_2
REMARK    2  A    between atoms: C_2  and  O_3
REMARK    3  A    between atoms: O_3  and  C_4
REMARK    4  A    between atoms: C_4  and  C_6
REMARK    5  A    between atoms: C_6  and  C_8
REMARK    6  A    between atoms: C_6  and  N_16
REMARK    7  A    between atoms: C_8  and  C_9
REMARK    8  A    between atoms: C_9  and  C_10
REMARK    9  A    between atoms: N_16  and  C_17
REMARK   10  A    between atoms: C_26  and  C_31
REMARK   11  A    between atoms: C_31  and  O_32
REMARK                            x       y       z     vdW  Elec       q    Type
REMARK                         _______ _______ _______ _____ _____    ______ ____
ROOT
ATOM      1  N   UNL     1       7.596  -1.673  22.666  0.00  0.00    -0.293 NA
ATOM      2  H   UNL     1       7.276  -0.925  22.035  0.00  0.00    +0.123 HD
ENDROOT
BRANCH   1   3
ATOM      3  C   UNL     1       6.618  -2.795  22.591  0.00  0.00    +0.143 C 
ATOM      4  C   UNL     1       6.178  -3.068  24.072  0.00  0.00    +0.247 C 
ATOM      5  O   UNL     1       6.269  -2.142  24.894  0.00  0.00    -0.273 OA
ATOM      6  N   UNL     1       5.618  -4.282  24.475  0.00  0.00    -0.219 N 
ATOM      7  N   UNL     1       5.143  -5.276  23.605  0.00  0.00    -0.224 NA
ATOM      8  C   UNL     1       3.733  -5.163  23.255  0.00  0.00    +0.106 C 
ATOM      9  C   UNL     1       2.908  -5.219  24.548  0.00  0.00    +0.019 C 
ATOM     10  C   UNL     1       3.419  -4.223  25.596  0.00  0.00    +0.037 C 
ATOM     11  C   UNL     1       6.031  -5.934  22.678  0.00  0.00    +0.106 C 
ATOM     12  C   UNL     1       6.352  -5.082  21.473  0.00  0.00    +0.019 C 
ATOM     13  C   UNL     1       4.938  -4.333  25.803  0.00  0.00    +0.202 C 
ATOM     14  C   UNL     1       7.289  -3.948  21.844  0.00  0.00    +0.029 C 
BRANCH  13  15
ATOM     15  C   UNL     1       5.352  -5.583  26.590  0.00  0.00    +0.327 C 
ATOM     16  O   UNL     1       4.667  -6.122  27.447  0.00  0.00    -0.249 OA
BRANCH  15  17
ATOM     17  O   UNL     1       6.624  -5.983  26.334  0.00  0.00    -0.479 OA
ATOM     18  H   UNL     1       7.205  -5.194  26.284  0.00  0.00    +0.295 HD
ENDBRANCH  15  17
ENDBRANCH  13  15
ENDBRANCH   1   3
BRANCH   1  19
ATOM     19  C   UNL     1       9.020  -1.964  22.408  0.00  0.00    +0.164 C 
BRANCH  19  20
ATOM     20  C   UNL     1       9.694  -2.240  23.765  0.00  0.00    +0.324 C 
ATOM     21  O   UNL     1       9.880  -3.356  24.235  0.00  0.00    -0.249 OA
BRANCH  20  22
ATOM     22  O   UNL     1      10.022  -1.062  24.370  0.00  0.00    -0.464 OA
BRANCH  22  24
ATOM     23  C   UNL     1       8.534   0.496  25.465  0.00  0.00    +0.048 C 
ATOM     24  C   UNL     1       9.341  -0.783  25.601  0.00  0.00    +0.229 C 
ENDBRANCH  22  24
ENDBRANCH  20  22
ENDBRANCH  19  20
BRANCH  19  25
ATOM     25  C   UNL     1       9.760  -0.832  21.688  0.00  0.00    +0.035 C 
BRANCH  25  26
ATOM     26  C   UNL     1       8.817   0.272  21.192  0.00  0.00    +0.037 C 
BRANCH  26  27
ATOM     27  C   UNL     1       9.066   1.542  21.968  0.00  0.00    -0.047 A 
ATOM     28  C   UNL     1       8.012   2.423  22.246  0.00  0.00    +0.003 A 
ATOM     29  C   UNL     1       8.224   3.541  23.052  0.00  0.00    +0.000 A 
ATOM     30  C   UNL     1       9.488   3.786  23.587  0.00  0.00    +0.000 A 
ATOM     31  C   UNL     1      10.545   2.923  23.304  0.00  0.00    +0.000 A 
ATOM     32  C   UNL     1      10.336   1.804  22.497  0.00  0.00    +0.003 A 
ENDBRANCH  26  27
ENDBRANCH  25  26
ENDBRANCH  19  25
ENDBRANCH   1  19
TORSDOF 10
ENDMDL
MODEL 3
REMARK VINA RESULT:      -6.6      2.841      7.706
REMARK  Name = 
REMARK  11 active torsions:
REMARK  status: ('A' for Active; 'I' for Inactive)
REMARK    1  A    between atoms: C_1  and  C_2
REMARK    2  A    between atoms: C_2  and  O_3
REMARK    3  A    between atoms: O_3  and  C_4
REMARK    4  A    between atoms: C_4  and  C_6
REMARK    5  A    between atoms: C_6  and  C_8
REMARK    6  A    between atoms: C_6  and  N_16
REMARK    7  A    between atoms: C_8  and  C_9
REMARK    8  A    between atoms: C_9  and  C_10
REMARK    9  A    between atoms: N_16  and  C_17
REMARK   10  A    between atoms: C_26  and  C_31
REMARK   11  A    between atoms: C_31  and  O_32
REMARK                            x       y       z     vdW  Elec       q    Type
REMARK                         _______ _______ _______ _____ _____    ______ ____
ROOT
ATOM      1  N   UNL     1       7.807  -3.620  26.290  0.00  0.00    -0.293 NA
ATOM      2  H   UNL     1       8.162  -2.903  26.938  0.00  0.00    +0.123 HD
ENDROOT
BRANCH   1   3
ATOM      3  C   UNL     1       6.318  -3.625  26.371  0.00  0.00    +0.143 C 
ATOM      4  C   UNL     1       5.896  -5.132  26.265  0.00  0.00    +0.247 C 
ATOM      5  O   UNL     1       6.717  -5.999  26.606  0.00  0.00    -0.273 OA
ATOM      6  N   UNL     1       4.613  -5.524  25.879  0.00  0.00    -0.219 N 
ATOM      7  N   UNL     1       3.501  -4.672  25.801  0.00  0.00    -0.224 NA
ATOM      8  C   UNL     1       2.709  -4.583  27.021  0.00  0.00    +0.106 C 
ATOM      9  C   UNL     1       2.212  -5.991  27.378  0.00  0.00    +0.019 C 
ATOM     10  C   UNL     1       3.356  -7.013  27.396  0.00  0.00    +0.037 C 
ATOM     11  C   UNL     1       3.489  -3.552  24.891  0.00  0.00    +0.106 C 
ATOM     12  C   UNL     1       4.305  -2.384  25.391  0.00  0.00    +0.019 C 
ATOM     13  C   UNL     1       4.211  -6.942  26.122  0.00  0.00    +0.202 C 
ATOM     14  C   UNL     1       5.790  -2.679  25.292  0.00  0.00    +0.029 C 
BRANCH  13  15
ATOM     15  C   UNL     1       3.515  -7.538  24.892  0.00  0.00    +0.327 C 
ATOM     16  O   UNL     1       2.766  -8.505  24.918  0.00  0.00    -0.249 OA
BRANCH  15  17
ATOM     17  O   UNL     1       3.900  -6.964  23.723  0.00  0.00    -0.479 OA
ATOM     18  H   UNL     1       3.105  -6.769  23.183  0.00  0.00    +0.295 HD
ENDBRANCH  15  17
ENDBRANCH  13  15
ENDBRANCH   1   3
BRANCH   1  19
ATOM     19  C   UNL     1       8.436  -3.450  24.966  0.00  0.00    +0.164 C 
BRANCH  19  20
ATOM     20  C   UNL     1       9.235  -4.731  24.661  0.00  0.00    +0.324 C 
ATOM     21  O   UNL     1      10.356  -4.972  25.094  0.00  0.00    -0.249 OA
BRANCH  20  22
ATOM     22  O   UNL     1       8.523  -5.536  23.821  0.00  0.00    -0.464 OA
BRANCH  22  24
ATOM     23  C   UNL     1       6.972  -5.869  21.997  0.00  0.00    +0.048 C 
ATOM     24  C   UNL     1       7.608  -4.866  22.943  0.00  0.00    +0.229 C 
ENDBRANCH  22  24
ENDBRANCH  20  22
ENDBRANCH  19  20
BRANCH  19  25
ATOM     25  C   UNL     1       9.363  -2.234  24.877  0.00  0.00    +0.035 C 
BRANCH  25  26
ATOM     26  C   UNL     1       9.902  -2.002  23.459  0.00  0.00    +0.037 C 
BRANCH  26  27
ATOM     27  C   UNL     1      10.098  -0.524  23.223  0.00  0.00    -0.047 A 
ATOM     28  C   UNL     1       9.756   0.051  21.992  0.00  0.00    +0.003 A 
ATOM     29  C   UNL     1       9.839   1.432  21.813  0.00  0.00    +0.000 A 
ATOM     30  C   UNL     1      10.265   2.246  22.861  0.00  0.00    +0.000 A 
ATOM     31  C   UNL     1      10.622   1.682  24.083  0.00  0.00    +0.000 A 
ATOM     32  C   UNL     1      10.540   0.301  24.265  0.00  0.00    +0.003 A 
ENDBRANCH  26  27
ENDBRANCH  25  26
ENDBRANCH  19  25
ENDBRANCH   1  19
TORSDOF 10
ENDMDL
MODEL 4
REMARK VINA RESULT:      -6.4      2.169      7.914
REMARK  Name = 
REMARK  11 active torsions:
REMARK  status: ('A' for Active; 'I' for Inactive)
REMARK    1  A    between atoms: C_1  and  C_2
REMARK    2  A    between atoms: C_2  and  O_3
REMARK    3  A    between atoms: O_3  and  C_4
REMARK    4  A    between atoms: C_4  and  C_6
REMARK    5  A    between atoms: C_6  and  C_8
REMARK    6  A    between atoms: C_6  and  N_16
REMARK    7  A    between atoms: C_8  and  C_9
REMARK    8  A    between atoms: C_9  and  C_10
REMARK    9  A    between atoms: N_16  and  C_17
REMARK   10  A    between atoms: C_26  and  C_31
REMARK   11  A    between atoms: C_31  and  O_32
REMARK                            x       y       z     vdW  Elec       q    Type
REMARK                         _______ _______ _______ _____ _____    ______ ____
ROOT
ATOM      1  N   UNL     1       5.991  -0.714  24.098  0.00  0.00    -0.293 NA
ATOM      2  H   UNL     1       5.162  -0.303  23.648  0.00  0.00    +0.123 HD
ENDROOT
BRANCH   1   3
ATOM      3  C   UNL     1       5.978  -2.183  23.848  0.00  0.00    +0.143 C 
ATOM      4  C   UNL     1       5.952  -2.851  25.267  0.00  0.00    +0.247 C 
ATOM      5  O   UNL     1       5.489  -2.199  26.217  0.00  0.00    -0.273 OA
ATOM      6  N   UNL     1       6.355  -4.171  25.480  0.00  0.00    -0.219 N 
ATOM      7  N   UNL     1       6.568  -5.120  24.468  0.00  0.00    -0.224 NA
ATOM      8  C   UNL     1       5.400  -5.920  24.121  0.00  0.00    +0.106 C 
ATOM      9  C   UNL     1       4.927  -6.657  25.381  0.00  0.00    +0.019 C 
ATOM     10  C   UNL     1       4.755  -5.704  26.571  0.00  0.00    +0.037 C 
ATOM     11  C   UNL     1       7.585  -4.917  23.465  0.00  0.00    +0.106 C 
ATOM     12  C   UNL     1       7.167  -3.929  22.402  0.00  0.00    +0.019 C 
ATOM     13  C   UNL     1       5.990  -4.814  26.777  0.00  0.00    +0.202 C 
ATOM     14  C   UNL     1       7.169  -2.513  22.947  0.00  0.00    +0.029 C 
BRANCH  13  15
ATOM     15  C   UNL     1       7.185  -5.566  27.378  0.00  0.00    +0.327 C 
ATOM     16  O   UNL     1       7.127  -6.290  28.362  0.00  0.00    -0.249 OA
BRANCH  15  17
ATOM     17  O   UNL     1       8.367  -5.263  26.782  0.00  0.00    -0.479 OA
ATOM     18  H   UNL     1       8.978  -6.025  26.872  0.00  0.00    +0.295 HD
ENDBRANCH  15  17
ENDBRANCH  13  15
ENDBRANCH   1   3
BRANCH   1  19
ATOM     19  C   UNL     1       7.194   0.052  23.716  0.00  0.00    +0.164 C 
BRANCH  19  20
ATOM     20  C   UNL     1       7.931   0.441  25.012  0.00  0.00    +0.324 C 
ATOM     21  O   UNL     1       7.673   1.429  25.689  0.00  0.00    -0.249 OA
BRANCH  20  22
ATOM     22  O   UNL     1       8.922  -0.459  25.272  0.00  0.00    -0.464 OA
BRANCH  22  24
ATOM     23  C   UNL     1      10.927   0.673  24.535  0.00  0.00    +0.048 C 
ATOM     24  C   UNL     1       9.991  -0.503  24.316  0.00  0.00    +0.229 C 
ENDBRANCH  22  24
ENDBRANCH  20  22
ENDBRANCH  19  20
BRANCH  19  25
ATOM     25  C   UNL     1       6.888   1.313  22.901  0.00  0.00    +0.035 C 
BRANCH  25  26
ATOM     26  C   UNL     1       8.146   1.940  22.286  0.00  0.00    +0.037 C 
BRANCH  26  27
ATOM     27  C   UNL     1       8.249   3.387  22.700  0.00  0.00    -0.047 A 
ATOM     28  C   UNL     1       9.282   3.813  23.547  0.00  0.00    +0.003 A 
ATOM     29  C   UNL     1       9.436   5.167  23.843  0.00  0.00    +0.000 A 
ATOM     30  C   UNL     1       8.562   6.105  23.296  0.00  0.00    +0.000 A 
ATOM     31  C   UNL     1       7.524   5.689  22.465  0.00  0.00    +0.000 A 
ATOM     32  C   UNL     1       7.367   4.335  22.168  0.00  0.00    +0.003 A 
ENDBRANCH  26  27
ENDBRANCH  25  26
ENDBRANCH  19  25
ENDBRANCH   1  19
TORSDOF 10
ENDMDL
MODEL 5
REMARK VINA RESULT:      -6.3      2.411      7.378
REMARK  Name = 
REMARK  11 active torsions:
REMARK  status: ('A' for Active; 'I' for Inactive)
REMARK    1  A    between atoms: C_1  and  C_2
REMARK    2  A    between atoms: C_2  and  O_3
REMARK    3  A    between atoms: O_3  and  C_4
REMARK    4  A    between atoms: C_4  and  C_6
REMARK    5  A    between atoms: C_6  and  C_8
REMARK    6  A    between atoms: C_6  and  N_16
REMARK    7  A    between atoms: C_8  and  C_9
REMARK    8  A    between atoms: C_9  and  C_10
REMARK    9  A    between atoms: N_16  and  C_17
REMARK   10  A    between atoms: C_26  and  C_31
REMARK   11  A    between atoms: C_31  and  O_32
REMARK                            x       y       z     vdW  Elec       q    Type
REMARK                         _______ _______ _______ _____ _____    ______ ____
ROOT
ATOM      1  N   UNL     1       8.511  -2.331  26.155  0.00  0.00    -0.293 NA
ATOM      2  H   UNL     1       8.932  -1.861  26.969  0.00  0.00    +0.123 HD
ENDROOT
BRANCH   1   3
ATOM      3  C   UNL     1       7.086  -2.628  26.474  0.00  0.00    +0.143 C 
ATOM      4  C   UNL     1       6.879  -4.138  26.103  0.00  0.00    +0.247 C 
ATOM      5  O   UNL     1       7.870  -4.887  26.103  0.00  0.00    -0.273 OA
ATOM      6  N   UNL     1       5.617  -4.681  25.853  0.00  0.00    -0.219 N 
ATOM      7  N   UNL     1       4.398  -4.053  26.150  0.00  0.00    -0.224 NA
ATOM      8  C   UNL     1       3.859  -4.351  27.470  0.00  0.00    +0.106 C 
ATOM      9  C   UNL     1       3.657  -5.868  27.579  0.00  0.00    +0.019 C 
ATOM     10  C   UNL     1       4.920  -6.643  27.182  0.00  0.00    +0.037 C 
ATOM     11  C   UNL     1       4.040  -2.801  25.527  0.00  0.00    +0.106 C 
ATOM     12  C   UNL     1       4.757  -1.620  26.137  0.00  0.00    +0.019 C 
ATOM     13  C   UNL     1       5.486  -6.169  25.834  0.00  0.00    +0.202 C 
ATOM     14  C   UNL     1       6.220  -1.608  25.735  0.00  0.00    +0.029 C 
BRANCH  13  15
ATOM     15  C   UNL     1       4.656  -6.636  24.631  0.00  0.00    +0.327 C 
ATOM     16  O   UNL     1       4.078  -7.712  24.562  0.00  0.00    -0.249 OA
BRANCH  15  17
ATOM     17  O   UNL     1       4.712  -5.785  23.575  0.00  0.00    -0.479 OA
ATOM     18  H   UNL     1       4.016  -6.029  22.928  0.00  0.00    +0.295 HD
ENDBRANCH  15  17
ENDBRANCH  13  15
ENDBRANCH   1   3
BRANCH   1  19
ATOM     19  C   UNL     1       8.811  -1.564  24.930  0.00  0.00    +0.164 C 
BRANCH  19  20
ATOM     20  C   UNL     1       9.301  -2.562  23.863  0.00  0.00    +0.324 C 
ATOM     21  O   UNL     1      10.253  -3.319  24.005  0.00  0.00    -0.249 OA
BRANCH  20  22
ATOM     22  O   UNL     1       8.537  -2.454  22.738  0.00  0.00    -0.464 OA
BRANCH  22  24
ATOM     23  C   UNL     1       6.187  -2.839  22.322  0.00  0.00    +0.048 C 
ATOM     24  C   UNL     1       7.546  -3.475  22.557  0.00  0.00    +0.229 C 
ENDBRANCH  22  24
ENDBRANCH  20  22
ENDBRANCH  19  20
BRANCH  19  25
ATOM     25  C   UNL     1       9.862  -0.469  25.130  0.00  0.00    +0.035 C 
BRANCH  25  26
ATOM     26  C   UNL     1      10.452   0.036  23.806  0.00  0.00    +0.037 C 
BRANCH  26  27
ATOM     27  C   UNL     1       9.576   1.128  23.241  0.00  0.00    -0.047 A 
ATOM     28  C   UNL     1       8.941   0.961  22.003  0.00  0.00    +0.003 A 
ATOM     29  C   UNL     1       8.050   1.925  21.533  0.00  0.00    +0.000 A 
ATOM     30  C   UNL     1       7.787   3.062  22.295  0.00  0.00    +0.000 A 
ATOM     31  C   UNL     1       8.426   3.244  23.521  0.00  0.00    +0.000 A 
ATOM     32  C   UNL     1       9.318   2.280  23.993  0.00  0.00    +0.003 A 
ENDBRANCH  26  27
ENDBRANCH  25  26
ENDBRANCH  19  25
ENDBRANCH   1  19
TORSDOF 10
ENDMDL
MODEL 6
REMARK VINA RESULT:      -6.2      2.263      3.432
REMARK  Name = 
REMARK  11 active torsions:
REMARK  status: ('A' for Active; 'I' for Inactive)
REMARK    1  A    between atoms: C_1  and  C_2
REMARK    2  A    between atoms: C_2  and  O_3
REMARK    3  A    between atoms: O_3  and  C_4
REMARK    4  A    between atoms: C_4  and  C_6
REMARK    5  A    between atoms: C_6  and  C_8
REMARK    6  A    between atoms: C_6  and  N_16
REMARK    7  A    between atoms: C_8  and  C_9
REMARK    8  A    between atoms: C_9  and  C_10
REMARK    9  A    between atoms: N_16  and  C_17
REMARK   10  A    between atoms: C_26  and  C_31
REMARK   11  A    between atoms: C_31  and  O_32
REMARK                            x       y       z     vdW  Elec       q    Type
REMARK                         _______ _______ _______ _____ _____    ______ ____
ROOT
ATOM      1  N   UNL     1       7.249  -2.257  23.558  0.00  0.00    -0.293 NA
ATOM      2  H   UNL     1       6.275  -1.948  23.689  0.00  0.00    +0.123 HD
ENDROOT
BRANCH   1   3
ATOM      3  C   UNL     1       8.111  -1.046  23.450  0.00  0.00    +0.143 C 
ATOM      4  C   UNL     1       7.168   0.170  23.755  0.00  0.00    +0.247 C 
ATOM      5  O   UNL     1       6.155  -0.029  24.444  0.00  0.00    -0.273 OA
ATOM      6  N   UNL     1       7.471   1.472  23.350  0.00  0.00    -0.219 N 
ATOM      7  N   UNL     1       8.722   1.897  22.878  0.00  0.00    -0.224 NA
ATOM      8  C   UNL     1       9.627   2.399  23.904  0.00  0.00    +0.106 C 
ATOM      9  C   UNL     1       8.950   3.583  24.608  0.00  0.00    +0.019 C 
ATOM     10  C   UNL     1       7.533   3.234  25.079  0.00  0.00    +0.037 C 
ATOM     11  C   UNL     1       9.289   1.335  21.677  0.00  0.00    +0.106 C 
ATOM     12  C   UNL     1       9.878  -0.038  21.895  0.00  0.00    +0.019 C 
ATOM     13  C   UNL     1       6.696   2.593  23.961  0.00  0.00    +0.202 C 
ATOM     14  C   UNL     1       8.784  -1.074  22.077  0.00  0.00    +0.029 C 
BRANCH  13  15
ATOM     15  C   UNL     1       6.241   3.597  22.894  0.00  0.00    +0.327 C 
ATOM     16  O   UNL     1       5.750   4.691  23.134  0.00  0.00    -0.249 OA
BRANCH  15  17
ATOM     17  O   UNL     1       6.323   3.112  21.628  0.00  0.00    -0.479 OA
ATOM     18  H   UNL     1       7.268   3.010  21.383  0.00  0.00    +0.295 HD
ENDBRANCH  15  17
ENDBRANCH  13  15
ENDBRANCH   1   3
BRANCH   1  19
ATOM     19  C   UNL     1       7.589  -3.272  24.573  0.00  0.00    +0.164 C 
BRANCH  19  20
ATOM     20  C   UNL     1       8.142  -4.505  23.833  0.00  0.00    +0.324 C 
ATOM     21  O   UNL     1       8.948  -5.297  24.307  0.00  0.00    -0.249 OA
BRANCH  20  22
ATOM     22  O   UNL     1       7.623  -4.565  22.573  0.00  0.00    -0.464 OA
BRANCH  22  24
ATOM     23  C   UNL     1       6.022  -5.818  21.266  0.00  0.00    +0.048 C 
ATOM     24  C   UNL     1       7.291  -5.877  22.097  0.00  0.00    +0.229 C 
ENDBRANCH  22  24
ENDBRANCH  20  22
ENDBRANCH  19  20
BRANCH  19  25
ATOM     25  C   UNL     1       6.403  -3.689  25.450  0.00  0.00    +0.035 C 
BRANCH  25  26
ATOM     26  C   UNL     1       5.048  -3.412  24.785  0.00  0.00    +0.037 C 
BRANCH  26  27
ATOM     27  C   UNL     1       4.390  -4.717  24.407  0.00  0.00    -0.047 A 
ATOM     28  C   UNL     1       4.839  -5.925  24.956  0.00  0.00    +0.003 A 
ATOM     29  C   UNL     1       4.162  -7.115  24.688  0.00  0.00    +0.000 A 
ATOM     30  C   UNL     1       3.035  -7.106  23.868  0.00  0.00    +0.000 A 
ATOM     31  C   UNL     1       2.591  -5.911  23.304  0.00  0.00    +0.000 A 
ATOM     32  C   UNL     1       3.266  -4.720  23.572  0.00  0.00    +0.003 A 
ENDBRANCH  26  27
ENDBRANCH  25  26
ENDBRANCH  19  25
ENDBRANCH   1  19
TORSDOF 10
ENDMDL
MODEL 7
REMARK VINA RESULT:      -6.2      2.188      7.690
REMARK  Name = 
REMARK  11 active torsions:
REMARK  status: ('A' for Active; 'I' for Inactive)
REMARK    1  A    between atoms: C_1  and  C_2
REMARK    2  A    between atoms: C_2  and  O_3
REMARK    3  A    between atoms: O_3  and  C_4
REMARK    4  A    between atoms: C_4  and  C_6
REMARK    5  A    between atoms: C_6  and  C_8
REMARK    6  A    between atoms: C_6  and  N_16
REMARK    7  A    between atoms: C_8  and  C_9
REMARK    8  A    between atoms: C_9  and  C_10
REMARK    9  A    between atoms: N_16  and  C_17
REMARK   10  A    between atoms: C_26  and  C_31
REMARK   11  A    between atoms: C_31  and  O_32
REMARK                            x       y       z     vdW  Elec       q    Type
REMARK                         _______ _______ _______ _____ _____    ______ ____
ROOT
ATOM      1  N   UNL     1       6.917   0.129  23.939  0.00  0.00    -0.293 NA
ATOM      2  H   UNL     1       6.187   0.848  23.848  0.00  0.00    +0.123 HD
ENDROOT
BRANCH   1   3
ATOM      3  C   UNL     1       6.254  -1.206  23.980  0.00  0.00    +0.143 C 
ATOM      4  C   UNL     1       6.824  -1.920  25.254  0.00  0.00    +0.247 C 
ATOM      5  O   UNL     1       7.257  -1.215  26.181  0.00  0.00    -0.273 OA
ATOM      6  N   UNL     1       6.788  -3.307  25.414  0.00  0.00    -0.219 N 
ATOM      7  N   UNL     1       6.033  -4.188  24.626  0.00  0.00    -0.224 NA
ATOM      8  C   UNL     1       4.693  -4.464  25.126  0.00  0.00    +0.106 C 
ATOM      9  C   UNL     1       4.817  -5.063  26.533  0.00  0.00    +0.019 C 
ATOM     10  C   UNL     1       5.707  -4.207  27.443  0.00  0.00    +0.037 C 
ATOM     11  C   UNL     1       6.275  -4.305  23.208  0.00  0.00    +0.106 C 
ATOM     12  C   UNL     1       5.694  -3.156  22.419  0.00  0.00    +0.019 C 
ATOM     13  C   UNL     1       7.047  -3.861  26.776  0.00  0.00    +0.202 C 
ATOM     14  C   UNL     1       6.499  -1.888  22.634  0.00  0.00    +0.029 C 
BRANCH  13  15
ATOM     15  C   UNL     1       8.017  -5.049  26.716  0.00  0.00    +0.327 C 
ATOM     16  O   UNL     1       8.857  -5.216  25.843  0.00  0.00    -0.249 OA
BRANCH  15  17
ATOM     17  O   UNL     1       7.782  -5.985  27.671  0.00  0.00    -0.479 OA
ATOM     18  H   UNL     1       7.098  -6.609  27.348  0.00  0.00    +0.295 HD
ENDBRANCH  15  17
ENDBRANCH  13  15
ENDBRANCH   1   3
BRANCH   1  19
ATOM     19  C   UNL     1       7.969   0.359  22.931  0.00  0.00    +0.164 C 
BRANCH  19  20
ATOM     20  C   UNL     1       9.324   0.373  23.664  0.00  0.00    +0.324 C 
ATOM     21  O   UNL     1       9.507   0.848  24.779  0.00  0.00    -0.249 OA
BRANCH  20  22
ATOM     22  O   UNL     1      10.285  -0.194  22.879  0.00  0.00    -0.464 OA
BRANCH  22  24
ATOM     23  C   UNL     1      10.069  -2.458  23.698  0.00  0.00    +0.048 C 
ATOM     24  C   UNL     1      10.044  -1.551  22.481  0.00  0.00    +0.229 C 
ENDBRANCH  22  24
ENDBRANCH  20  22
ENDBRANCH  19  20
BRANCH  19  25
ATOM     25  C   UNL     1       7.797   1.664  22.147  0.00  0.00    +0.035 C 
BRANCH  25  26
ATOM     26  C   UNL     1       6.850   2.652  22.840  0.00  0.00    +0.037 C 
BRANCH  26  27
ATOM     27  C   UNL     1       7.553   3.970  23.052  0.00  0.00    -0.047 A 
ATOM     28  C   UNL     1       8.607   4.075  23.969  0.00  0.00    +0.003 A 
ATOM     29  C   UNL     1       9.324   5.265  24.086  0.00  0.00    +0.000 A 
ATOM     30  C   UNL     1       8.993   6.359  23.287  0.00  0.00    +0.000 A 
ATOM     31  C   UNL     1       7.937   6.269  22.383  0.00  0.00    +0.000 A 
ATOM     32  C   UNL     1       7.219   5.079  22.265  0.00  0.00    +0.003 A 
ENDBRANCH  26  27
ENDBRANCH  25  26
ENDBRANCH  19  25
ENDBRANCH   1  19
TORSDOF 10
ENDMDL
MODEL 8
REMARK VINA RESULT:      -6.1      2.552      7.921
REMARK  Name = 
REMARK  11 active torsions:
REMARK  status: ('A' for Active; 'I' for Inactive)
REMARK    1  A    between atoms: C_1  and  C_2
REMARK    2  A    between atoms: C_2  and  O_3
REMARK    3  A    between atoms: O_3  and  C_4
REMARK    4  A    between atoms: C_4  and  C_6
REMARK    5  A    between atoms: C_6  and  C_8
REMARK    6  A    between atoms: C_6  and  N_16
REMARK    7  A    between atoms: C_8  and  C_9
REMARK    8  A    between atoms: C_9  and  C_10
REMARK    9  A    between atoms: N_16  and  C_17
REMARK   10  A    between atoms: C_26  and  C_31
REMARK   11  A    between atoms: C_31  and  O_32
REMARK                            x       y       z     vdW  Elec       q    Type
REMARK                         _______ _______ _______ _____ _____    ______ ____
ROOT
ATOM      1  N   UNL     1       8.117  -0.277  25.306  0.00  0.00    -0.293 NA
ATOM      2  H   UNL     1       7.125  -0.012  25.385  0.00  0.00    +0.123 HD
ENDROOT
BRANCH   1   3
ATOM      3  C   UNL     1       8.186  -1.736  25.008  0.00  0.00    +0.143 C 
ATOM      4  C   UNL     1       6.908  -2.052  24.157  0.00  0.00    +0.247 C 
ATOM      5  O   UNL     1       6.388  -1.129  23.508  0.00  0.00    -0.273 OA
ATOM      6  N   UNL     1       6.386  -3.343  24.040  0.00  0.00    -0.219 N 
ATOM      7  N   UNL     1       7.052  -4.517  24.424  0.00  0.00    -0.224 NA
ATOM      8  C   UNL     1       7.849  -5.141  23.375  0.00  0.00    +0.106 C 
ATOM      9  C   UNL     1       6.923  -5.475  22.199  0.00  0.00    +0.019 C 
ATOM     10  C   UNL     1       6.084  -4.265  21.769  0.00  0.00    +0.037 C 
ATOM     11  C   UNL     1       7.430  -4.737  25.799  0.00  0.00    +0.106 C 
ATOM     12  C   UNL     1       8.656  -3.953  26.200  0.00  0.00    +0.019 C 
ATOM     13  C   UNL     1       5.383  -3.598  22.964  0.00  0.00    +0.202 C 
ATOM     14  C   UNL     1       8.334  -2.476  26.338  0.00  0.00    +0.029 C 
BRANCH  13  15
ATOM     15  C   UNL     1       4.193  -4.407  23.496  0.00  0.00    +0.327 C 
ATOM     16  O   UNL     1       3.474  -5.118  22.809  0.00  0.00    -0.249 OA
BRANCH  15  17
ATOM     17  O   UNL     1       3.924  -4.171  24.806  0.00  0.00    -0.479 OA
ATOM     18  H   UNL     1       4.376  -4.847  25.354  0.00  0.00    +0.295 HD
ENDBRANCH  15  17
ENDBRANCH  13  15
ENDBRANCH   1   3
BRANCH   1  19
ATOM     19  C   UNL     1       8.810   0.657  24.399  0.00  0.00    +0.164 C 
BRANCH  19  20
ATOM     20  C   UNL     1      10.302   0.271  24.381  0.00  0.00    +0.324 C 
ATOM     21  O   UNL     1      11.072   0.427  25.320  0.00  0.00    -0.249 OA
BRANCH  20  22
ATOM     22  O   UNL     1      10.636  -0.241  23.162  0.00  0.00    -0.464 OA
BRANCH  22  24
ATOM     23  C   UNL     1       9.285  -1.163  21.381  0.00  0.00    +0.048 C 
ATOM     24  C   UNL     1       9.757   0.100  22.080  0.00  0.00    +0.229 C 
ENDBRANCH  22  24
ENDBRANCH  20  22
ENDBRANCH  19  20
BRANCH  19  25
ATOM     25  C   UNL     1       8.667   2.128  24.802  0.00  0.00    +0.035 C 
BRANCH  25  26
ATOM     26  C   UNL     1       9.703   3.033  24.123  0.00  0.00    +0.037 C 
BRANCH  26  27
ATOM     27  C   UNL     1       9.014   4.225  23.506  0.00  0.00    -0.047 A 
ATOM     28  C   UNL     1       7.833   4.061  22.769  0.00  0.00    +0.003 A 
ATOM     29  C   UNL     1       7.141   5.174  22.291  0.00  0.00    +0.000 A 
ATOM     30  C   UNL     1       7.624   6.457  22.543  0.00  0.00    +0.000 A 
ATOM     31  C   UNL     1       8.806   6.629  23.261  0.00  0.00    +0.000 A 
ATOM     32  C   UNL     1       9.499   5.518  23.742  0.00  0.00    +0.003 A 
ENDBRANCH  26  27
ENDBRANCH  25  26
ENDBRANCH  19  25
ENDBRANCH   1  19
TORSDOF 10
ENDMDL
MODEL 9
REMARK VINA RESULT:      -6.1      2.676      7.700
REMARK  Name = 
REMARK  11 active torsions:
REMARK  status: ('A' for Active; 'I' for Inactive)
REMARK    1  A    between atoms: C_1  and  C_2
REMARK    2  A    between atoms: C_2  and  O_3
REMARK    3  A    between atoms: O_3  and  C_4
REMARK    4  A    between atoms: C_4  and  C_6
REMARK    5  A    between atoms: C_6  and  C_8
REMARK    6  A    between atoms: C_6  and  N_16
REMARK    7  A    between atoms: C_8  and  C_9
REMARK    8  A    between atoms: C_9  and  C_10
REMARK    9  A    between atoms: N_16  and  C_17
REMARK   10  A    between atoms: C_26  and  C_31
REMARK   11  A    between atoms: C_31  and  O_32
REMARK                            x       y       z     vdW  Elec       q    Type
REMARK                         _______ _______ _______ _____ _____    ______ ____
ROOT
ATOM      1  N   UNL     1       5.305   0.477  24.594  0.00  0.00    -0.293 NA
ATOM      2  H   UNL     1       4.520   0.363  23.938  0.00  0.00    +0.123 HD
ENDROOT
BRANCH   1   3
ATOM      3  C   UNL     1       6.331  -0.556  24.276  0.00  0.00    +0.143 C 
ATOM      4  C   UNL     1       5.770  -1.899  24.861  0.00  0.00    +0.247 C 
ATOM      5  O   UNL     1       4.542  -2.012  25.004  0.00  0.00    -0.273 OA
ATOM      6  N   UNL     1       6.591  -2.992  25.147  0.00  0.00    -0.219 N 
ATOM      7  N   UNL     1       7.921  -3.132  24.721  0.00  0.00    -0.224 NA
ATOM      8  C   UNL     1       8.087  -3.811  23.442  0.00  0.00    +0.106 C 
ATOM      9  C   UNL     1       7.467  -5.210  23.554  0.00  0.00    +0.019 C 
ATOM     10  C   UNL     1       6.035  -5.159  24.103  0.00  0.00    +0.037 C 
ATOM     11  C   UNL     1       8.934  -2.194  25.138  0.00  0.00    +0.106 C 
ATOM     12  C   UNL     1       8.867  -0.888  24.384  0.00  0.00    +0.019 C 
ATOM     13  C   UNL     1       5.940  -4.314  25.383  0.00  0.00    +0.202 C 
ATOM     14  C   UNL     1       7.671  -0.066  24.827  0.00  0.00    +0.029 C 
BRANCH  13  15
ATOM     15  C   UNL     1       6.533  -5.013  26.614  0.00  0.00    +0.327 C 
ATOM     16  O   UNL     1       7.285  -4.482  27.419  0.00  0.00    -0.249 OA
BRANCH  15  17
ATOM     17  O   UNL     1       6.240  -6.338  26.674  0.00  0.00    -0.479 OA
ATOM     18  H   UNL     1       5.267  -6.454  26.630  0.00  0.00    +0.295 HD
ENDBRANCH  15  17
ENDBRANCH  13  15
ENDBRANCH   1   3
BRANCH   1  19
ATOM     19  C   UNL     1       5.722   1.892  24.629  0.00  0.00    +0.164 C 
BRANCH  19  20
ATOM     20  C   UNL     1       4.978   2.570  25.796  0.00  0.00    +0.324 C 
ATOM     21  O   UNL     1       3.814   2.948  25.752  0.00  0.00    -0.249 OA
BRANCH  20  22
ATOM     22  O   UNL     1       5.814   2.707  26.865  0.00  0.00    -0.464 OA
BRANCH  22  24
ATOM     23  C   UNL     1       7.402   4.516  26.642  0.00  0.00    +0.048 C 
ATOM     24  C   UNL     1       7.180   3.016  26.552  0.00  0.00    +0.229 C 
ENDBRANCH  22  24
ENDBRANCH  20  22
ENDBRANCH  19  20
BRANCH  19  25
ATOM     25  C   UNL     1       5.436   2.651  23.329  0.00  0.00    +0.035 C 
BRANCH  25  26
ATOM     26  C   UNL     1       6.522   3.682  22.994  0.00  0.00    +0.037 C 
BRANCH  26  27
ATOM     27  C   UNL     1       7.799   2.974  22.616  0.00  0.00    -0.047 A 
ATOM     28  C   UNL     1       8.992   3.246  23.298  0.00  0.00    +0.003 A 
ATOM     29  C   UNL     1      10.146   2.514  23.018  0.00  0.00    +0.000 A 
ATOM     30  C   UNL     1      10.116   1.507  22.055  0.00  0.00    +0.000 A 
ATOM     31  C   UNL     1       8.938   1.239  21.361  0.00  0.00    +0.000 A 
ATOM     32  C   UNL     1       7.783   1.970  21.639  0.00  0.00    +0.003 A 
ENDBRANCH  26  27
ENDBRANCH  25  26
ENDBRANCH  19  25
ENDBRANCH   1  19
TORSDOF 10
ENDMDL
