MODEL 1
REMARK VINA RESULT:      -5.6      0.000      0.000
REMARK  Name = 
REMARK  6 active torsions:
REMARK  status: ('A' for Active; 'I' for Inactive)
REMARK    1  A    between atoms: N_1  and  C_2
REMARK    2  A    between atoms: C_7  and  C_8
REMARK    3  A    between atoms: C_8  and  C_10
REMARK    4  A    between atoms: C_10  and  C_11
REMARK    5  A    between atoms: C_11  and  C_12
REMARK    6  A    between atoms: C_12  and  O_13
REMARK                            x       y       z     vdW  Elec       q    Type
REMARK                         _______ _______ _______ _____ _____    ______ ____
ROOT
ATOM      1  C   UNL     1       9.912  -0.140  22.216  0.00  0.00    +0.035 A 
ATOM      2  C   UNL     1      10.050  -0.582  23.551  0.00  0.00    +0.038 A 
ATOM      3  C   UNL     1      10.285   0.349  24.576  0.00  0.00    +0.013 A 
ATOM      4  C   UNL     1      10.319   1.714  24.296  0.00  0.00    +0.001 A 
ATOM      5  C   UNL     1      10.114   2.159  22.995  0.00  0.00    +0.002 A 
ATOM      6  C   UNL     1       9.902   1.240  21.967  0.00  0.00    +0.023 A 
ENDROOT
BRANCH   1   7
ATOM      7  N   UNL     1       9.534  -1.000  21.168  0.00  0.00    -0.357 N 
ATOM      8  H   UNL     1       8.516  -1.063  21.065  0.00  0.00    +0.142 HD
ATOM      9  H   UNL     1       9.973  -1.915  21.191  0.00  0.00    +0.142 HD
ENDBRANCH   1   7
BRANCH   2  10
ATOM     10  C   UNL     1       9.904  -2.036  23.881  0.00  0.00    +0.165 C 
ATOM     11  O   UNL     1      10.586  -2.897  23.318  0.00  0.00    -0.292 OA
BRANCH  10  12
ATOM     12  C   UNL     1       8.803  -2.497  24.813  0.00  0.00    +0.091 C 
BRANCH  12  13
ATOM     13  C   UNL     1       8.363  -3.911  24.482  0.00  0.00    +0.128 C 
BRANCH  13  14
ATOM     14  C   UNL     1       8.969  -5.050  25.275  0.00  0.00    +0.305 C 
ATOM     15  O   UNL     1       8.307  -5.656  26.108  0.00  0.00    -0.251 OA
BRANCH  14  16
ATOM     16  O   UNL     1      10.255  -5.371  25.047  0.00  0.00    -0.481 OA
ATOM     17  H   UNL     1      10.930  -4.661  24.996  0.00  0.00    +0.295 HD
ENDBRANCH  14  16
ENDBRANCH  13  14
ENDBRANCH  12  13
ENDBRANCH  10  12
ENDBRANCH   2  10
TORSDOF 6
ENDMDL
MODEL 2
REMARK VINA RESULT:      -5.2      1.592      2.033
REMARK  Name = 
REMARK  6 active torsions:
REMARK  status: ('A' for Active; 'I' for Inactive)
REMARK    1  A    between atoms: N_1  and  C_2
REMARK    2  A    between atoms: C_7  and  C_8
REMARK    3  A    between atoms: C_8  and  C_10
REMARK    4  A    between atoms: C_10  and  C_11
REMARK    5  A    between atoms: C_11  and  C_12
REMARK    6  A    between atoms: C_12  and  O_13
REMARK                            x       y       z     vdW  Elec       q    Type
REMARK                         _______ _______ _______ _____ _____    ______ ____
ROOT
ATOM      1  C   UNL     1       9.892  -0.080  22.152  0.00  0.00    +0.035 A 
ATOM      2  C   UNL     1      10.057  -0.529  23.482  0.00  0.00    +0.038 A 
ATOM      3  C   UNL     1      10.354   0.392  24.500  0.00  0.00    +0.013 A 
ATOM      4  C   UNL     1      10.423   1.756  24.222  0.00  0.00    +0.001 A 
ATOM      5  C   UNL     1      10.192   2.210  22.928  0.00  0.00    +0.002 A 
ATOM      6  C   UNL     1       9.919   1.300  21.906  0.00  0.00    +0.023 A 
ENDROOT
BRANCH   1   7
ATOM      7  N   UNL     1       9.455  -0.924  21.116  0.00  0.00    -0.357 N 
ATOM      8  H   UNL     1       8.560  -1.375  21.333  0.00  0.00    +0.142 HD
ATOM      9  H   UNL     1      10.148  -1.591  20.791  0.00  0.00    +0.142 HD
ENDBRANCH   1   7
BRANCH   2  10
ATOM     10  C   UNL     1       9.875  -1.978  23.815  0.00  0.00    +0.165 C 
ATOM     11  O   UNL     1      10.641  -2.841  23.378  0.00  0.00    -0.292 OA
BRANCH  10  12
ATOM     12  C   UNL     1       8.650  -2.434  24.580  0.00  0.00    +0.091 C 
BRANCH  12  13
ATOM     13  C   UNL     1       8.099  -3.728  24.010  0.00  0.00    +0.128 C 
BRANCH  13  14
ATOM     14  C   UNL     1       7.395  -3.673  22.671  0.00  0.00    +0.305 C 
ATOM     15  O   UNL     1       7.257  -4.685  21.993  0.00  0.00    -0.251 OA
BRANCH  14  16
ATOM     16  O   UNL     1       6.933  -2.486  22.242  0.00  0.00    -0.481 OA
ATOM     17  H   UNL     1       7.292  -2.095  21.417  0.00  0.00    +0.295 HD
ENDBRANCH  14  16
ENDBRANCH  13  14
ENDBRANCH  12  13
ENDBRANCH  10  12
ENDBRANCH   2  10
TORSDOF 6
ENDMDL
MODEL 3
REMARK VINA RESULT:      -5.2      1.376      1.894
REMARK  Name = 
REMARK  6 active torsions:
REMARK  status: ('A' for Active; 'I' for Inactive)
REMARK    1  A    between atoms: N_1  and  C_2
REMARK    2  A    between atoms: C_7  and  C_8
REMARK    3  A    between atoms: C_8  and  C_10
REMARK    4  A    between atoms: C_10  and  C_11
REMARK    5  A    between atoms: C_11  and  C_12
REMARK    6  A    between atoms: C_12  and  O_13
REMARK                            x       y       z     vdW  Elec       q    Type
REMARK                         _______ _______ _______ _____ _____    ______ ____
ROOT
ATOM      1  C   UNL     1       9.645   0.211  24.246  0.00  0.00    +0.035 A 
ATOM      2  C   UNL     1       9.471  -0.898  23.389  0.00  0.00    +0.038 A 
ATOM      3  C   UNL     1       9.310  -0.698  22.008  0.00  0.00    +0.013 A 
ATOM      4  C   UNL     1       9.385   0.584  21.466  0.00  0.00    +0.001 A 
ATOM      5  C   UNL     1       9.625   1.673  22.297  0.00  0.00    +0.002 A 
ATOM      6  C   UNL     1       9.764   1.485  23.672  0.00  0.00    +0.023 A 
ENDROOT
BRANCH   1   7
ATOM      7  N   UNL     1       9.954   0.073  25.611  0.00  0.00    -0.357 N 
ATOM      8  H   UNL     1      10.903   0.395  25.830  0.00  0.00    +0.142 HD
ATOM      9  H   UNL     1       9.765  -0.846  25.998  0.00  0.00    +0.142 HD
ENDBRANCH   1   7
BRANCH   2  10
ATOM     10  C   UNL     1       9.502  -2.289  23.943  0.00  0.00    +0.165 C 
ATOM     11  O   UNL     1      10.479  -3.026  23.784  0.00  0.00    -0.292 OA
BRANCH  10  12
ATOM     12  C   UNL     1       8.265  -2.877  24.591  0.00  0.00    +0.091 C 
BRANCH  12  13
ATOM     13  C   UNL     1       8.174  -4.371  24.339  0.00  0.00    +0.128 C 
BRANCH  13  14
ATOM     14  C   UNL     1       8.750  -5.305  25.382  0.00  0.00    +0.305 C 
ATOM     15  O   UNL     1       8.053  -5.730  26.297  0.00  0.00    -0.251 OA
BRANCH  14  16
ATOM     16  O   UNL     1      10.045  -5.649  25.283  0.00  0.00    -0.481 OA
ATOM     17  H   UNL     1      10.452  -6.210  25.978  0.00  0.00    +0.295 HD
ENDBRANCH  14  16
ENDBRANCH  13  14
ENDBRANCH  12  13
ENDBRANCH  10  12
ENDBRANCH   2  10
TORSDOF 6
ENDMDL
MODEL 4
REMARK VINA RESULT:      -5.1      1.849      2.151
REMARK  Name = 
REMARK  6 active torsions:
REMARK  status: ('A' for Active; 'I' for Inactive)
REMARK    1  A    between atoms: N_1  and  C_2
REMARK    2  A    between atoms: C_7  and  C_8
REMARK    3  A    between atoms: C_8  and  C_10
REMARK    4  A    between atoms: C_10  and  C_11
REMARK    5  A    between atoms: C_11  and  C_12
REMARK    6  A    between atoms: C_12  and  O_13
REMARK                            x       y       z     vdW  Elec       q    Type
REMARK                         _______ _______ _______ _____ _____    ______ ____
ROOT
ATOM      1  C   UNL     1       7.503   0.076  22.691  0.00  0.00    +0.035 A 
ATOM      2  C   UNL     1       8.723  -0.603  22.472  0.00  0.00    +0.038 A 
ATOM      3  C   UNL     1       9.840   0.102  21.995  0.00  0.00    +0.013 A 
ATOM      4  C   UNL     1       9.774   1.480  21.797  0.00  0.00    +0.001 A 
ATOM      5  C   UNL     1       8.597   2.164  22.078  0.00  0.00    +0.002 A 
ATOM      6  C   UNL     1       7.476   1.469  22.531  0.00  0.00    +0.023 A 
ENDROOT
BRANCH   1   7
ATOM      7  N   UNL     1       6.393  -0.538  23.301  0.00  0.00    -0.357 N 
ATOM      8  H   UNL     1       6.540  -0.700  24.302  0.00  0.00    +0.142 HD
ATOM      9  H   UNL     1       6.054  -1.369  22.826  0.00  0.00    +0.142 HD
ENDBRANCH   1   7
BRANCH   2  10
ATOM     10  C   UNL     1       8.839  -2.062  22.787  0.00  0.00    +0.165 C 
ATOM     11  O   UNL     1       8.057  -2.890  22.309  0.00  0.00    -0.292 OA
BRANCH  10  12
ATOM     12  C   UNL     1       9.835  -2.539  23.823  0.00  0.00    +0.091 C 
BRANCH  12  13
ATOM     13  C   UNL     1       9.153  -3.371  24.894  0.00  0.00    +0.128 C 
BRANCH  13  14
ATOM     14  C   UNL     1       9.413  -4.863  24.910  0.00  0.00    +0.305 C 
ATOM     15  O   UNL     1       8.873  -5.602  24.094  0.00  0.00    -0.251 OA
BRANCH  14  16
ATOM     16  O   UNL     1      10.242  -5.356  25.846  0.00  0.00    -0.481 OA
ATOM     17  H   UNL     1      10.855  -4.751  26.318  0.00  0.00    +0.295 HD
ENDBRANCH  14  16
ENDBRANCH  13  14
ENDBRANCH  12  13
ENDBRANCH  10  12
ENDBRANCH   2  10
TORSDOF 6
ENDMDL
MODEL 5
REMARK VINA RESULT:      -5.0      1.832      2.287
REMARK  Name = 
REMARK  6 active torsions:
REMARK  status: ('A' for Active; 'I' for Inactive)
REMARK    1  A    between atoms: N_1  and  C_2
REMARK    2  A    between atoms: C_7  and  C_8
REMARK    3  A    between atoms: C_8  and  C_10
REMARK    4  A    between atoms: C_10  and  C_11
REMARK    5  A    between atoms: C_11  and  C_12
REMARK    6  A    between atoms: C_12  and  O_13
REMARK                            x       y       z     vdW  Elec       q    Type
REMARK                         _______ _______ _______ _____ _____    ______ ____
ROOT
ATOM      1  C   UNL     1       9.729   0.444  24.361  0.00  0.00    +0.035 A 
ATOM      2  C   UNL     1       9.614  -0.327  23.184  0.00  0.00    +0.038 A 
ATOM      3  C   UNL     1       9.721   0.291  21.927  0.00  0.00    +0.013 A 
ATOM      4  C   UNL     1      10.005   1.652  21.832  0.00  0.00    +0.001 A 
ATOM      5  C   UNL     1      10.188   2.404  22.988  0.00  0.00    +0.002 A 
ATOM      6  C   UNL     1      10.061   1.801  24.240  0.00  0.00    +0.023 A 
ENDROOT
BRANCH   1   7
ATOM      7  N   UNL     1       9.775  -0.132  25.644  0.00  0.00    -0.357 N 
ATOM      8  H   UNL     1       8.849  -0.424  25.973  0.00  0.00    +0.142 HD
ATOM      9  H   UNL     1      10.269   0.419  26.339  0.00  0.00    +0.142 HD
ENDBRANCH   1   7
BRANCH   2  10
ATOM     10  C   UNL     1       9.420  -1.810  23.272  0.00  0.00    +0.165 C 
ATOM     11  O   UNL     1      10.249  -2.537  23.829  0.00  0.00    -0.292 OA
BRANCH  10  12
ATOM     12  C   UNL     1       8.268  -2.471  22.546  0.00  0.00    +0.091 C 
BRANCH  12  13
ATOM     13  C   UNL     1       7.486  -3.382  23.475  0.00  0.00    +0.128 C 
BRANCH  13  14
ATOM     14  C   UNL     1       7.820  -4.859  23.472  0.00  0.00    +0.305 C 
ATOM     15  O   UNL     1       7.134  -5.656  22.842  0.00  0.00    -0.251 OA
BRANCH  14  16
ATOM     16  O   UNL     1       8.883  -5.274  24.183  0.00  0.00    -0.481 OA
ATOM     17  H   UNL     1       8.907  -5.121  25.152  0.00  0.00    +0.295 HD
ENDBRANCH  14  16
ENDBRANCH  13  14
ENDBRANCH  12  13
ENDBRANCH  10  12
ENDBRANCH   2  10
TORSDOF 6
ENDMDL
MODEL 6
REMARK VINA RESULT:      -4.9      2.697      4.205
REMARK  Name = 
REMARK  6 active torsions:
REMARK  status: ('A' for Active; 'I' for Inactive)
REMARK    1  A    between atoms: N_1  and  C_2
REMARK    2  A    between atoms: C_7  and  C_8
REMARK    3  A    between atoms: C_8  and  C_10
REMARK    4  A    between atoms: C_10  and  C_11
REMARK    5  A    between atoms: C_11  and  C_12
REMARK    6  A    between atoms: C_12  and  O_13
REMARK                            x       y       z     vdW  Elec       q    Type
REMARK                         _______ _______ _______ _____ _____    ______ ____
ROOT
ATOM      1  C   UNL     1       9.163   3.812  23.715  0.00  0.00    +0.035 A 
ATOM      2  C   UNL     1      10.343   3.166  23.283  0.00  0.00    +0.038 A 
ATOM      3  C   UNL     1      11.553   3.876  23.236  0.00  0.00    +0.013 A 
ATOM      4  C   UNL     1      11.614   5.197  23.675  0.00  0.00    +0.001 A 
ATOM      5  C   UNL     1      10.471   5.817  24.167  0.00  0.00    +0.002 A 
ATOM      6  C   UNL     1       9.260   5.125  24.196  0.00  0.00    +0.023 A 
ENDROOT
BRANCH   1   7
ATOM      7  N   UNL     1       7.954   3.123  23.922  0.00  0.00    -0.357 N 
ATOM      8  H   UNL     1       7.874   2.289  23.330  0.00  0.00    +0.142 HD
ATOM      9  H   UNL     1       7.122   3.703  23.877  0.00  0.00    +0.142 HD
ENDBRANCH   1   7
BRANCH   2  10
ATOM     10  C   UNL     1      10.314   1.714  22.915  0.00  0.00    +0.165 C 
ATOM     11  O   UNL     1       9.868   1.333  21.829  0.00  0.00    -0.292 OA
BRANCH  10  12
ATOM     12  C   UNL     1      10.698   0.663  23.935  0.00  0.00    +0.091 C 
BRANCH  12  13
ATOM     13  C   UNL     1       9.731  -0.507  23.906  0.00  0.00    +0.128 C 
BRANCH  13  14
ATOM     14  C   UNL     1      10.142  -1.751  23.148  0.00  0.00    +0.305 C 
ATOM     15  O   UNL     1      10.259  -2.827  23.724  0.00  0.00    -0.251 OA
BRANCH  14  16
ATOM     16  O   UNL     1      10.384  -1.644  21.830  0.00  0.00    -0.481 OA
ATOM     17  H   UNL     1       9.668  -1.345  21.229  0.00  0.00    +0.295 HD
ENDBRANCH  14  16
ENDBRANCH  13  14
ENDBRANCH  12  13
ENDBRANCH  10  12
ENDBRANCH   2  10
TORSDOF 6
ENDMDL
MODEL 7
REMARK VINA RESULT:      -4.8      3.535      4.760
REMARK  Name = 
REMARK  6 active torsions:
REMARK  status: ('A' for Active; 'I' for Inactive)
REMARK    1  A    between atoms: N_1  and  C_2
REMARK    2  A    between atoms: C_7  and  C_8
REMARK    3  A    between atoms: C_8  and  C_10
REMARK    4  A    between atoms: C_10  and  C_11
REMARK    5  A    between atoms: C_11  and  C_12
REMARK    6  A    between atoms: C_12  and  O_13
REMARK                            x       y       z     vdW  Elec       q    Type
REMARK                         _______ _______ _______ _____ _____    ______ ____
ROOT
ATOM      1  C   UNL     1       6.995  -3.275  22.750  0.00  0.00    +0.035 A 
ATOM      2  C   UNL     1       7.894  -4.207  23.318  0.00  0.00    +0.038 A 
ATOM      3  C   UNL     1       7.783  -5.570  22.999  0.00  0.00    +0.013 A 
ATOM      4  C   UNL     1       6.834  -6.005  22.076  0.00  0.00    +0.001 A 
ATOM      5  C   UNL     1       5.993  -5.084  21.462  0.00  0.00    +0.002 A 
ATOM      6  C   UNL     1       6.081  -3.731  21.789  0.00  0.00    +0.023 A 
ENDROOT
BRANCH   1   7
ATOM      7  N   UNL     1       7.140  -1.886  22.914  0.00  0.00    -0.357 N 
ATOM      8  H   UNL     1       6.297  -1.449  23.299  0.00  0.00    +0.142 HD
ATOM      9  H   UNL     1       7.482  -1.396  22.093  0.00  0.00    +0.142 HD
ENDBRANCH   1   7
BRANCH   2  10
ATOM     10  C   UNL     1       8.990  -3.738  24.224  0.00  0.00    +0.165 C 
ATOM     11  O   UNL     1       9.884  -2.988  23.821  0.00  0.00    -0.292 OA
BRANCH  10  12
ATOM     12  C   UNL     1       9.108  -4.296  25.627  0.00  0.00    +0.091 C 
BRANCH  12  13
ATOM     13  C   UNL     1       7.798  -4.158  26.382  0.00  0.00    +0.128 C 
BRANCH  13  14
ATOM     14  C   UNL     1       7.074  -5.424  26.790  0.00  0.00    +0.305 C 
ATOM     15  O   UNL     1       6.128  -5.843  26.133  0.00  0.00    -0.251 OA
BRANCH  14  16
ATOM     16  O   UNL     1       7.490  -6.069  27.893  0.00  0.00    -0.481 OA
ATOM     17  H   UNL     1       7.367  -7.039  27.963  0.00  0.00    +0.295 HD
ENDBRANCH  14  16
ENDBRANCH  13  14
ENDBRANCH  12  13
ENDBRANCH  10  12
ENDBRANCH   2  10
TORSDOF 6
ENDMDL
MODEL 8
REMARK VINA RESULT:      -4.7      4.523      5.788
REMARK  Name = 
REMARK  6 active torsions:
REMARK  status: ('A' for Active; 'I' for Inactive)
REMARK    1  A    between atoms: N_1  and  C_2
REMARK    2  A    between atoms: C_7  and  C_8
REMARK    3  A    between atoms: C_8  and  C_10
REMARK    4  A    between atoms: C_10  and  C_11
REMARK    5  A    between atoms: C_11  and  C_12
REMARK    6  A    between atoms: C_12  and  O_13
REMARK                            x       y       z     vdW  Elec       q    Type
REMARK                         _______ _______ _______ _____ _____    ______ ____
ROOT
ATOM      1  C   UNL     1       9.488   4.438  24.165  0.00  0.00    +0.035 A 
ATOM      2  C   UNL     1      10.490   3.616  23.603  0.00  0.00    +0.038 A 
ATOM      3  C   UNL     1      11.753   4.154  23.305  0.00  0.00    +0.013 A 
ATOM      4  C   UNL     1      12.048   5.479  23.621  0.00  0.00    +0.001 A 
ATOM      5  C   UNL     1      11.089   6.274  24.237  0.00  0.00    +0.002 A 
ATOM      6  C   UNL     1       9.825   5.754  24.516  0.00  0.00    +0.023 A 
ENDROOT
BRANCH   1   7
ATOM      7  N   UNL     1       8.257   3.931  24.618  0.00  0.00    -0.357 N 
ATOM      8  H   UNL     1       7.634   3.674  23.846  0.00  0.00    +0.142 HD
ATOM      9  H   UNL     1       7.789   4.509  25.309  0.00  0.00    +0.142 HD
ENDBRANCH   1   7
BRANCH   2  10
ATOM     10  C   UNL     1      10.222   2.162  23.364  0.00  0.00    +0.165 C 
ATOM     11  O   UNL     1      10.277   1.336  24.280  0.00  0.00    -0.292 OA
BRANCH  10  12
ATOM     12  C   UNL     1      10.022   1.647  21.954  0.00  0.00    +0.091 C 
BRANCH  12  13
ATOM     13  C   UNL     1       8.710   0.894  21.828  0.00  0.00    +0.128 C 
BRANCH  13  14
ATOM     14  C   UNL     1       7.424   1.664  22.043  0.00  0.00    +0.305 C 
ATOM     15  O   UNL     1       7.357   2.860  21.781  0.00  0.00    -0.251 OA
BRANCH  14  16
ATOM     16  O   UNL     1       6.361   1.004  22.535  0.00  0.00    -0.481 OA
ATOM     17  H   UNL     1       6.350   0.023  22.520  0.00  0.00    +0.295 HD
ENDBRANCH  14  16
ENDBRANCH  13  14
ENDBRANCH  12  13
ENDBRANCH  10  12
ENDBRANCH   2  10
TORSDOF 6
ENDMDL
MODEL 9
REMARK VINA RESULT:      -4.6      2.323      3.370
REMARK  Name = 
REMARK  6 active torsions:
REMARK  status: ('A' for Active; 'I' for Inactive)
REMARK    1  A    between atoms: N_1  and  C_2
REMARK    2  A    between atoms: C_7  and  C_8
REMARK    3  A    between atoms: C_8  and  C_10
REMARK    4  A    between atoms: C_10  and  C_11
REMARK    5  A    between atoms: C_11  and  C_12
REMARK    6  A    between atoms: C_12  and  O_13
REMARK                            x       y       z     vdW  Elec       q    Type
REMARK                         _______ _______ _______ _____ _____    ______ ____
ROOT
ATOM      1  C   UNL     1       7.978  -3.469  23.111  0.00  0.00    +0.035 A 
ATOM      2  C   UNL     1       8.985  -3.391  24.099  0.00  0.00    +0.038 A 
ATOM      3  C   UNL     1       9.748  -2.219  24.231  0.00  0.00    +0.013 A 
ATOM      4  C   UNL     1       9.478  -1.107  23.436  0.00  0.00    +0.001 A 
ATOM      5  C   UNL     1       8.443  -1.154  22.508  0.00  0.00    +0.002 A 
ATOM      6  C   UNL     1       7.694  -2.322  22.356  0.00  0.00    +0.023 A 
ENDROOT
BRANCH   1   7
ATOM      7  N   UNL     1       7.086  -4.553  23.021  0.00  0.00    -0.357 N 
ATOM      8  H   UNL     1       6.837  -4.929  23.942  0.00  0.00    +0.142 HD
ATOM      9  H   UNL     1       7.370  -5.283  22.376  0.00  0.00    +0.142 HD
ENDBRANCH   1   7
BRANCH   2  10
ATOM     10  C   UNL     1       9.210  -4.538  25.036  0.00  0.00    +0.165 C 
ATOM     11  O   UNL     1       9.506  -5.662  24.619  0.00  0.00    -0.292 OA
BRANCH  10  12
ATOM     12  C   UNL     1       8.934  -4.377  26.516  0.00  0.00    +0.091 C 
BRANCH  12  13
ATOM     13  C   UNL     1       7.446  -4.248  26.784  0.00  0.00    +0.128 C 
BRANCH  13  14
ATOM     14  C   UNL     1       6.585  -5.486  26.637  0.00  0.00    +0.305 C 
ATOM     15  O   UNL     1       6.515  -6.311  27.541  0.00  0.00    -0.251 OA
BRANCH  14  16
ATOM     16  O   UNL     1       5.910  -5.660  25.488  0.00  0.00    -0.481 OA
ATOM     17  H   UNL     1       5.356  -4.931  25.136  0.00  0.00    +0.295 HD
ENDBRANCH  14  16
ENDBRANCH  13  14
ENDBRANCH  12  13
ENDBRANCH  10  12
ENDBRANCH   2  10
TORSDOF 6
ENDMDL
