MODEL 1
REMARK VINA RESULT:      -6.9      0.000      0.000
REMARK  Name = 
REMARK  9 active torsions:
REMARK  status: ('A' for Active; 'I' for Inactive)
REMARK    1  A    between atoms: C_1  and  C_2
REMARK    2  A    between atoms: C_4  and  C_13
REMARK    3  A    between atoms: C_6  and  C_7
REMARK    4  A    between atoms: C_8  and  O_9
REMARK    5  A    between atoms: O_9  and  C_10
REMARK    6  A    between atoms: C_10  and  C_11
REMARK    7  A    between atoms: C_11  and  N_12
REMARK    8  A    between atoms: N_15  and  C_16
REMARK    9  A    between atoms: C_21  and  N_23
REMARK                            x       y       z     vdW  Elec       q    Type
REMARK                         _______ _______ _______ _____ _____    ______ ____
ROOT
ATOM      1  C   UNL     1       7.349  -0.797  23.386  0.00  0.00    +0.248 C 
ATOM      2  N   UNL     1       7.943  -1.993  23.006  0.00  0.00    -0.281 N 
ATOM      3  H   UNL     1       8.917  -1.974  22.728  0.00  0.00    +0.155 HD
ATOM      4  O   UNL     1       6.182  -0.662  23.754  0.00  0.00    -0.270 OA
ENDROOT
BRANCH   1  11
ATOM      5  C   UNL     1      11.723   1.087  24.561  0.00  0.00    +0.047 C 
ATOM      6  C   UNL     1      10.367   1.405  23.992  0.00  0.00    -0.008 A 
ATOM      7  C   UNL     1       9.881   2.687  23.683  0.00  0.00    +0.126 A 
ATOM      8  C   UNL     1       8.530   2.840  23.266  0.00  0.00    -0.008 A 
ATOM      9  C   UNL     1       7.973   4.219  23.011  0.00  0.00    +0.047 C 
ATOM     10  C   UNL     1       7.684   1.717  23.116  0.00  0.00    +0.020 A 
ATOM     11  C   UNL     1       8.172   0.445  23.391  0.00  0.00    +0.038 A 
ATOM     12  C   UNL     1       9.502   0.307  23.822  0.00  0.00    +0.020 A 
BRANCH   7  13
ATOM     13  O   UNL     1      10.560   3.876  23.804  0.00  0.00    -0.490 OA
BRANCH  13  14
ATOM     14  C   UNL     1      11.706   4.100  22.982  0.00  0.00    +0.244 C 
BRANCH  14  15
ATOM     15  C   UNL     1      12.574   5.221  23.573  0.00  0.00    +0.119 C 
BRANCH  15  16
ATOM     16  N   UNL     1      13.964   5.173  23.119  0.00  0.00    -0.327 NA
ATOM     17  H   UNL     1      14.137   5.951  22.483  0.00  0.00    +0.118 HD
ATOM     18  H   UNL     1      14.572   5.320  23.927  0.00  0.00    +0.118 HD
ENDBRANCH  15  16
ENDBRANCH  14  15
ENDBRANCH  13  14
ENDBRANCH   7  13
ENDBRANCH   1  11
BRANCH   2  19
ATOM     19  C   UNL     1       7.316  -3.276  23.044  0.00  0.00    +0.037 A 
ATOM     20  C   UNL     1       7.000  -3.851  24.294  0.00  0.00    +0.046 A 
ATOM     21  C   UNL     1       6.365  -5.112  24.419  0.00  0.00    +0.033 A 
ATOM     22  C   UNL     1       6.066  -5.781  23.223  0.00  0.00    +0.043 A 
ATOM     23  C   UNL     1       6.358  -5.223  21.983  0.00  0.00    +0.044 A 
ATOM     24 CL   UNL     1       5.946  -6.082  20.547  0.00  0.00    -0.083 Cl
ATOM     25  C   UNL     1       6.980  -3.985  21.890  0.00  0.00    +0.043 A 
BRANCH  21  26
ATOM     26  N   UNL     1       6.056  -5.690  25.642  0.00  0.00    -0.330 N 
ATOM     27  C   UNL     1       4.958  -6.641  25.822  0.00  0.00    +0.105 C 
ATOM     28  C   UNL     1       4.059  -6.163  26.969  0.00  0.00    +0.019 C 
ATOM     29  C   UNL     1       4.852  -5.900  28.249  0.00  0.00    +0.003 C 
ATOM     30  C   UNL     1       6.021  -4.954  27.981  0.00  0.00    +0.019 C 
ATOM     31  C   UNL     1       6.889  -5.478  26.837  0.00  0.00    +0.105 C 
ENDBRANCH  21  26
ENDBRANCH   2  19
TORSDOF 7
ENDMDL
MODEL 2
REMARK VINA RESULT:      -6.8      3.858      9.542
REMARK  Name = 
REMARK  9 active torsions:
REMARK  status: ('A' for Active; 'I' for Inactive)
REMARK    1  A    between atoms: C_1  and  C_2
REMARK    2  A    between atoms: C_4  and  C_13
REMARK    3  A    between atoms: C_6  and  C_7
REMARK    4  A    between atoms: C_8  and  O_9
REMARK    5  A    between atoms: O_9  and  C_10
REMARK    6  A    between atoms: C_10  and  C_11
REMARK    7  A    between atoms: C_11  and  N_12
REMARK    8  A    between atoms: N_15  and  C_16
REMARK    9  A    between atoms: C_21  and  N_23
REMARK                            x       y       z     vdW  Elec       q    Type
REMARK                         _______ _______ _______ _____ _____    ______ ____
ROOT
ATOM      1  C   UNL     1       9.548   0.043  24.197  0.00  0.00    +0.248 C 
ATOM      2  N   UNL     1       9.288   1.038  23.263  0.00  0.00    -0.281 N 
ATOM      3  H   UNL     1       8.765   0.787  22.433  0.00  0.00    +0.155 HD
ATOM      4  O   UNL     1      10.162   0.196  25.253  0.00  0.00    -0.270 OA
ENDROOT
BRANCH   1  11
ATOM      5  C   UNL     1       5.932  -2.540  22.121  0.00  0.00    +0.047 C 
ATOM      6  C   UNL     1       7.205  -2.638  22.917  0.00  0.00    -0.008 A 
ATOM      7  C   UNL     1       7.730  -3.808  23.492  0.00  0.00    +0.126 A 
ATOM      8  C   UNL     1       8.882  -3.722  24.323  0.00  0.00    -0.008 A 
ATOM      9  C   UNL     1       9.406  -4.957  25.012  0.00  0.00    +0.047 C 
ATOM     10  C   UNL     1       9.529  -2.484  24.541  0.00  0.00    +0.020 A 
ATOM     11  C   UNL     1       9.029  -1.330  23.948  0.00  0.00    +0.038 A 
ATOM     12  C   UNL     1       7.879  -1.424  23.147  0.00  0.00    +0.020 A 
BRANCH   7  13
ATOM     13  O   UNL     1       7.206  -5.076  23.404  0.00  0.00    -0.490 OA
BRANCH  13  14
ATOM     14  C   UNL     1       7.423  -5.827  22.208  0.00  0.00    +0.244 C 
BRANCH  14  15
ATOM     15  C   UNL     1       6.119  -5.935  21.404  0.00  0.00    +0.119 C 
BRANCH  15  16
ATOM     16  N   UNL     1       4.926  -6.016  22.249  0.00  0.00    -0.327 NA
ATOM     17  H   UNL     1       4.217  -5.378  21.890  0.00  0.00    +0.118 HD
ATOM     18  H   UNL     1       4.538  -6.957  22.166  0.00  0.00    +0.118 HD
ENDBRANCH  15  16
ENDBRANCH  14  15
ENDBRANCH  13  14
ENDBRANCH   7  13
ENDBRANCH   1  11
BRANCH   2  19
ATOM     19  C   UNL     1       9.632   2.417  23.408  0.00  0.00    +0.037 A 
ATOM     20  C   UNL     1       8.614   3.356  23.682  0.00  0.00    +0.046 A 
ATOM     21  C   UNL     1       8.873   4.738  23.853  0.00  0.00    +0.033 A 
ATOM     22  C   UNL     1      10.210   5.143  23.727  0.00  0.00    +0.043 A 
ATOM     23  C   UNL     1      11.228   4.230  23.470  0.00  0.00    +0.044 A 
ATOM     24 CL   UNL     1      12.855   4.782  23.348  0.00  0.00    -0.083 Cl
ATOM     25  C   UNL     1      10.945   2.880  23.307  0.00  0.00    +0.043 A 
BRANCH  21  26
ATOM     26  N   UNL     1       7.880   5.671  24.116  0.00  0.00    -0.330 N 
ATOM     27  C   UNL     1       7.163   5.738  25.390  0.00  0.00    +0.105 C 
ATOM     28  C   UNL     1       5.653   5.712  25.122  0.00  0.00    +0.019 C 
ATOM     29  C   UNL     1       5.228   6.793  24.127  0.00  0.00    +0.003 C 
ATOM     30  C   UNL     1       6.058   6.711  22.848  0.00  0.00    +0.019 C 
ATOM     31  C   UNL     1       7.551   6.748  23.168  0.00  0.00    +0.105 C 
ENDBRANCH  21  26
ENDBRANCH   2  19
TORSDOF 7
ENDMDL
MODEL 3
REMARK VINA RESULT:      -6.7      1.737      2.607
REMARK  Name = 
REMARK  9 active torsions:
REMARK  status: ('A' for Active; 'I' for Inactive)
REMARK    1  A    between atoms: C_1  and  C_2
REMARK    2  A    between atoms: C_4  and  C_13
REMARK    3  A    between atoms: C_6  and  C_7
REMARK    4  A    between atoms: C_8  and  O_9
REMARK    5  A    between atoms: O_9  and  C_10
REMARK    6  A    between atoms: C_10  and  C_11
REMARK    7  A    between atoms: C_11  and  N_12
REMARK    8  A    between atoms: N_15  and  C_16
REMARK    9  A    between atoms: C_21  and  N_23
REMARK                            x       y       z     vdW  Elec       q    Type
REMARK                         _______ _______ _______ _____ _____    ______ ____
ROOT
ATOM      1  C   UNL     1       8.267  -1.048  23.474  0.00  0.00    +0.248 C 
ATOM      2  N   UNL     1       6.990  -1.588  23.390  0.00  0.00    -0.281 N 
ATOM      3  H   UNL     1       6.208  -0.951  23.300  0.00  0.00    +0.155 HD
ATOM      4  O   UNL     1       9.311  -1.691  23.578  0.00  0.00    -0.270 OA
ENDROOT
BRANCH   1  11
ATOM      5  C   UNL     1       6.024   3.159  22.320  0.00  0.00    +0.047 C 
ATOM      6  C   UNL     1       7.310   2.553  22.813  0.00  0.00    -0.008 A 
ATOM      7  C   UNL     1       8.524   3.236  23.005  0.00  0.00    +0.126 A 
ATOM      8  C   UNL     1       9.690   2.502  23.358  0.00  0.00    -0.008 A 
ATOM      9  C   UNL     1      11.015   3.211  23.486  0.00  0.00    +0.047 C 
ATOM     10  C   UNL     1       9.634   1.104  23.563  0.00  0.00    +0.020 A 
ATOM     11  C   UNL     1       8.427   0.432  23.404  0.00  0.00    +0.038 A 
ATOM     12  C   UNL     1       7.287   1.163  23.034  0.00  0.00    +0.020 A 
BRANCH   7  13
ATOM     13  O   UNL     1       8.752   4.578  22.817  0.00  0.00    -0.490 OA
BRANCH  13  14
ATOM     14  C   UNL     1       8.104   5.513  23.682  0.00  0.00    +0.244 C 
BRANCH  14  15
ATOM     15  C   UNL     1       7.424   6.617  22.859  0.00  0.00    +0.119 C 
BRANCH  15  16
ATOM     16  N   UNL     1       7.434   6.351  21.420  0.00  0.00    -0.327 NA
ATOM     17  H   UNL     1       7.405   5.345  21.263  0.00  0.00    +0.118 HD
ATOM     18  H   UNL     1       6.575   6.731  21.018  0.00  0.00    +0.118 HD
ENDBRANCH  15  16
ENDBRANCH  14  15
ENDBRANCH  13  14
ENDBRANCH   7  13
ENDBRANCH   1  11
BRANCH   2  19
ATOM     19  C   UNL     1       6.685  -2.983  23.343  0.00  0.00    +0.037 A 
ATOM     20  C   UNL     1       6.434  -3.674  24.548  0.00  0.00    +0.046 A 
ATOM     21  C   UNL     1       6.111  -5.053  24.587  0.00  0.00    +0.033 A 
ATOM     22  C   UNL     1       6.058  -5.717  23.352  0.00  0.00    +0.043 A 
ATOM     23  C   UNL     1       6.290  -5.049  22.154  0.00  0.00    +0.044 A 
ATOM     24 CL   UNL     1       6.190  -5.912  20.666  0.00  0.00    -0.083 Cl
ATOM     25  C   UNL     1       6.604  -3.696  22.146  0.00  0.00    +0.043 A 
BRANCH  21  26
ATOM     26  N   UNL     1       5.869  -5.745  25.765  0.00  0.00    -0.330 N 
ATOM     27  C   UNL     1       4.827  -6.765  25.894  0.00  0.00    +0.105 C 
ATOM     28  C   UNL     1       3.939  -6.432  27.099  0.00  0.00    +0.019 C 
ATOM     29  C   UNL     1       4.755  -6.231  28.376  0.00  0.00    +0.003 C 
ATOM     30  C   UNL     1       5.865  -5.205  28.157  0.00  0.00    +0.019 C 
ATOM     31  C   UNL     1       6.724  -5.586  26.952  0.00  0.00    +0.105 C 
ENDBRANCH  21  26
ENDBRANCH   2  19
TORSDOF 7
ENDMDL
MODEL 4
REMARK VINA RESULT:      -6.6      2.696      3.418
REMARK  Name = 
REMARK  9 active torsions:
REMARK  status: ('A' for Active; 'I' for Inactive)
REMARK    1  A    between atoms: C_1  and  C_2
REMARK    2  A    between atoms: C_4  and  C_13
REMARK    3  A    between atoms: C_6  and  C_7
REMARK    4  A    between atoms: C_8  and  O_9
REMARK    5  A    between atoms: O_9  and  C_10
REMARK    6  A    between atoms: C_10  and  C_11
REMARK    7  A    between atoms: C_11  and  N_12
REMARK    8  A    between atoms: N_15  and  C_16
REMARK    9  A    between atoms: C_21  and  N_23
REMARK                            x       y       z     vdW  Elec       q    Type
REMARK                         _______ _______ _______ _____ _____    ______ ____
ROOT
ATOM      1  C   UNL     1       9.167   0.083  24.214  0.00  0.00    +0.248 C 
ATOM      2  N   UNL     1       8.173  -0.643  24.857  0.00  0.00    -0.281 N 
ATOM      3  H   UNL     1       7.446  -0.130  25.341  0.00  0.00    +0.155 HD
ATOM      4  O   UNL     1      10.108  -0.395  23.582  0.00  0.00    -0.270 OA
ENDROOT
BRANCH   1  11
ATOM      5  C   UNL     1      11.629   4.205  23.206  0.00  0.00    +0.047 C 
ATOM      6  C   UNL     1      10.342   3.652  23.755  0.00  0.00    -0.008 A 
ATOM      7  C   UNL     1       9.319   4.396  24.367  0.00  0.00    +0.126 A 
ATOM      8  C   UNL     1       8.213   3.715  24.949  0.00  0.00    -0.008 A 
ATOM      9  C   UNL     1       7.150   4.496  25.681  0.00  0.00    +0.047 C 
ATOM     10  C   UNL     1       8.109   2.307  24.880  0.00  0.00    +0.020 A 
ATOM     11  C   UNL     1       9.104   1.572  24.246  0.00  0.00    +0.038 A 
ATOM     12  C   UNL     1      10.202   2.252  23.694  0.00  0.00    +0.020 A 
BRANCH   7  13
ATOM     13  O   UNL     1       9.284   5.758  24.543  0.00  0.00    -0.490 OA
BRANCH  13  14
ATOM     14  C   UNL     1       9.190   6.598  23.392  0.00  0.00    +0.244 C 
BRANCH  14  15
ATOM     15  C   UNL     1       7.741   6.644  22.883  0.00  0.00    +0.119 C 
BRANCH  15  16
ATOM     16  N   UNL     1       7.587   6.100  21.534  0.00  0.00    -0.327 NA
ATOM     17  H   UNL     1       8.491   6.107  21.063  0.00  0.00    +0.118 HD
ATOM     18  H   UNL     1       7.310   5.120  21.613  0.00  0.00    +0.118 HD
ENDBRANCH  15  16
ENDBRANCH  14  15
ENDBRANCH  13  14
ENDBRANCH   7  13
ENDBRANCH   1  11
BRANCH   2  19
ATOM     19  C   UNL     1       8.043  -2.066  24.832  0.00  0.00    +0.037 A 
ATOM     20  C   UNL     1       6.820  -2.638  24.420  0.00  0.00    +0.046 A 
ATOM     21  C   UNL     1       6.613  -4.038  24.354  0.00  0.00    +0.033 A 
ATOM     22  C   UNL     1       7.695  -4.847  24.731  0.00  0.00    +0.043 A 
ATOM     23  C   UNL     1       8.911  -4.301  25.127  0.00  0.00    +0.044 A 
ATOM     24 CL   UNL     1      10.212  -5.344  25.557  0.00  0.00    -0.083 Cl
ATOM     25  C   UNL     1       9.086  -2.924  25.182  0.00  0.00    +0.043 A 
BRANCH  21  26
ATOM     26  N   UNL     1       5.414  -4.612  23.956  0.00  0.00    -0.330 N 
ATOM     27  C   UNL     1       4.138  -3.895  23.976  0.00  0.00    +0.105 C 
ATOM     28  C   UNL     1       3.106  -4.721  24.753  0.00  0.00    +0.019 C 
ATOM     29  C   UNL     1       2.993  -6.149  24.218  0.00  0.00    +0.003 C 
ATOM     30  C   UNL     1       4.364  -6.818  24.160  0.00  0.00    +0.019 C 
ATOM     31  C   UNL     1       5.352  -5.961  23.370  0.00  0.00    +0.105 C 
ENDBRANCH  21  26
ENDBRANCH   2  19
TORSDOF 7
ENDMDL
MODEL 5
REMARK VINA RESULT:      -6.3      3.306      9.842
REMARK  Name = 
REMARK  9 active torsions:
REMARK  status: ('A' for Active; 'I' for Inactive)
REMARK    1  A    between atoms: C_1  and  C_2
REMARK    2  A    between atoms: C_4  and  C_13
REMARK    3  A    between atoms: C_6  and  C_7
REMARK    4  A    between atoms: C_8  and  O_9
REMARK    5  A    between atoms: O_9  and  C_10
REMARK    6  A    between atoms: C_10  and  C_11
REMARK    7  A    between atoms: C_11  and  N_12
REMARK    8  A    between atoms: N_15  and  C_16
REMARK    9  A    between atoms: C_21  and  N_23
REMARK                            x       y       z     vdW  Elec       q    Type
REMARK                         _______ _______ _______ _____ _____    ______ ____
ROOT
ATOM      1  C   UNL     1       7.468  -2.862  25.169  0.00  0.00    +0.248 C 
ATOM      2  N   UNL     1       7.541  -2.042  24.050  0.00  0.00    -0.281 N 
ATOM      3  H   UNL     1       7.095  -2.358  23.198  0.00  0.00    +0.155 HD
ATOM      4  O   UNL     1       7.952  -2.612  26.273  0.00  0.00    -0.270 OA
ENDROOT
BRANCH   1  11
ATOM      5  C   UNL     1       5.328  -6.005  22.070  0.00  0.00    +0.047 C 
ATOM      6  C   UNL     1       5.630  -5.728  23.518  0.00  0.00    -0.008 A 
ATOM      7  C   UNL     1       5.140  -6.455  24.616  0.00  0.00    +0.126 A 
ATOM      8  C   UNL     1       5.414  -5.998  25.935  0.00  0.00    -0.008 A 
ATOM      9  C   UNL     1       4.825  -6.722  27.120  0.00  0.00    +0.047 C 
ATOM     10  C   UNL     1       6.209  -4.849  26.154  0.00  0.00    +0.020 A 
ATOM     11  C   UNL     1       6.722  -4.147  25.069  0.00  0.00    +0.038 A 
ATOM     12  C   UNL     1       6.426  -4.595  23.771  0.00  0.00    +0.020 A 
BRANCH   7  13
ATOM     13  O   UNL     1       4.332  -7.566  24.574  0.00  0.00    -0.490 OA
BRANCH  13  14
ATOM     14  C   UNL     1       2.961  -7.406  24.206  0.00  0.00    +0.244 C 
BRANCH  14  15
ATOM     15  C   UNL     1       2.051  -8.102  25.228  0.00  0.00    +0.119 C 
BRANCH  15  16
ATOM     16  N   UNL     1       2.234  -9.554  25.268  0.00  0.00    -0.327 NA
ATOM     17  H   UNL     1       1.325 -10.009  25.203  0.00  0.00    +0.118 HD
ATOM     18  H   UNL     1       2.758  -9.834  24.436  0.00  0.00    +0.118 HD
ENDBRANCH  15  16
ENDBRANCH  14  15
ENDBRANCH  13  14
ENDBRANCH   7  13
ENDBRANCH   1  11
BRANCH   2  19
ATOM     19  C   UNL     1       8.133  -0.741  24.017  0.00  0.00    +0.037 A 
ATOM     20  C   UNL     1       7.316   0.380  23.755  0.00  0.00    +0.046 A 
ATOM     21  C   UNL     1       7.821   1.703  23.718  0.00  0.00    +0.033 A 
ATOM     22  C   UNL     1       9.197   1.853  23.949  0.00  0.00    +0.043 A 
ATOM     23  C   UNL     1      10.014   0.761  24.222  0.00  0.00    +0.044 A 
ATOM     24 CL   UNL     1      11.692   1.008  24.521  0.00  0.00    -0.083 Cl
ATOM     25  C   UNL     1       9.491  -0.526  24.252  0.00  0.00    +0.043 A 
BRANCH  21  26
ATOM     26  N   UNL     1       7.030   2.813  23.455  0.00  0.00    -0.330 N 
ATOM     27  C   UNL     1       6.879   3.389  22.118  0.00  0.00    +0.105 C 
ATOM     28  C   UNL     1       7.190   4.889  22.177  0.00  0.00    +0.019 C 
ATOM     29  C   UNL     1       6.363   5.606  23.244  0.00  0.00    +0.003 C 
ATOM     30  C   UNL     1       6.511   4.918  24.599  0.00  0.00    +0.019 C 
ATOM     31  C   UNL     1       6.184   3.429  24.489  0.00  0.00    +0.105 C 
ENDBRANCH  21  26
ENDBRANCH   2  19
TORSDOF 7
ENDMDL
MODEL 6
REMARK VINA RESULT:      -6.2      2.212      3.253
REMARK  Name = 
REMARK  9 active torsions:
REMARK  status: ('A' for Active; 'I' for Inactive)
REMARK    1  A    between atoms: C_1  and  C_2
REMARK    2  A    between atoms: C_4  and  C_13
REMARK    3  A    between atoms: C_6  and  C_7
REMARK    4  A    between atoms: C_8  and  O_9
REMARK    5  A    between atoms: O_9  and  C_10
REMARK    6  A    between atoms: C_10  and  C_11
REMARK    7  A    between atoms: C_11  and  N_12
REMARK    8  A    between atoms: N_15  and  C_16
REMARK    9  A    between atoms: C_21  and  N_23
REMARK                            x       y       z     vdW  Elec       q    Type
REMARK                         _______ _______ _______ _____ _____    ______ ____
ROOT
ATOM      1  C   UNL     1       7.543  -1.078  23.124  0.00  0.00    +0.248 C 
ATOM      2  N   UNL     1       6.212  -1.476  23.136  0.00  0.00    -0.281 N 
ATOM      3  H   UNL     1       5.500  -0.758  23.177  0.00  0.00    +0.155 HD
ATOM      4  O   UNL     1       8.515  -1.831  23.068  0.00  0.00    -0.270 OA
ENDROOT
BRANCH   1  11
ATOM      5  C   UNL     1       5.757   3.405  22.242  0.00  0.00    +0.047 C 
ATOM      6  C   UNL     1       6.971   2.638  22.693  0.00  0.00    -0.008 A 
ATOM      7  C   UNL     1       8.248   3.177  22.926  0.00  0.00    +0.126 A 
ATOM      8  C   UNL     1       9.329   2.304  23.231  0.00  0.00    -0.008 A 
ATOM      9  C   UNL     1      10.720   2.861  23.402  0.00  0.00    +0.047 C 
ATOM     10  C   UNL     1       9.126   0.909  23.347  0.00  0.00    +0.020 A 
ATOM     11  C   UNL     1       7.857   0.378  23.148  0.00  0.00    +0.038 A 
ATOM     12  C   UNL     1       6.801   1.246  22.826  0.00  0.00    +0.020 A 
BRANCH   7  13
ATOM     13  O   UNL     1       8.616   4.497  22.824  0.00  0.00    -0.490 OA
BRANCH  13  14
ATOM     14  C   UNL     1       7.990   5.453  23.682  0.00  0.00    +0.244 C 
BRANCH  14  15
ATOM     15  C   UNL     1       7.526   6.671  22.870  0.00  0.00    +0.119 C 
BRANCH  15  16
ATOM     16  N   UNL     1       7.410   6.399  21.437  0.00  0.00    -0.327 NA
ATOM     17  H   UNL     1       7.058   7.231  20.965  0.00  0.00    +0.118 HD
ATOM     18  H   UNL     1       8.347   6.230  21.066  0.00  0.00    +0.118 HD
ENDBRANCH  15  16
ENDBRANCH  14  15
ENDBRANCH  13  14
ENDBRANCH   7  13
ENDBRANCH   1  11
BRANCH   2  19
ATOM     19  C   UNL     1       5.752  -2.824  23.017  0.00  0.00    +0.037 A 
ATOM     20  C   UNL     1       4.831  -3.323  23.963  0.00  0.00    +0.046 A 
ATOM     21  C   UNL     1       4.316  -4.642  23.909  0.00  0.00    +0.033 A 
ATOM     22  C   UNL     1       4.777  -5.449  22.858  0.00  0.00    +0.043 A 
ATOM     23  C   UNL     1       5.674  -4.970  21.910  0.00  0.00    +0.044 A 
ATOM     24 CL   UNL     1       6.187  -6.000  20.628  0.00  0.00    -0.083 Cl
ATOM     25  C   UNL     1       6.162  -3.672  21.987  0.00  0.00    +0.043 A 
BRANCH  21  26
ATOM     26  N   UNL     1       3.416  -5.146  24.837  0.00  0.00    -0.330 N 
ATOM     27  C   UNL     1       3.710  -5.240  26.268  0.00  0.00    +0.105 C 
ATOM     28  C   UNL     1       3.444  -6.673  26.745  0.00  0.00    +0.019 C 
ATOM     29  C   UNL     1       2.038  -7.148  26.381  0.00  0.00    +0.003 C 
ATOM     30  C   UNL     1       1.770  -6.963  24.889  0.00  0.00    +0.019 C 
ATOM     31  C   UNL     1       2.041  -5.520  24.466  0.00  0.00    +0.105 C 
ENDBRANCH  21  26
ENDBRANCH   2  19
TORSDOF 7
ENDMDL
MODEL 7
REMARK VINA RESULT:      -6.2      2.078      2.594
REMARK  Name = 
REMARK  9 active torsions:
REMARK  status: ('A' for Active; 'I' for Inactive)
REMARK    1  A    between atoms: C_1  and  C_2
REMARK    2  A    between atoms: C_4  and  C_13
REMARK    3  A    between atoms: C_6  and  C_7
REMARK    4  A    between atoms: C_8  and  O_9
REMARK    5  A    between atoms: O_9  and  C_10
REMARK    6  A    between atoms: C_10  and  C_11
REMARK    7  A    between atoms: C_11  and  N_12
REMARK    8  A    between atoms: N_15  and  C_16
REMARK    9  A    between atoms: C_21  and  N_23
REMARK                            x       y       z     vdW  Elec       q    Type
REMARK                         _______ _______ _______ _____ _____    ______ ____
ROOT
ATOM      1  C   UNL     1       7.303  -1.286  24.102  0.00  0.00    +0.248 C 
ATOM      2  N   UNL     1       6.077  -1.618  23.541  0.00  0.00    -0.281 N 
ATOM      3  H   UNL     1       5.474  -0.864  23.234  0.00  0.00    +0.155 HD
ATOM      4  O   UNL     1       8.143  -2.087  24.512  0.00  0.00    -0.270 OA
ENDROOT
BRANCH   1  11
ATOM      5  C   UNL     1      10.222   2.210  22.280  0.00  0.00    +0.047 C 
ATOM      6  C   UNL     1       9.157   1.915  23.301  0.00  0.00    -0.008 A 
ATOM      7  C   UNL     1       8.715   2.789  24.309  0.00  0.00    +0.126 A 
ATOM      8  C   UNL     1       7.785   2.322  25.280  0.00  0.00    -0.008 A 
ATOM      9  C   UNL     1       7.366   3.224  26.414  0.00  0.00    +0.047 C 
ATOM     10  C   UNL     1       7.269   1.007  25.218  0.00  0.00    +0.020 A 
ATOM     11  C   UNL     1       7.682   0.152  24.203  0.00  0.00    +0.038 A 
ATOM     12  C   UNL     1       8.616   0.616  23.262  0.00  0.00    +0.020 A 
BRANCH   7  13
ATOM     13  O   UNL     1       9.139   4.078  24.525  0.00  0.00    -0.490 OA
BRANCH  13  14
ATOM     14  C   UNL     1       8.625   5.119  23.693  0.00  0.00    +0.244 C 
BRANCH  14  15
ATOM     15  C   UNL     1       9.695   6.199  23.470  0.00  0.00    +0.119 C 
BRANCH  15  16
ATOM     16  N   UNL     1      11.005   5.648  23.119  0.00  0.00    -0.327 NA
ATOM     17  H   UNL     1      11.226   4.879  23.749  0.00  0.00    +0.118 HD
ATOM     18  H   UNL     1      10.942   5.245  22.182  0.00  0.00    +0.118 HD
ENDBRANCH  15  16
ENDBRANCH  14  15
ENDBRANCH  13  14
ENDBRANCH   7  13
ENDBRANCH   1  11
BRANCH   2  19
ATOM     19  C   UNL     1       5.617  -2.947  23.287  0.00  0.00    +0.037 A 
ATOM     20  C   UNL     1       4.631  -3.507  24.127  0.00  0.00    +0.046 A 
ATOM     21  C   UNL     1       4.112  -4.811  23.936  0.00  0.00    +0.033 A 
ATOM     22  C   UNL     1       4.638  -5.539  22.858  0.00  0.00    +0.043 A 
ATOM     23  C   UNL     1       5.600  -4.999  22.012  0.00  0.00    +0.044 A 
ATOM     24 CL   UNL     1       6.192  -5.933  20.691  0.00  0.00    -0.083 Cl
ATOM     25  C   UNL     1       6.090  -3.717  22.224  0.00  0.00    +0.043 A 
BRANCH  21  26
ATOM     26  N   UNL     1       3.148  -5.375  24.758  0.00  0.00    -0.330 N 
ATOM     27  C   UNL     1       2.935  -4.957  26.145  0.00  0.00    +0.105 C 
ATOM     28  C   UNL     1       2.978  -6.190  27.056  0.00  0.00    +0.019 C 
ATOM     29  C   UNL     1       2.010  -7.279  26.594  0.00  0.00    +0.003 C 
ATOM     30  C   UNL     1       2.238  -7.623  25.124  0.00  0.00    +0.019 C 
ATOM     31  C   UNL     1       2.179  -6.364  24.259  0.00  0.00    +0.105 C 
ENDBRANCH  21  26
ENDBRANCH   2  19
TORSDOF 7
ENDMDL
MODEL 8
REMARK VINA RESULT:      -6.1      3.443      9.507
REMARK  Name = 
REMARK  9 active torsions:
REMARK  status: ('A' for Active; 'I' for Inactive)
REMARK    1  A    between atoms: C_1  and  C_2
REMARK    2  A    between atoms: C_4  and  C_13
REMARK    3  A    between atoms: C_6  and  C_7
REMARK    4  A    between atoms: C_8  and  O_9
REMARK    5  A    between atoms: O_9  and  C_10
REMARK    6  A    between atoms: C_10  and  C_11
REMARK    7  A    between atoms: C_11  and  N_12
REMARK    8  A    between atoms: N_15  and  C_16
REMARK    9  A    between atoms: C_21  and  N_23
REMARK                            x       y       z     vdW  Elec       q    Type
REMARK                         _______ _______ _______ _____ _____    ______ ____
ROOT
ATOM      1  C   UNL     1       7.824  -0.405  23.696  0.00  0.00    +0.248 C 
ATOM      2  N   UNL     1       8.455   0.500  24.540  0.00  0.00    -0.281 N 
ATOM      3  H   UNL     1       8.759   0.172  25.448  0.00  0.00    +0.155 HD
ATOM      4  O   UNL     1       7.407  -0.158  22.564  0.00  0.00    -0.270 OA
ENDROOT
BRANCH   1  11
ATOM      5  C   UNL     1       4.729  -4.208  23.801  0.00  0.00    +0.047 C 
ATOM      6  C   UNL     1       6.090  -3.727  24.224  0.00  0.00    -0.008 A 
ATOM      7  C   UNL     1       6.983  -4.412  25.066  0.00  0.00    +0.126 A 
ATOM      8  C   UNL     1       8.186  -3.772  25.476  0.00  0.00    -0.008 A 
ATOM      9  C   UNL     1       9.113  -4.464  26.444  0.00  0.00    +0.047 C 
ATOM     10  C   UNL     1       8.515  -2.478  25.012  0.00  0.00    +0.020 A 
ATOM     11  C   UNL     1       7.648  -1.811  24.154  0.00  0.00    +0.038 A 
ATOM     12  C   UNL     1       6.452  -2.443  23.773  0.00  0.00    +0.020 A 
BRANCH   7  13
ATOM     13  O   UNL     1       6.799  -5.653  25.625  0.00  0.00    -0.490 OA
BRANCH  13  14
ATOM     14  C   UNL     1       5.668  -5.866  26.470  0.00  0.00    +0.244 C 
BRANCH  14  15
ATOM     15  C   UNL     1       5.967  -5.373  27.894  0.00  0.00    +0.119 C 
BRANCH  15  16
ATOM     16  N   UNL     1       6.786  -6.308  28.667  0.00  0.00    -0.327 NA
ATOM     17  H   UNL     1       7.352  -6.865  28.029  0.00  0.00    +0.118 HD
ATOM     18  H   UNL     1       7.439  -5.766  29.236  0.00  0.00    +0.118 HD
ENDBRANCH  15  16
ENDBRANCH  14  15
ENDBRANCH  13  14
ENDBRANCH   7  13
ENDBRANCH   1  11
BRANCH   2  19
ATOM     19  C   UNL     1       8.783   1.850  24.206  0.00  0.00    +0.037 A 
ATOM     20  C   UNL     1       7.753   2.812  24.134  0.00  0.00    +0.046 A 
ATOM     21  C   UNL     1       7.996   4.173  23.823  0.00  0.00    +0.033 A 
ATOM     22  C   UNL     1       9.331   4.528  23.578  0.00  0.00    +0.043 A 
ATOM     23  C   UNL     1      10.360   3.597  23.658  0.00  0.00    +0.044 A 
ATOM     24 CL   UNL     1      11.983   4.096  23.368  0.00  0.00    -0.083 Cl
ATOM     25  C   UNL     1      10.092   2.269  23.965  0.00  0.00    +0.043 A 
BRANCH  21  26
ATOM     26  N   UNL     1       6.991   5.126  23.742  0.00  0.00    -0.330 N 
ATOM     27  C   UNL     1       5.590   4.840  24.056  0.00  0.00    +0.105 C 
ATOM     28  C   UNL     1       4.709   5.285  22.882  0.00  0.00    +0.019 C 
ATOM     29  C   UNL     1       4.960   6.742  22.495  0.00  0.00    +0.003 C 
ATOM     30  C   UNL     1       6.446   6.990  22.245  0.00  0.00    +0.019 C 
ATOM     31  C   UNL     1       7.278   6.539  23.445  0.00  0.00    +0.105 C 
ENDBRANCH  21  26
ENDBRANCH   2  19
TORSDOF 7
ENDMDL
MODEL 9
REMARK VINA RESULT:      -6.0      3.246      9.714
REMARK  Name = 
REMARK  9 active torsions:
REMARK  status: ('A' for Active; 'I' for Inactive)
REMARK    1  A    between atoms: C_1  and  C_2
REMARK    2  A    between atoms: C_4  and  C_13
REMARK    3  A    between atoms: C_6  and  C_7
REMARK    4  A    between atoms: C_8  and  O_9
REMARK    5  A    between atoms: O_9  and  C_10
REMARK    6  A    between atoms: C_10  and  C_11
REMARK    7  A    between atoms: C_11  and  N_12
REMARK    8  A    between atoms: N_15  and  C_16
REMARK    9  A    between atoms: C_21  and  N_23
REMARK                            x       y       z     vdW  Elec       q    Type
REMARK                         _______ _______ _______ _____ _____    ______ ____
ROOT
ATOM      1  C   UNL     1       6.811  -0.578  23.066  0.00  0.00    +0.248 C 
ATOM      2  N   UNL     1       6.022   0.425  23.615  0.00  0.00    -0.281 N 
ATOM      3  H   UNL     1       5.206   0.151  24.147  0.00  0.00    +0.155 HD
ATOM      4  O   UNL     1       7.834  -0.404  22.404  0.00  0.00    -0.270 OA
ENDROOT
BRANCH   1  11
ATOM      5  C   UNL     1       4.483  -3.631  26.119  0.00  0.00    +0.047 C 
ATOM      6  C   UNL     1       5.275  -3.546  24.843  0.00  0.00    -0.008 A 
ATOM      7  C   UNL     1       5.745  -4.635  24.089  0.00  0.00    +0.126 A 
ATOM      8  C   UNL     1       6.589  -4.397  22.968  0.00  0.00    -0.008 A 
ATOM      9  C   UNL     1       7.166  -5.560  22.201  0.00  0.00    +0.047 C 
ATOM     10  C   UNL     1       6.923  -3.079  22.578  0.00  0.00    +0.020 A 
ATOM     11  C   UNL     1       6.433  -2.000  23.304  0.00  0.00    +0.038 A 
ATOM     12  C   UNL     1       5.619  -2.247  24.421  0.00  0.00    +0.020 A 
BRANCH   7  13
ATOM     13  O   UNL     1       5.538  -5.968  24.351  0.00  0.00    -0.490 OA
BRANCH  13  14
ATOM     14  C   UNL     1       4.197  -6.458  24.401  0.00  0.00    +0.244 C 
BRANCH  14  15
ATOM     15  C   UNL     1       3.467  -6.145  23.087  0.00  0.00    +0.119 C 
BRANCH  15  16
ATOM     16  N   UNL     1       2.459  -7.146  22.736  0.00  0.00    -0.327 NA
ATOM     17  H   UNL     1       2.920  -8.032  22.533  0.00  0.00    +0.118 HD
ATOM     18  H   UNL     1       1.869  -7.308  23.554  0.00  0.00    +0.118 HD
ENDBRANCH  15  16
ENDBRANCH  14  15
ENDBRANCH  13  14
ENDBRANCH   7  13
ENDBRANCH   1  11
BRANCH   2  19
ATOM     19  C   UNL     1       6.308   1.824  23.557  0.00  0.00    +0.037 A 
ATOM     20  C   UNL     1       7.611   2.274  23.863  0.00  0.00    +0.046 A 
ATOM     21  C   UNL     1       7.979   3.641  23.817  0.00  0.00    +0.033 A 
ATOM     22  C   UNL     1       6.971   4.547  23.454  0.00  0.00    +0.043 A 
ATOM     23  C   UNL     1       5.686   4.120  23.137  0.00  0.00    +0.044 A 
ATOM     24 CL   UNL     1       4.495   5.277  22.678  0.00  0.00    -0.083 Cl
ATOM     25  C   UNL     1       5.353   2.773  23.191  0.00  0.00    +0.043 A 
BRANCH  21  26
ATOM     26  N   UNL     1       9.254   4.097  24.121  0.00  0.00    -0.330 N 
ATOM     27  C   UNL     1       9.515   5.412  24.707  0.00  0.00    +0.105 C 
ATOM     28  C   UNL     1      10.557   6.147  23.855  0.00  0.00    +0.019 C 
ATOM     29  C   UNL     1      11.821   5.312  23.648  0.00  0.00    +0.003 C 
ATOM     30  C   UNL     1      11.476   3.930  23.098  0.00  0.00    +0.019 C 
ATOM     31  C   UNL     1      10.442   3.238  23.985  0.00  0.00    +0.105 C 
ENDBRANCH  21  26
ENDBRANCH   2  19
TORSDOF 7
ENDMDL
