MODEL 1
REMARK VINA RESULT:      -7.9      0.000      0.000
REMARK  Name = 
REMARK  9 active torsions:
REMARK  status: ('A' for Active; 'I' for Inactive)
REMARK    1  A    between atoms: C_1  and  C_2
REMARK    2  A    between atoms: C_2  and  C_4
REMARK    3  A    between atoms: C_2  and  N_32
REMARK    4  A    between atoms: C_4  and  O_5
REMARK    5  A    between atoms: O_5  and  C_6
REMARK    6  A    between atoms: C_9  and  C_12
REMARK    7  A    between atoms: C_18  and  O_19
REMARK    8  A    between atoms: C_23  and  C_25
REMARK    9  A    between atoms: C_28  and  O_29
REMARK                            x       y       z     vdW  Elec       q    Type
REMARK                         _______ _______ _______ _____ _____    ______ ____
ROOT
ATOM      1  C   UNL     1       7.890  -3.356  26.021  0.00  0.00    +0.221 C 
ATOM      2  C   UNL     1       6.363  -3.233  26.333  0.00  0.00    +0.126 C 
ATOM      3  S   UNL     1       5.543  -2.725  24.761  0.00  0.00    -0.109 S 
ATOM      4  C   UNL     1       6.324  -3.913  23.689  0.00  0.00    +0.054 A 
ATOM      5  C   UNL     1       7.452  -4.661  24.056  0.00  0.00    +0.135 A 
ATOM      6  C   UNL     1       7.957  -5.640  23.191  0.00  0.00    +0.050 A 
ATOM      7  C   UNL     1       7.370  -5.850  21.946  0.00  0.00    +0.049 A 
ATOM      8  C   UNL     1       6.274  -5.082  21.577  0.00  0.00    +0.118 A 
ATOM      9  C   UNL     1       5.749  -4.121  22.432  0.00  0.00    +0.063 A 
ATOM     10  O   UNL     1       8.147  -4.547  25.236  0.00  0.00    -0.482 OA
ENDROOT
BRANCH   1  14
ATOM     11  C   UNL     1      10.128   0.059  24.491  0.00  0.00    +0.121 A 
ATOM     12  C   UNL     1       9.342   0.170  25.634  0.00  0.00    +0.046 A 
ATOM     13  C   UNL     1       8.613  -0.925  26.097  0.00  0.00    +0.011 A 
ATOM     14  C   UNL     1       8.671  -2.169  25.443  0.00  0.00    -0.006 A 
ATOM     15  C   UNL     1       9.427  -2.253  24.266  0.00  0.00    +0.011 A 
ATOM     16  C   UNL     1      10.163  -1.153  23.805  0.00  0.00    +0.046 A 
BRANCH  11  17
ATOM     17  O   UNL     1      10.802   1.199  24.157  0.00  0.00    -0.490 OA
BRANCH  17  18
ATOM     18  C   UNL     1      10.298   1.935  23.040  0.00  0.00    +0.247 C 
BRANCH  18  20
ATOM     19  C   UNL     1       8.089   2.863  22.290  0.00  0.00    +0.027 C 
ATOM     20  C   UNL     1       9.057   2.751  23.483  0.00  0.00    +0.091 C 
BRANCH  20  21
ATOM     21  N   UNL     1       9.427   4.084  24.013  0.00  0.00    -0.296 NA
ATOM     22  C   UNL     1       8.514   5.153  23.577  0.00  0.00    +0.085 C 
ATOM     23  C   UNL     1       9.355   6.412  23.428  0.00  0.00    +0.017 C 
ATOM     24  C   UNL     1      10.743   6.009  23.880  0.00  0.00    +0.017 C 
ATOM     25  C   UNL     1      10.775   4.514  23.626  0.00  0.00    +0.085 C 
ENDBRANCH  20  21
ENDBRANCH  18  20
ENDBRANCH  17  18
ENDBRANCH  11  17
ENDBRANCH   1  14
BRANCH   2  26
ATOM     26  C   UNL     1       5.734  -4.506  26.941  0.00  0.00    -0.030 A 
ATOM     27  C   UNL     1       6.413  -5.284  27.900  0.00  0.00    +0.008 A 
ATOM     28  C   UNL     1       5.784  -6.345  28.555  0.00  0.00    +0.046 A 
ATOM     29  C   UNL     1       4.478  -6.675  28.232  0.00  0.00    +0.117 A 
ATOM     30  C   UNL     1       3.811  -5.998  27.223  0.00  0.00    +0.046 A 
ATOM     31  C   UNL     1       4.442  -4.933  26.572  0.00  0.00    +0.008 A 
BRANCH  29  32
ATOM     32  O   UNL     1       3.876  -7.673  28.938  0.00  0.00    -0.507 OA
ATOM     33  H   UNL     1       4.569  -8.244  29.308  0.00  0.00    +0.292 HD
ENDBRANCH  29  32
ENDBRANCH   2  26
BRANCH   8  34
ATOM     34  O   UNL     1       5.665  -5.244  20.366  0.00  0.00    -0.507 OA
ATOM     35  H   UNL     1       5.625  -4.384  19.922  0.00  0.00    +0.292 HD
ENDBRANCH   8  34
TORSDOF 8
ENDMDL
MODEL 2
REMARK VINA RESULT:      -7.9      1.048      1.932
REMARK  Name = 
REMARK  9 active torsions:
REMARK  status: ('A' for Active; 'I' for Inactive)
REMARK    1  A    between atoms: C_1  and  C_2
REMARK    2  A    between atoms: C_2  and  C_4
REMARK    3  A    between atoms: C_2  and  N_32
REMARK    4  A    between atoms: C_4  and  O_5
REMARK    5  A    between atoms: O_5  and  C_6
REMARK    6  A    between atoms: C_9  and  C_12
REMARK    7  A    between atoms: C_18  and  O_19
REMARK    8  A    between atoms: C_23  and  C_25
REMARK    9  A    between atoms: C_28  and  O_29
REMARK                            x       y       z     vdW  Elec       q    Type
REMARK                         _______ _______ _______ _____ _____    ______ ____
ROOT
ATOM      1  C   UNL     1       7.831  -3.517  25.991  0.00  0.00    +0.221 C 
ATOM      2  C   UNL     1       6.299  -3.388  26.277  0.00  0.00    +0.126 C 
ATOM      3  S   UNL     1       5.500  -2.938  24.676  0.00  0.00    -0.109 S 
ATOM      4  C   UNL     1       6.300  -4.161  23.658  0.00  0.00    +0.054 A 
ATOM      5  C   UNL     1       7.425  -4.892  24.068  0.00  0.00    +0.135 A 
ATOM      6  C   UNL     1       7.945  -5.898  23.244  0.00  0.00    +0.050 A 
ATOM      7  C   UNL     1       7.376  -6.155  21.999  0.00  0.00    +0.049 A 
ATOM      8  C   UNL     1       6.284  -5.403  21.587  0.00  0.00    +0.118 A 
ATOM      9  C   UNL     1       5.744  -4.414  22.401  0.00  0.00    +0.063 A 
ATOM     10  O   UNL     1       8.102  -4.734  25.252  0.00  0.00    -0.482 OA
ENDROOT
BRANCH   1  14
ATOM     11  C   UNL     1      10.049  -0.246  24.149  0.00  0.00    +0.121 A 
ATOM     12  C   UNL     1      10.106  -1.535  23.629  0.00  0.00    +0.046 A 
ATOM     13  C   UNL     1       9.410  -2.575  24.243  0.00  0.00    +0.011 A 
ATOM     14  C   UNL     1       8.616  -2.349  25.383  0.00  0.00    -0.006 A 
ATOM     15  C   UNL     1       8.607  -1.057  25.924  0.00  0.00    +0.011 A 
ATOM     16  C   UNL     1       9.303  -0.011  25.302  0.00  0.00    +0.046 A 
BRANCH  11  17
ATOM     17  O   UNL     1      10.761   0.681  23.443  0.00  0.00    -0.490 OA
BRANCH  17  18
ATOM     18  C   UNL     1      10.193   1.116  22.206  0.00  0.00    +0.247 C 
BRANCH  18  20
ATOM     19  C   UNL     1      10.791   3.264  23.360  0.00  0.00    +0.027 C 
ATOM     20  C   UNL     1       9.878   2.632  22.293  0.00  0.00    +0.091 C 
BRANCH  20  21
ATOM     21  N   UNL     1       8.447   2.887  22.579  0.00  0.00    -0.296 NA
ATOM     22  C   UNL     1       8.188   3.211  23.991  0.00  0.00    +0.085 C 
ATOM     23  C   UNL     1       6.818   2.641  24.326  0.00  0.00    +0.017 C 
ATOM     24  C   UNL     1       6.305   2.070  23.021  0.00  0.00    +0.017 C 
ATOM     25  C   UNL     1       7.573   1.755  22.252  0.00  0.00    +0.085 C 
ENDBRANCH  20  21
ENDBRANCH  18  20
ENDBRANCH  17  18
ENDBRANCH  11  17
ENDBRANCH   1  14
BRANCH   2  26
ATOM     26  C   UNL     1       5.664  -4.641  26.920  0.00  0.00    -0.030 A 
ATOM     27  C   UNL     1       6.320  -5.366  27.934  0.00  0.00    +0.008 A 
ATOM     28  C   UNL     1       5.681  -6.406  28.615  0.00  0.00    +0.046 A 
ATOM     29  C   UNL     1       4.391  -6.767  28.265  0.00  0.00    +0.117 A 
ATOM     30  C   UNL     1       3.750  -6.144  27.205  0.00  0.00    +0.046 A 
ATOM     31  C   UNL     1       4.391  -5.100  26.528  0.00  0.00    +0.008 A 
BRANCH  29  32
ATOM     32  O   UNL     1       3.777  -7.741  28.994  0.00  0.00    -0.507 OA
ATOM     33  H   UNL     1       3.533  -8.463  28.392  0.00  0.00    +0.292 HD
ENDBRANCH  29  32
ENDBRANCH   2  26
BRANCH   8  34
ATOM     34  O   UNL     1       5.693  -5.610  20.374  0.00  0.00    -0.507 OA
ATOM     35  H   UNL     1       5.547  -4.751  19.952  0.00  0.00    +0.292 HD
ENDBRANCH   8  34
TORSDOF 8
ENDMDL
MODEL 3
REMARK VINA RESULT:      -7.9      2.556      4.101
REMARK  Name = 
REMARK  9 active torsions:
REMARK  status: ('A' for Active; 'I' for Inactive)
REMARK    1  A    between atoms: C_1  and  C_2
REMARK    2  A    between atoms: C_2  and  C_4
REMARK    3  A    between atoms: C_2  and  N_32
REMARK    4  A    between atoms: C_4  and  O_5
REMARK    5  A    between atoms: O_5  and  C_6
REMARK    6  A    between atoms: C_9  and  C_12
REMARK    7  A    between atoms: C_18  and  O_19
REMARK    8  A    between atoms: C_23  and  C_25
REMARK    9  A    between atoms: C_28  and  O_29
REMARK                            x       y       z     vdW  Elec       q    Type
REMARK                         _______ _______ _______ _____ _____    ______ ____
ROOT
ATOM      1  C   UNL     1       5.432  -1.836  24.928  0.00  0.00    +0.221 C 
ATOM      2  C   UNL     1       5.234  -2.632  23.597  0.00  0.00    +0.126 C 
ATOM      3  S   UNL     1       6.919  -3.000  22.945  0.00  0.00    -0.109 S 
ATOM      4  C   UNL     1       7.633  -3.609  24.460  0.00  0.00    +0.054 A 
ATOM      5  C   UNL     1       7.041  -3.431  25.719  0.00  0.00    +0.135 A 
ATOM      6  C   UNL     1       7.618  -4.015  26.854  0.00  0.00    +0.050 A 
ATOM      7  C   UNL     1       8.802  -4.741  26.748  0.00  0.00    +0.049 A 
ATOM      8  C   UNL     1       9.399  -4.884  25.503  0.00  0.00    +0.118 A 
ATOM      9  C   UNL     1       8.828  -4.327  24.364  0.00  0.00    +0.063 A 
ATOM     10  O   UNL     1       5.893  -2.724  25.978  0.00  0.00    -0.482 OA
ENDROOT
BRANCH   1  14
ATOM     11  C   UNL     1       7.646   1.920  24.930  0.00  0.00    +0.121 A 
ATOM     12  C   UNL     1       6.830   1.569  23.860  0.00  0.00    +0.046 A 
ATOM     13  C   UNL     1       6.147   0.353  23.863  0.00  0.00    +0.011 A 
ATOM     14  C   UNL     1       6.243  -0.535  24.951  0.00  0.00    -0.006 A 
ATOM     15  C   UNL     1       7.107  -0.191  25.999  0.00  0.00    +0.011 A 
ATOM     16  C   UNL     1       7.788   1.034  25.997  0.00  0.00    +0.046 A 
BRANCH  11  17
ATOM     17  O   UNL     1       8.242   3.143  24.809  0.00  0.00    -0.490 OA
BRANCH  17  18
ATOM     18  C   UNL     1       8.960   3.386  23.597  0.00  0.00    +0.247 C 
BRANCH  18  20
ATOM     19  C   UNL     1      11.418   3.851  23.394  0.00  0.00    +0.027 C 
ATOM     20  C   UNL     1      10.375   2.762  23.707  0.00  0.00    +0.091 C 
BRANCH  20  21
ATOM     21  N   UNL     1      10.534   1.584  22.824  0.00  0.00    -0.296 NA
ATOM     22  C   UNL     1       9.575   1.566  21.707  0.00  0.00    +0.085 C 
ATOM     23  C   UNL     1       9.251   0.104  21.434  0.00  0.00    +0.017 C 
ATOM     24  C   UNL     1      10.132  -0.674  22.387  0.00  0.00    +0.017 C 
ATOM     25  C   UNL     1      10.375   0.304  23.521  0.00  0.00    +0.085 C 
ENDBRANCH  20  21
ENDBRANCH  18  20
ENDBRANCH  17  18
ENDBRANCH  11  17
ENDBRANCH   1  14
BRANCH   2  26
ATOM     26  C   UNL     1       4.366  -3.902  23.738  0.00  0.00    -0.030 A 
ATOM     27  C   UNL     1       3.241  -3.941  24.586  0.00  0.00    +0.008 A 
ATOM     28  C   UNL     1       2.376  -5.038  24.597  0.00  0.00    +0.046 A 
ATOM     29  C   UNL     1       2.644  -6.134  23.793  0.00  0.00    +0.117 A 
ATOM     30  C   UNL     1       3.795  -6.174  23.022  0.00  0.00    +0.046 A 
ATOM     31  C   UNL     1       4.657  -5.072  23.009  0.00  0.00    +0.008 A 
BRANCH  29  32
ATOM     32  O   UNL     1       1.743  -7.156  23.782  0.00  0.00    -0.507 OA
ATOM     33  H   UNL     1       1.544  -7.395  24.702  0.00  0.00    +0.292 HD
ENDBRANCH  29  32
ENDBRANCH   2  26
BRANCH   8  34
ATOM     34  O   UNL     1      10.562  -5.580  25.345  0.00  0.00    -0.507 OA
ATOM     35  H   UNL     1      10.393  -6.335  24.761  0.00  0.00    +0.292 HD
ENDBRANCH   8  34
TORSDOF 8
ENDMDL
MODEL 4
REMARK VINA RESULT:      -7.8      1.710      2.839
REMARK  Name = 
REMARK  9 active torsions:
REMARK  status: ('A' for Active; 'I' for Inactive)
REMARK    1  A    between atoms: C_1  and  C_2
REMARK    2  A    between atoms: C_2  and  C_4
REMARK    3  A    between atoms: C_2  and  N_32
REMARK    4  A    between atoms: C_4  and  O_5
REMARK    5  A    between atoms: O_5  and  C_6
REMARK    6  A    between atoms: C_9  and  C_12
REMARK    7  A    between atoms: C_18  and  O_19
REMARK    8  A    between atoms: C_23  and  C_25
REMARK    9  A    between atoms: C_28  and  O_29
REMARK                            x       y       z     vdW  Elec       q    Type
REMARK                         _______ _______ _______ _____ _____    ______ ____
ROOT
ATOM      1  C   UNL     1       6.814  -2.736  26.754  0.00  0.00    +0.221 C 
ATOM      2  C   UNL     1       5.270  -2.960  26.850  0.00  0.00    +0.126 C 
ATOM      3  S   UNL     1       4.587  -2.653  25.164  0.00  0.00    -0.109 S 
ATOM      4  C   UNL     1       5.756  -3.636  24.249  0.00  0.00    +0.054 A 
ATOM      5  C   UNL     1       6.960  -4.110  24.793  0.00  0.00    +0.135 A 
ATOM      6  C   UNL     1       7.787  -4.950  24.037  0.00  0.00    +0.050 A 
ATOM      7  C   UNL     1       7.443  -5.290  22.731  0.00  0.00    +0.049 A 
ATOM      8  C   UNL     1       6.267  -4.790  22.190  0.00  0.00    +0.118 A 
ATOM      9  C   UNL     1       5.425  -3.970  22.933  0.00  0.00    +0.063 A 
ATOM     10  O   UNL     1       7.438  -3.840  26.051  0.00  0.00    -0.482 OA
ENDROOT
BRANCH   1  14
ATOM     11  C   UNL     1       8.528   0.986  25.265  0.00  0.00    +0.121 A 
ATOM     12  C   UNL     1       9.341  -0.076  25.647  0.00  0.00    +0.046 A 
ATOM     13  C   UNL     1       8.779  -1.251  26.144  0.00  0.00    +0.011 A 
ATOM     14  C   UNL     1       7.384  -1.405  26.249  0.00  0.00    -0.006 A 
ATOM     15  C   UNL     1       6.580  -0.310  25.907  0.00  0.00    +0.011 A 
ATOM     16  C   UNL     1       7.146   0.868  25.402  0.00  0.00    +0.046 A 
BRANCH  11  17
ATOM     17  O   UNL     1       9.204   2.070  24.780  0.00  0.00    -0.490 OA
BRANCH  17  18
ATOM     18  C   UNL     1      10.336   1.798  23.952  0.00  0.00    +0.247 C 
BRANCH  18  20
ATOM     19  C   UNL     1       8.630   2.669  22.330  0.00  0.00    +0.027 C 
ATOM     20  C   UNL     1       9.896   1.803  22.465  0.00  0.00    +0.091 C 
BRANCH  20  21
ATOM     21  N   UNL     1       9.679   0.434  21.944  0.00  0.00    -0.296 NA
ATOM     22  C   UNL     1       8.278  -0.006  22.041  0.00  0.00    +0.085 C 
ATOM     23  C   UNL     1       8.307  -1.505  22.301  0.00  0.00    +0.017 C 
ATOM     24  C   UNL     1       9.774  -1.878  22.257  0.00  0.00    +0.017 C 
ATOM     25  C   UNL     1      10.477  -0.588  22.631  0.00  0.00    +0.085 C 
ENDBRANCH  20  21
ENDBRANCH  18  20
ENDBRANCH  17  18
ENDBRANCH  11  17
ENDBRANCH   1  14
BRANCH   2  26
ATOM     26  C   UNL     1       4.861  -4.342  27.408  0.00  0.00    -0.030 A 
ATOM     27  C   UNL     1       5.475  -4.890  28.552  0.00  0.00    +0.008 A 
ATOM     28  C   UNL     1       5.001  -6.066  29.138  0.00  0.00    +0.046 A 
ATOM     29  C   UNL     1       3.933  -6.738  28.568  0.00  0.00    +0.117 A 
ATOM     30  C   UNL     1       3.368  -6.284  27.386  0.00  0.00    +0.046 A 
ATOM     31  C   UNL     1       3.842  -5.103  26.803  0.00  0.00    +0.008 A 
BRANCH  29  32
ATOM     32  O   UNL     1       3.458  -7.845  29.204  0.00  0.00    -0.507 OA
ATOM     33  H   UNL     1       3.296  -7.615  30.134  0.00  0.00    +0.292 HD
ENDBRANCH  29  32
ENDBRANCH   2  26
BRANCH   8  34
ATOM     34  O   UNL     1       5.885  -5.087  20.914  0.00  0.00    -0.507 OA
ATOM     35  H   UNL     1       6.098  -6.015  20.736  0.00  0.00    +0.292 HD
ENDBRANCH   8  34
TORSDOF 8
ENDMDL
MODEL 5
REMARK VINA RESULT:      -7.4      3.258      8.702
REMARK  Name = 
REMARK  9 active torsions:
REMARK  status: ('A' for Active; 'I' for Inactive)
REMARK    1  A    between atoms: C_1  and  C_2
REMARK    2  A    between atoms: C_2  and  C_4
REMARK    3  A    between atoms: C_2  and  N_32
REMARK    4  A    between atoms: C_4  and  O_5
REMARK    5  A    between atoms: O_5  and  C_6
REMARK    6  A    between atoms: C_9  and  C_12
REMARK    7  A    between atoms: C_18  and  O_19
REMARK    8  A    between atoms: C_23  and  C_25
REMARK    9  A    between atoms: C_28  and  O_29
REMARK                            x       y       z     vdW  Elec       q    Type
REMARK                         _______ _______ _______ _____ _____    ______ ____
ROOT
ATOM      1  C   UNL     1       5.836  -1.108  25.016  0.00  0.00    +0.221 C 
ATOM      2  C   UNL     1       7.108  -0.331  25.486  0.00  0.00    +0.126 C 
ATOM      3  S   UNL     1       8.067  -1.487  26.556  0.00  0.00    -0.109 S 
ATOM      4  C   UNL     1       8.017  -2.906  25.481  0.00  0.00    +0.054 A 
ATOM      5  C   UNL     1       7.151  -3.012  24.382  0.00  0.00    +0.135 A 
ATOM      6  C   UNL     1       7.230  -4.122  23.531  0.00  0.00    +0.050 A 
ATOM      7  C   UNL     1       8.140  -5.145  23.790  0.00  0.00    +0.049 A 
ATOM      8  C   UNL     1       8.969  -5.047  24.899  0.00  0.00    +0.118 A 
ATOM      9  C   UNL     1       8.916  -3.943  25.742  0.00  0.00    +0.063 A 
ATOM     10  O   UNL     1       6.193  -2.098  24.018  0.00  0.00    -0.482 OA
ENDROOT
BRANCH   1  14
ATOM     11  C   UNL     1       3.084  -2.954  27.851  0.00  0.00    +0.121 A 
ATOM     12  C   UNL     1       3.029  -3.258  26.495  0.00  0.00    +0.046 A 
ATOM     13  C   UNL     1       3.900  -2.642  25.597  0.00  0.00    +0.011 A 
ATOM     14  C   UNL     1       4.868  -1.721  26.037  0.00  0.00    -0.006 A 
ATOM     15  C   UNL     1       4.881  -1.386  27.397  0.00  0.00    +0.011 A 
ATOM     16  C   UNL     1       4.008  -2.011  28.299  0.00  0.00    +0.046 A 
BRANCH  11  17
ATOM     17  O   UNL     1       2.189  -3.639  28.621  0.00  0.00    -0.490 OA
BRANCH  17  18
ATOM     18  C   UNL     1       1.927  -4.992  28.245  0.00  0.00    +0.247 C 
BRANCH  18  20
ATOM     19  C   UNL     1       3.226  -5.199  30.383  0.00  0.00    +0.027 C 
ATOM     20  C   UNL     1       2.805  -5.941  29.100  0.00  0.00    +0.091 C 
BRANCH  20  21
ATOM     21  N   UNL     1       3.979  -6.442  28.349  0.00  0.00    -0.296 NA
ATOM     22  C   UNL     1       5.178  -5.608  28.528  0.00  0.00    +0.085 C 
ATOM     23  C   UNL     1       5.945  -5.656  27.214  0.00  0.00    +0.017 C 
ATOM     24  C   UNL     1       5.162  -6.615  26.343  0.00  0.00    +0.017 C 
ATOM     25  C   UNL     1       3.754  -6.531  26.902  0.00  0.00    +0.085 C 
ENDBRANCH  20  21
ENDBRANCH  18  20
ENDBRANCH  17  18
ENDBRANCH  11  17
ENDBRANCH   1  14
BRANCH   2  26
ATOM     26  C   UNL     1       7.960   0.251  24.336  0.00  0.00    -0.030 A 
ATOM     27  C   UNL     1       7.368   0.834  23.198  0.00  0.00    +0.008 A 
ATOM     28  C   UNL     1       8.138   1.490  22.234  0.00  0.00    +0.046 A 
ATOM     29  C   UNL     1       9.515   1.537  22.368  0.00  0.00    +0.117 A 
ATOM     30  C   UNL     1      10.141   0.888  23.421  0.00  0.00    +0.046 A 
ATOM     31  C   UNL     1       9.368   0.235  24.387  0.00  0.00    +0.008 A 
BRANCH  29  32
ATOM     32  O   UNL     1      10.226   2.242  21.443  0.00  0.00    -0.507 OA
ATOM     33  H   UNL     1       9.606   2.795  20.940  0.00  0.00    +0.292 HD
ENDBRANCH  29  32
ENDBRANCH   2  26
BRANCH   8  34
ATOM     34  O   UNL     1       9.873  -6.024  25.202  0.00  0.00    -0.507 OA
ATOM     35  H   UNL     1      10.307  -6.308  24.383  0.00  0.00    +0.292 HD
ENDBRANCH   8  34
TORSDOF 8
ENDMDL
MODEL 6
REMARK VINA RESULT:      -7.4      2.465      3.775
REMARK  Name = 
REMARK  9 active torsions:
REMARK  status: ('A' for Active; 'I' for Inactive)
REMARK    1  A    between atoms: C_1  and  C_2
REMARK    2  A    between atoms: C_2  and  C_4
REMARK    3  A    between atoms: C_2  and  N_32
REMARK    4  A    between atoms: C_4  and  O_5
REMARK    5  A    between atoms: O_5  and  C_6
REMARK    6  A    between atoms: C_9  and  C_12
REMARK    7  A    between atoms: C_18  and  O_19
REMARK    8  A    between atoms: C_23  and  C_25
REMARK    9  A    between atoms: C_28  and  O_29
REMARK                            x       y       z     vdW  Elec       q    Type
REMARK                         _______ _______ _______ _____ _____    ______ ____
ROOT
ATOM      1  C   UNL     1       5.169  -2.027  25.468  0.00  0.00    +0.221 C 
ATOM      2  C   UNL     1       4.712  -2.934  24.281  0.00  0.00    +0.126 C 
ATOM      3  S   UNL     1       6.216  -3.274  23.268  0.00  0.00    -0.109 S 
ATOM      4  C   UNL     1       7.306  -3.727  24.602  0.00  0.00    +0.054 A 
ATOM      5  C   UNL     1       7.019  -3.477  25.952  0.00  0.00    +0.135 A 
ATOM      6  C   UNL     1       7.885  -3.940  26.950  0.00  0.00    +0.050 A 
ATOM      7  C   UNL     1       9.054  -4.616  26.610  0.00  0.00    +0.049 A 
ATOM      8  C   UNL     1       9.347  -4.829  25.270  0.00  0.00    +0.118 A 
ATOM      9  C   UNL     1       8.488  -4.393  24.268  0.00  0.00    +0.063 A 
ATOM     10  O   UNL     1       5.921  -2.805  26.433  0.00  0.00    -0.482 OA
ENDROOT
BRANCH   1  14
ATOM     11  C   UNL     1       7.261   1.743  24.819  0.00  0.00    +0.121 A 
ATOM     12  C   UNL     1       7.180   1.176  26.087  0.00  0.00    +0.046 A 
ATOM     13  C   UNL     1       6.488  -0.018  26.283  0.00  0.00    +0.011 A 
ATOM     14  C   UNL     1       5.876  -0.691  25.209  0.00  0.00    -0.006 A 
ATOM     15  C   UNL     1       5.922  -0.084  23.948  0.00  0.00    +0.011 A 
ATOM     16  C   UNL     1       6.624   1.114  23.752  0.00  0.00    +0.046 A 
BRANCH  11  17
ATOM     17  O   UNL     1       7.982   2.902  24.763  0.00  0.00    -0.490 OA
BRANCH  17  18
ATOM     18  C   UNL     1       8.754   3.117  23.580  0.00  0.00    +0.247 C 
BRANCH  18  20
ATOM     19  C   UNL     1      11.200   3.675  23.510  0.00  0.00    +0.027 C 
ATOM     20  C   UNL     1      10.183   2.554  23.793  0.00  0.00    +0.091 C 
BRANCH  20  21
ATOM     21  N   UNL     1      10.440   1.359  22.956  0.00  0.00    -0.296 NA
ATOM     22  C   UNL     1       9.581   1.293  21.763  0.00  0.00    +0.085 C 
ATOM     23  C   UNL     1       9.311  -0.181  21.500  0.00  0.00    +0.017 C 
ATOM     24  C   UNL     1      10.124  -0.917  22.544  0.00  0.00    +0.017 C 
ATOM     25  C   UNL     1      10.249   0.092  23.670  0.00  0.00    +0.085 C 
ENDBRANCH  20  21
ENDBRANCH  18  20
ENDBRANCH  17  18
ENDBRANCH  11  17
ENDBRANCH   1  14
BRANCH   2  26
ATOM     26  C   UNL     1       3.987  -4.229  24.711  0.00  0.00    -0.030 A 
ATOM     27  C   UNL     1       4.330  -5.485  24.171  0.00  0.00    +0.008 A 
ATOM     28  C   UNL     1       3.777  -6.667  24.670  0.00  0.00    +0.046 A 
ATOM     29  C   UNL     1       2.839  -6.612  25.687  0.00  0.00    +0.117 A 
ATOM     30  C   UNL     1       2.401  -5.389  26.173  0.00  0.00    +0.046 A 
ATOM     31  C   UNL     1       2.961  -4.208  25.676  0.00  0.00    +0.008 A 
BRANCH  29  32
ATOM     32  O   UNL     1       2.370  -7.787  26.191  0.00  0.00    -0.507 OA
ATOM     33  H   UNL     1       2.559  -7.806  27.144  0.00  0.00    +0.292 HD
ENDBRANCH  29  32
ENDBRANCH   2  26
BRANCH   8  34
ATOM     34  O   UNL     1      10.482  -5.481  24.883  0.00  0.00    -0.507 OA
ATOM     35  H   UNL     1      10.316  -5.911  24.031  0.00  0.00    +0.292 HD
ENDBRANCH   8  34
TORSDOF 8
ENDMDL
MODEL 7
REMARK VINA RESULT:      -7.3      3.061      8.648
REMARK  Name = 
REMARK  9 active torsions:
REMARK  status: ('A' for Active; 'I' for Inactive)
REMARK    1  A    between atoms: C_1  and  C_2
REMARK    2  A    between atoms: C_2  and  C_4
REMARK    3  A    between atoms: C_2  and  N_32
REMARK    4  A    between atoms: C_4  and  O_5
REMARK    5  A    between atoms: O_5  and  C_6
REMARK    6  A    between atoms: C_9  and  C_12
REMARK    7  A    between atoms: C_18  and  O_19
REMARK    8  A    between atoms: C_23  and  C_25
REMARK    9  A    between atoms: C_28  and  O_29
REMARK                            x       y       z     vdW  Elec       q    Type
REMARK                         _______ _______ _______ _____ _____    ______ ____
ROOT
ATOM      1  C   UNL     1       9.151  -0.296  23.780  0.00  0.00    +0.221 C 
ATOM      2  C   UNL     1       8.619   0.930  22.969  0.00  0.00    +0.126 C 
ATOM      3  S   UNL     1       6.792   0.976  23.220  0.00  0.00    -0.109 S 
ATOM      4  C   UNL     1       6.789   0.782  24.991  0.00  0.00    +0.054 A 
ATOM      5  C   UNL     1       7.911   0.367  25.724  0.00  0.00    +0.135 A 
ATOM      6  C   UNL     1       7.856   0.321  27.123  0.00  0.00    +0.050 A 
ATOM      7  C   UNL     1       6.680   0.648  27.793  0.00  0.00    +0.049 A 
ATOM      8  C   UNL     1       5.565   1.025  27.058  0.00  0.00    +0.118 A 
ATOM      9  C   UNL     1       5.609   1.094  25.670  0.00  0.00    +0.063 A 
ATOM     10  O   UNL     1       9.124  -0.007  25.201  0.00  0.00    -0.482 OA
ENDROOT
BRANCH   1  14
ATOM     11  C   UNL     1       7.581  -4.318  23.171  0.00  0.00    +0.121 A 
ATOM     12  C   UNL     1       8.365  -4.013  24.279  0.00  0.00    +0.046 A 
ATOM     13  C   UNL     1       8.880  -2.728  24.448  0.00  0.00    +0.011 A 
ATOM     14  C   UNL     1       8.603  -1.705  23.523  0.00  0.00    -0.006 A 
ATOM     15  C   UNL     1       7.854  -2.037  22.387  0.00  0.00    +0.011 A 
ATOM     16  C   UNL     1       7.332  -3.328  22.222  0.00  0.00    +0.046 A 
BRANCH  11  17
ATOM     17  O   UNL     1       7.128  -5.606  23.136  0.00  0.00    -0.490 OA
BRANCH  17  18
ATOM     18  C   UNL     1       5.711  -5.785  23.174  0.00  0.00    +0.247 C 
BRANCH  18  20
ATOM     19  C   UNL     1       4.222  -7.198  24.619  0.00  0.00    +0.027 C 
ATOM     20  C   UNL     1       5.270  -6.069  24.632  0.00  0.00    +0.091 C 
BRANCH  20  21
ATOM     21  N   UNL     1       4.754  -4.854  25.305  0.00  0.00    -0.296 NA
ATOM     22  C   UNL     1       4.446  -3.762  24.368  0.00  0.00    +0.085 C 
ATOM     23  C   UNL     1       4.753  -2.462  25.096  0.00  0.00    +0.017 C 
ATOM     24  C   UNL     1       5.159  -2.884  26.492  0.00  0.00    +0.017 C 
ATOM     25  C   UNL     1       5.681  -4.295  26.295  0.00  0.00    +0.085 C 
ENDBRANCH  20  21
ENDBRANCH  18  20
ENDBRANCH  17  18
ENDBRANCH  11  17
ENDBRANCH   1  14
BRANCH   2  26
ATOM     26  C   UNL     1       9.296   2.272  23.326  0.00  0.00    -0.030 A 
ATOM     27  C   UNL     1      10.692   2.444  23.236  0.00  0.00    +0.008 A 
ATOM     28  C   UNL     1      11.283   3.698  23.415  0.00  0.00    +0.046 A 
ATOM     29  C   UNL     1      10.495   4.792  23.729  0.00  0.00    +0.117 A 
ATOM     30  C   UNL     1       9.131   4.641  23.925  0.00  0.00    +0.046 A 
ATOM     31  C   UNL     1       8.541   3.387  23.741  0.00  0.00    +0.008 A 
BRANCH  29  32
ATOM     32  O   UNL     1      11.099   6.009  23.832  0.00  0.00    -0.507 OA
ATOM     33  H   UNL     1      11.980   5.880  24.220  0.00  0.00    +0.292 HD
ENDBRANCH  29  32
ENDBRANCH   2  26
BRANCH   8  34
ATOM     34  O   UNL     1       4.386   1.350  27.665  0.00  0.00    -0.507 OA
ATOM     35  H   UNL     1       3.663   1.190  27.040  0.00  0.00    +0.292 HD
ENDBRANCH   8  34
TORSDOF 8
ENDMDL
MODEL 8
REMARK VINA RESULT:      -7.2      3.049      8.484
REMARK  Name = 
REMARK  9 active torsions:
REMARK  status: ('A' for Active; 'I' for Inactive)
REMARK    1  A    between atoms: C_1  and  C_2
REMARK    2  A    between atoms: C_2  and  C_4
REMARK    3  A    between atoms: C_2  and  N_32
REMARK    4  A    between atoms: C_4  and  O_5
REMARK    5  A    between atoms: O_5  and  C_6
REMARK    6  A    between atoms: C_9  and  C_12
REMARK    7  A    between atoms: C_18  and  O_19
REMARK    8  A    between atoms: C_23  and  C_25
REMARK    9  A    between atoms: C_28  and  O_29
REMARK                            x       y       z     vdW  Elec       q    Type
REMARK                         _______ _______ _______ _____ _____    ______ ____
ROOT
ATOM      1  C   UNL     1       7.060  -1.799  25.758  0.00  0.00    +0.221 C 
ATOM      2  C   UNL     1       8.592  -1.931  25.478  0.00  0.00    +0.126 C 
ATOM      3  S   UNL     1       8.874  -3.654  24.883  0.00  0.00    -0.109 S 
ATOM      4  C   UNL     1       7.558  -3.710  23.684  0.00  0.00    +0.054 A 
ATOM      5  C   UNL     1       6.520  -2.768  23.631  0.00  0.00    +0.135 A 
ATOM      6  C   UNL     1       5.569  -2.830  22.605  0.00  0.00    +0.050 A 
ATOM      7  C   UNL     1       5.624  -3.846  21.653  0.00  0.00    +0.049 A 
ATOM      8  C   UNL     1       6.635  -4.793  21.733  0.00  0.00    +0.118 A 
ATOM      9  C   UNL     1       7.597  -4.735  22.735  0.00  0.00    +0.063 A 
ATOM     10  O   UNL     1       6.326  -1.731  24.510  0.00  0.00    -0.482 OA
ENDROOT
BRANCH   1  14
ATOM     11  C   UNL     1       5.164  -4.559  28.552  0.00  0.00    +0.121 A 
ATOM     12  C   UNL     1       6.359  -4.886  27.919  0.00  0.00    +0.046 A 
ATOM     13  C   UNL     1       6.941  -4.003  27.010  0.00  0.00    +0.011 A 
ATOM     14  C   UNL     1       6.354  -2.756  26.728  0.00  0.00    -0.006 A 
ATOM     15  C   UNL     1       5.126  -2.460  27.333  0.00  0.00    +0.011 A 
ATOM     16  C   UNL     1       4.546  -3.346  28.251  0.00  0.00    +0.046 A 
BRANCH  11  17
ATOM     17  O   UNL     1       4.712  -5.502  29.430  0.00  0.00    -0.490 OA
BRANCH  17  18
ATOM     18  C   UNL     1       4.260  -6.735  28.865  0.00  0.00    +0.247 C 
BRANCH  18  20
ATOM     19  C   UNL     1       1.866  -7.460  28.661  0.00  0.00    +0.027 C 
ATOM     20  C   UNL     1       2.929  -6.494  28.108  0.00  0.00    +0.091 C 
BRANCH  20  21
ATOM     21  N   UNL     1       3.089  -6.638  26.642  0.00  0.00    -0.296 NA
ATOM     22  C   UNL     1       4.434  -7.087  26.249  0.00  0.00    +0.085 C 
ATOM     23  C   UNL     1       4.742  -6.426  24.913  0.00  0.00    +0.017 C 
ATOM     24  C   UNL     1       3.480  -5.670  24.554  0.00  0.00    +0.017 C 
ATOM     25  C   UNL     1       2.837  -5.398  25.901  0.00  0.00    +0.085 C 
ENDBRANCH  20  21
ENDBRANCH  18  20
ENDBRANCH  17  18
ENDBRANCH  11  17
ENDBRANCH   1  14
BRANCH   2  26
ATOM     26  C   UNL     1       9.154  -0.872  24.504  0.00  0.00    -0.030 A 
ATOM     27  C   UNL     1       9.751  -1.234  23.280  0.00  0.00    +0.008 A 
ATOM     28  C   UNL     1      10.122  -0.271  22.338  0.00  0.00    +0.046 A 
ATOM     29  C   UNL     1       9.942   1.073  22.621  0.00  0.00    +0.117 A 
ATOM     30  C   UNL     1       9.452   1.471  23.855  0.00  0.00    +0.046 A 
ATOM     31  C   UNL     1       9.077   0.505  24.794  0.00  0.00    +0.008 A 
BRANCH  29  32
ATOM     32  O   UNL     1      10.255   1.979  21.653  0.00  0.00    -0.507 OA
ATOM     33  H   UNL     1      10.722   2.722  22.071  0.00  0.00    +0.292 HD
ENDBRANCH  29  32
ENDBRANCH   2  26
BRANCH   8  34
ATOM     34  O   UNL     1       6.730  -5.813  20.831  0.00  0.00    -0.507 OA
ATOM     35  H   UNL     1       6.833  -5.433  19.945  0.00  0.00    +0.292 HD
ENDBRANCH   8  34
TORSDOF 8
ENDMDL
MODEL 9
REMARK VINA RESULT:      -7.0      3.090      8.593
REMARK  Name = 
REMARK  9 active torsions:
REMARK  status: ('A' for Active; 'I' for Inactive)
REMARK    1  A    between atoms: C_1  and  C_2
REMARK    2  A    between atoms: C_2  and  C_4
REMARK    3  A    between atoms: C_2  and  N_32
REMARK    4  A    between atoms: C_4  and  O_5
REMARK    5  A    between atoms: O_5  and  C_6
REMARK    6  A    between atoms: C_9  and  C_12
REMARK    7  A    between atoms: C_18  and  O_19
REMARK    8  A    between atoms: C_23  and  C_25
REMARK    9  A    between atoms: C_28  and  O_29
REMARK                            x       y       z     vdW  Elec       q    Type
REMARK                         _______ _______ _______ _____ _____    ______ ____
ROOT
ATOM      1  C   UNL     1       8.812  -1.910  24.973  0.00  0.00    +0.221 C 
ATOM      2  C   UNL     1       8.587  -1.248  23.575  0.00  0.00    +0.126 C 
ATOM      3  S   UNL     1       6.772  -0.963  23.413  0.00  0.00    -0.109 S 
ATOM      4  C   UNL     1       6.504  -0.214  25.007  0.00  0.00    +0.054 A 
ATOM      5  C   UNL     1       7.441  -0.261  26.049  0.00  0.00    +0.135 A 
ATOM      6  C   UNL     1       7.195   0.426  27.245  0.00  0.00    +0.050 A 
ATOM      7  C   UNL     1       6.004   1.126  27.423  0.00  0.00    +0.049 A 
ATOM      8  C   UNL     1       5.068   1.138  26.399  0.00  0.00    +0.118 A 
ATOM      9  C   UNL     1       5.305   0.478  25.199  0.00  0.00    +0.063 A 
ATOM     10  O   UNL     1       8.642  -0.927  26.026  0.00  0.00    -0.482 OA
ENDROOT
BRANCH   1  14
ATOM     11  C   UNL     1       6.721  -5.552  26.144  0.00  0.00    +0.121 A 
ATOM     12  C   UNL     1       7.181  -4.650  27.098  0.00  0.00    +0.046 A 
ATOM     13  C   UNL     1       7.870  -3.501  26.709  0.00  0.00    +0.011 A 
ATOM     14  C   UNL     1       8.094  -3.211  25.351  0.00  0.00    -0.006 A 
ATOM     15  C   UNL     1       7.669  -4.151  24.404  0.00  0.00    +0.011 A 
ATOM     16  C   UNL     1       6.972  -5.302  24.796  0.00  0.00    +0.046 A 
BRANCH  11  17
ATOM     17  O   UNL     1       6.048  -6.624  26.658  0.00  0.00    -0.490 OA
BRANCH  17  18
ATOM     18  C   UNL     1       5.042  -6.340  27.632  0.00  0.00    +0.247 C 
BRANCH  18  20
ATOM     19  C   UNL     1       3.723  -7.173  25.665  0.00  0.00    +0.027 C 
ATOM     20  C   UNL     1       3.654  -6.313  26.940  0.00  0.00    +0.091 C 
BRANCH  20  21
ATOM     21  N   UNL     1       3.208  -4.932  26.644  0.00  0.00    -0.296 NA
ATOM     22  C   UNL     1       3.512  -4.509  25.267  0.00  0.00    +0.085 C 
ATOM     23  C   UNL     1       3.807  -3.017  25.323  0.00  0.00    +0.017 C 
ATOM     24  C   UNL     1       3.569  -2.628  26.767  0.00  0.00    +0.017 C 
ATOM     25  C   UNL     1       3.804  -3.921  27.524  0.00  0.00    +0.085 C 
ENDBRANCH  20  21
ENDBRANCH  18  20
ENDBRANCH  17  18
ENDBRANCH  11  17
ENDBRANCH   1  14
BRANCH   2  26
ATOM     26  C   UNL     1       9.408   0.039  23.340  0.00  0.00    -0.030 A 
ATOM     27  C   UNL     1       9.100   0.934  22.296  0.00  0.00    +0.008 A 
ATOM     28  C   UNL     1       9.749   2.166  22.179  0.00  0.00    +0.046 A 
ATOM     29  C   UNL     1      10.746   2.507  23.077  0.00  0.00    +0.117 A 
ATOM     30  C   UNL     1      11.146   1.611  24.056  0.00  0.00    +0.046 A 
ATOM     31  C   UNL     1      10.492   0.380  24.174  0.00  0.00    +0.008 A 
BRANCH  29  32
ATOM     32  O   UNL     1      11.309   3.743  22.971  0.00  0.00    -0.507 OA
ATOM     33  H   UNL     1      10.599   4.390  22.829  0.00  0.00    +0.292 HD
ENDBRANCH  29  32
ENDBRANCH   2  26
BRANCH   8  34
ATOM     34  O   UNL     1       3.882   1.804  26.524  0.00  0.00    -0.507 OA
ATOM     35  H   UNL     1       3.236   1.399  25.927  0.00  0.00    +0.292 HD
ENDBRANCH   8  34
TORSDOF 8
ENDMDL
