MODEL 1
REMARK VINA RESULT:      -6.9      0.000      0.000
REMARK  Name = 
REMARK  9 active torsions:
REMARK  status: ('A' for Active; 'I' for Inactive)
REMARK    1  A    between atoms: N_1  and  C_2
REMARK    2  A    between atoms: C_2  and  C_3
REMARK    3  A    between atoms: C_3  and  C_4
REMARK    4  A    between atoms: C_4  and  O_5
REMARK    5  A    between atoms: O_5  and  C_6
REMARK    6  A    between atoms: C_9  and  C_12
REMARK    7  A    between atoms: C_13  and  C_17
REMARK    8  A    between atoms: C_21  and  O_22
REMARK    9  A    between atoms: C_24  and  O_25
REMARK                            x       y       z     vdW  Elec       q    Type
REMARK                         _______ _______ _______ _____ _____    ______ ____
ROOT
ATOM      1  C   UNL     1      10.503   3.516  23.337  0.00  0.00    +0.027 A 
ATOM      2  C   UNL     1      11.749   4.200  23.354  0.00  0.00    +0.143 A 
ATOM      3  N   UNL     1      11.619   5.518  23.507  0.00  0.00    -0.181 NA
ATOM      4  N   UNL     1      10.292   5.673  23.623  0.00  0.00    -0.276 N 
ATOM      5  H   UNL     1       9.926   6.599  23.835  0.00  0.00    +0.189 HD
ATOM      6  C   UNL     1       9.552   4.527  23.463  0.00  0.00    +0.077 A 
ENDROOT
BRANCH   6   7
ATOM      7  C   UNL     1       8.080   4.564  23.511  0.00  0.00    +0.043 A 
ATOM      8  C   UNL     1       7.328   5.403  22.660  0.00  0.00    +0.130 A 
ATOM      9  C   UNL     1       5.945   5.536  22.810  0.00  0.00    +0.093 A 
ATOM     10  C   UNL     1       5.298   4.819  23.807  0.00  0.00    +0.139 A 
ATOM     11  C   UNL     1       6.008   3.927  24.610  0.00  0.00    +0.083 A 
ATOM     12 CL   UNL     1       5.202   3.035  25.846  0.00  0.00    -0.080 Cl
ATOM     13  C   UNL     1       7.384   3.778  24.442  0.00  0.00    +0.037 A 
BRANCH   8  14
ATOM     14  O   UNL     1       7.959   6.111  21.670  0.00  0.00    -0.506 OA
ATOM     15  H   UNL     1       7.444   6.915  21.480  0.00  0.00    +0.292 HD
ENDBRANCH   8  14
BRANCH  10  16
ATOM     16  O   UNL     1       3.957   5.032  23.966  0.00  0.00    -0.505 OA
ATOM     17  H   UNL     1       3.545   4.945  23.085  0.00  0.00    +0.292 HD
ENDBRANCH  10  16
ENDBRANCH   6   7
BRANCH   1  21
ATOM     18  C   UNL     1      10.040  -0.726  22.965  0.00  0.00    +0.121 A 
ATOM     19  C   UNL     1      10.373  -0.169  24.198  0.00  0.00    +0.046 A 
ATOM     20  C   UNL     1      10.533   1.214  24.334  0.00  0.00    +0.012 A 
ATOM     21  C   UNL     1      10.300   2.074  23.252  0.00  0.00    -0.014 A 
ATOM     22  C   UNL     1       9.934   1.505  22.026  0.00  0.00    +0.012 A 
ATOM     23  C   UNL     1       9.814   0.119  21.880  0.00  0.00    +0.046 A 
BRANCH  18  24
ATOM     24  O   UNL     1       9.980  -2.096  22.933  0.00  0.00    -0.492 OA
BRANCH  24  25
ATOM     25  C   UNL     1       9.844  -2.731  24.208  0.00  0.00    +0.230 C 
BRANCH  25  26
ATOM     26  C   UNL     1       8.761  -3.799  24.127  0.00  0.00    +0.056 C 
BRANCH  26  27
ATOM     27  C   UNL     1       8.836  -4.774  25.300  0.00  0.00    +0.081 C 
BRANCH  27  28
ATOM     28  N   UNL     1      10.060  -5.567  25.272  0.00  0.00    -0.330 NA
ATOM     29  H   UNL     1      10.639  -5.336  26.080  0.00  0.00    +0.118 HD
ATOM     30  H   UNL     1       9.829  -6.556  25.362  0.00  0.00    +0.118 HD
ENDBRANCH  27  28
ENDBRANCH  26  27
ENDBRANCH  25  26
ENDBRANCH  24  25
ENDBRANCH  18  24
ENDBRANCH   1  21
TORSDOF 9
ENDMDL
MODEL 2
REMARK VINA RESULT:      -6.7      1.374      1.553
REMARK  Name = 
REMARK  9 active torsions:
REMARK  status: ('A' for Active; 'I' for Inactive)
REMARK    1  A    between atoms: N_1  and  C_2
REMARK    2  A    between atoms: C_2  and  C_3
REMARK    3  A    between atoms: C_3  and  C_4
REMARK    4  A    between atoms: C_4  and  O_5
REMARK    5  A    between atoms: O_5  and  C_6
REMARK    6  A    between atoms: C_9  and  C_12
REMARK    7  A    between atoms: C_13  and  C_17
REMARK    8  A    between atoms: C_21  and  O_22
REMARK    9  A    between atoms: C_24  and  O_25
REMARK                            x       y       z     vdW  Elec       q    Type
REMARK                         _______ _______ _______ _____ _____    ______ ____
ROOT
ATOM      1  C   UNL     1      10.701   3.657  23.430  0.00  0.00    +0.027 A 
ATOM      2  C   UNL     1      11.953   4.308  23.257  0.00  0.00    +0.143 A 
ATOM      3  N   UNL     1      11.907   5.611  23.533  0.00  0.00    -0.181 NA
ATOM      4  N   UNL     1      10.634   5.788  23.917  0.00  0.00    -0.276 N 
ATOM      5  H   UNL     1      10.353   6.701  24.266  0.00  0.00    +0.189 HD
ATOM      6  C   UNL     1       9.833   4.676  23.816  0.00  0.00    +0.077 A 
ENDROOT
BRANCH   6   7
ATOM      7  C   UNL     1       8.399   4.744  24.151  0.00  0.00    +0.043 A 
ATOM      8  C   UNL     1       7.950   5.188  25.414  0.00  0.00    +0.130 A 
ATOM      9  C   UNL     1       6.602   5.114  25.771  0.00  0.00    +0.093 A 
ATOM     10  C   UNL     1       5.685   4.605  24.860  0.00  0.00    +0.139 A 
ATOM     11  C   UNL     1       6.093   4.229  23.581  0.00  0.00    +0.083 A 
ATOM     12 CL   UNL     1       4.954   3.599  22.451  0.00  0.00    -0.080 Cl
ATOM     13  C   UNL     1       7.437   4.328  23.219  0.00  0.00    +0.037 A 
BRANCH   8  14
ATOM     14  O   UNL     1       8.848   5.697  26.316  0.00  0.00    -0.506 OA
ATOM     15  H   UNL     1       8.369   5.965  27.120  0.00  0.00    +0.292 HD
ENDBRANCH   8  14
BRANCH  10  16
ATOM     16  O   UNL     1       4.387   4.483  25.274  0.00  0.00    -0.505 OA
ATOM     17  H   UNL     1       3.870   5.166  24.806  0.00  0.00    +0.292 HD
ENDBRANCH  10  16
ENDBRANCH   6   7
BRANCH   1  21
ATOM     18  C   UNL     1      10.028  -0.532  22.845  0.00  0.00    +0.121 A 
ATOM     19  C   UNL     1      10.451  -0.064  24.086  0.00  0.00    +0.046 A 
ATOM     20  C   UNL     1      10.681   1.301  24.292  0.00  0.00    +0.012 A 
ATOM     21  C   UNL     1      10.429   2.232  23.274  0.00  0.00    -0.014 A 
ATOM     22  C   UNL     1       9.972   1.752  22.041  0.00  0.00    +0.012 A 
ATOM     23  C   UNL     1       9.782   0.384  21.824  0.00  0.00    +0.046 A 
BRANCH  18  24
ATOM     24  O   UNL     1       9.904  -1.895  22.739  0.00  0.00    -0.492 OA
BRANCH  24  25
ATOM     25  C   UNL     1       9.878  -2.603  23.981  0.00  0.00    +0.230 C 
BRANCH  25  26
ATOM     26  C   UNL     1       8.734  -3.609  23.965  0.00  0.00    +0.056 C 
BRANCH  26  27
ATOM     27  C   UNL     1       8.906  -4.683  25.036  0.00  0.00    +0.081 C 
BRANCH  27  28
ATOM     28  N   UNL     1      10.245  -5.262  25.016  0.00  0.00    -0.330 NA
ATOM     29  H   UNL     1      10.315  -5.942  24.258  0.00  0.00    +0.118 HD
ATOM     30  H   UNL     1      10.928  -4.535  24.807  0.00  0.00    +0.118 HD
ENDBRANCH  27  28
ENDBRANCH  26  27
ENDBRANCH  25  26
ENDBRANCH  24  25
ENDBRANCH  18  24
ENDBRANCH   1  21
TORSDOF 9
ENDMDL
MODEL 3
REMARK VINA RESULT:      -6.6      1.407      1.526
REMARK  Name = 
REMARK  9 active torsions:
REMARK  status: ('A' for Active; 'I' for Inactive)
REMARK    1  A    between atoms: N_1  and  C_2
REMARK    2  A    between atoms: C_2  and  C_3
REMARK    3  A    between atoms: C_3  and  C_4
REMARK    4  A    between atoms: C_4  and  O_5
REMARK    5  A    between atoms: O_5  and  C_6
REMARK    6  A    between atoms: C_9  and  C_12
REMARK    7  A    between atoms: C_13  and  C_17
REMARK    8  A    between atoms: C_21  and  O_22
REMARK    9  A    between atoms: C_24  and  O_25
REMARK                            x       y       z     vdW  Elec       q    Type
REMARK                         _______ _______ _______ _____ _____    ______ ____
ROOT
ATOM      1  C   UNL     1      10.541   3.593  23.327  0.00  0.00    +0.027 A 
ATOM      2  C   UNL     1      11.775   4.299  23.331  0.00  0.00    +0.143 A 
ATOM      3  N   UNL     1      11.624   5.614  23.481  0.00  0.00    -0.181 NA
ATOM      4  N   UNL     1      10.297   5.748  23.607  0.00  0.00    -0.276 N 
ATOM      5  H   UNL     1       9.917   6.668  23.818  0.00  0.00    +0.189 HD
ATOM      6  C   UNL     1       9.574   4.589  23.457  0.00  0.00    +0.077 A 
ENDROOT
BRANCH   6   7
ATOM      7  C   UNL     1       8.102   4.601  23.516  0.00  0.00    +0.043 A 
ATOM      8  C   UNL     1       7.328   5.401  22.646  0.00  0.00    +0.130 A 
ATOM      9  C   UNL     1       5.945   5.514  22.804  0.00  0.00    +0.093 A 
ATOM     10  C   UNL     1       5.319   4.817  23.828  0.00  0.00    +0.139 A 
ATOM     11  C   UNL     1       6.051   3.962  24.652  0.00  0.00    +0.083 A 
ATOM     12 CL   UNL     1       5.271   3.096  25.922  0.00  0.00    -0.080 Cl
ATOM     13  C   UNL     1       7.428   3.833  24.476  0.00  0.00    +0.037 A 
BRANCH   8  14
ATOM     14  O   UNL     1       7.939   6.089  21.629  0.00  0.00    -0.506 OA
ATOM     15  H   UNL     1       7.307   6.194  20.896  0.00  0.00    +0.292 HD
ENDBRANCH   8  14
BRANCH  10  16
ATOM     16  O   UNL     1       3.975   5.011  23.992  0.00  0.00    -0.505 OA
ATOM     17  H   UNL     1       3.821   5.975  23.992  0.00  0.00    +0.292 HD
ENDBRANCH  10  16
ENDBRANCH   6   7
BRANCH   1  21
ATOM     18  C   UNL     1      10.144  -0.656  22.972  0.00  0.00    +0.121 A 
ATOM     19  C   UNL     1      10.498  -0.092  24.196  0.00  0.00    +0.046 A 
ATOM     20  C   UNL     1      10.637   1.294  24.326  0.00  0.00    +0.012 A 
ATOM     21  C   UNL     1      10.362   2.148  23.249  0.00  0.00    -0.014 A 
ATOM     22  C   UNL     1       9.975   1.570  22.033  0.00  0.00    +0.012 A 
ATOM     23  C   UNL     1       9.876   0.183  21.892  0.00  0.00    +0.046 A 
BRANCH  18  24
ATOM     24  O   UNL     1      10.107  -2.028  22.943  0.00  0.00    -0.492 OA
BRANCH  24  25
ATOM     25  C   UNL     1       9.093  -2.627  23.755  0.00  0.00    +0.230 C 
BRANCH  25  26
ATOM     26  C   UNL     1       7.943  -3.088  22.868  0.00  0.00    +0.056 C 
BRANCH  26  27
ATOM     27  C   UNL     1       6.762  -2.122  22.922  0.00  0.00    +0.081 C 
BRANCH  27  28
ATOM     28  N   UNL     1       5.583  -2.667  22.256  0.00  0.00    -0.330 NA
ATOM     29  H   UNL     1       4.940  -1.910  22.021  0.00  0.00    +0.118 HD
ATOM     30  H   UNL     1       5.857  -3.091  21.370  0.00  0.00    +0.118 HD
ENDBRANCH  27  28
ENDBRANCH  26  27
ENDBRANCH  25  26
ENDBRANCH  24  25
ENDBRANCH  18  24
ENDBRANCH   1  21
TORSDOF 9
ENDMDL
MODEL 4
REMARK VINA RESULT:      -6.6      3.774      8.654
REMARK  Name = 
REMARK  9 active torsions:
REMARK  status: ('A' for Active; 'I' for Inactive)
REMARK    1  A    between atoms: N_1  and  C_2
REMARK    2  A    between atoms: C_2  and  C_3
REMARK    3  A    between atoms: C_3  and  C_4
REMARK    4  A    between atoms: C_4  and  O_5
REMARK    5  A    between atoms: O_5  and  C_6
REMARK    6  A    between atoms: C_9  and  C_12
REMARK    7  A    between atoms: C_13  and  C_17
REMARK    8  A    between atoms: C_21  and  O_22
REMARK    9  A    between atoms: C_24  and  O_25
REMARK                            x       y       z     vdW  Elec       q    Type
REMARK                         _______ _______ _______ _____ _____    ______ ____
ROOT
ATOM      1  C   UNL     1       7.196  -4.615  23.038  0.00  0.00    +0.027 A 
ATOM      2  C   UNL     1       7.000  -5.434  21.892  0.00  0.00    +0.143 A 
ATOM      3  N   UNL     1       6.108  -6.404  22.089  0.00  0.00    -0.181 NA
ATOM      4  N   UNL     1       5.707  -6.186  23.350  0.00  0.00    -0.276 N 
ATOM      5  H   UNL     1       4.951  -6.754  23.726  0.00  0.00    +0.189 HD
ATOM      6  C   UNL     1       6.365  -5.174  24.007  0.00  0.00    +0.077 A 
ENDROOT
BRANCH   6   7
ATOM      7  C   UNL     1       6.062  -4.864  25.416  0.00  0.00    +0.043 A 
ATOM      8  C   UNL     1       6.887  -5.312  26.471  0.00  0.00    +0.130 A 
ATOM      9  C   UNL     1       6.516  -5.137  27.806  0.00  0.00    +0.093 A 
ATOM     10  C   UNL     1       5.319  -4.497  28.099  0.00  0.00    +0.139 A 
ATOM     11  C   UNL     1       4.524  -3.979  27.077  0.00  0.00    +0.083 A 
ATOM     12 CL   UNL     1       3.040  -3.184  27.444  0.00  0.00    -0.080 Cl
ATOM     13  C   UNL     1       4.910  -4.136  25.746  0.00  0.00    +0.037 A 
BRANCH   8  14
ATOM     14  O   UNL     1       8.073  -5.940  26.188  0.00  0.00    -0.506 OA
ATOM     15  H   UNL     1       8.675  -5.832  26.946  0.00  0.00    +0.292 HD
ENDBRANCH   8  14
BRANCH  10  16
ATOM     16  O   UNL     1       4.959  -4.408  29.416  0.00  0.00    -0.505 OA
ATOM     17  H   UNL     1       4.914  -5.320  29.764  0.00  0.00    +0.292 HD
ENDBRANCH  10  16
ENDBRANCH   6   7
BRANCH   1  21
ATOM     18  C   UNL     1       9.843  -1.258  23.281  0.00  0.00    +0.121 A 
ATOM     19  C   UNL     1       8.816  -1.265  22.340  0.00  0.00    +0.046 A 
ATOM     20  C   UNL     1       7.947  -2.357  22.245  0.00  0.00    +0.012 A 
ATOM     21  C   UNL     1       8.050  -3.436  23.133  0.00  0.00    -0.014 A 
ATOM     22  C   UNL     1       9.066  -3.402  24.097  0.00  0.00    +0.012 A 
ATOM     23  C   UNL     1       9.960  -2.329  24.165  0.00  0.00    +0.046 A 
BRANCH  18  24
ATOM     24  O   UNL     1      10.677  -0.168  23.236  0.00  0.00    -0.492 OA
BRANCH  24  25
ATOM     25  C   UNL     1      10.718   0.618  24.430  0.00  0.00    +0.230 C 
BRANCH  25  26
ATOM     26  C   UNL     1       9.823   1.840  24.262  0.00  0.00    +0.056 C 
BRANCH  26  27
ATOM     27  C   UNL     1      10.355   2.790  23.191  0.00  0.00    +0.081 C 
BRANCH  27  28
ATOM     28  N   UNL     1      10.127   2.275  21.845  0.00  0.00    -0.330 NA
ATOM     29  H   UNL     1      10.703   1.446  21.691  0.00  0.00    +0.118 HD
ATOM     30  H   UNL     1       9.159   1.967  21.756  0.00  0.00    +0.118 HD
ENDBRANCH  27  28
ENDBRANCH  26  27
ENDBRANCH  25  26
ENDBRANCH  24  25
ENDBRANCH  18  24
ENDBRANCH   1  21
TORSDOF 9
ENDMDL
MODEL 5
REMARK VINA RESULT:      -6.6      4.220      7.286
REMARK  Name = 
REMARK  9 active torsions:
REMARK  status: ('A' for Active; 'I' for Inactive)
REMARK    1  A    between atoms: N_1  and  C_2
REMARK    2  A    between atoms: C_2  and  C_3
REMARK    3  A    between atoms: C_3  and  C_4
REMARK    4  A    between atoms: C_4  and  O_5
REMARK    5  A    between atoms: O_5  and  C_6
REMARK    6  A    between atoms: C_9  and  C_12
REMARK    7  A    between atoms: C_13  and  C_17
REMARK    8  A    between atoms: C_21  and  O_22
REMARK    9  A    between atoms: C_24  and  O_25
REMARK                            x       y       z     vdW  Elec       q    Type
REMARK                         _______ _______ _______ _____ _____    ______ ____
ROOT
ATOM      1  C   UNL     1       7.968  -4.042  23.924  0.00  0.00    +0.027 A 
ATOM      2  C   UNL     1       8.878  -4.938  24.548  0.00  0.00    +0.143 A 
ATOM      3  N   UNL     1      10.083  -4.405  24.745  0.00  0.00    -0.181 NA
ATOM      4  N   UNL     1       9.936  -3.157  24.278  0.00  0.00    -0.276 N 
ATOM      5  H   UNL     1      10.706  -2.501  24.388  0.00  0.00    +0.189 HD
ATOM      6  C   UNL     1       8.716  -2.886  23.707  0.00  0.00    +0.077 A 
ENDROOT
BRANCH   6   7
ATOM      7  C   UNL     1       8.438  -1.570  23.104  0.00  0.00    +0.043 A 
ATOM      8  C   UNL     1       9.252  -1.032  22.084  0.00  0.00    +0.130 A 
ATOM      9  C   UNL     1       9.066   0.272  21.620  0.00  0.00    +0.093 A 
ATOM     10  C   UNL     1       8.052   1.048  22.165  0.00  0.00    +0.139 A 
ATOM     11  C   UNL     1       7.188   0.514  23.120  0.00  0.00    +0.083 A 
ATOM     12 CL   UNL     1       5.929   1.479  23.795  0.00  0.00    -0.080 Cl
ATOM     13  C   UNL     1       7.362  -0.797  23.563  0.00  0.00    +0.037 A 
BRANCH   8  14
ATOM     14  O   UNL     1      10.252  -1.794  21.536  0.00  0.00    -0.506 OA
ATOM     15  H   UNL     1      10.008  -2.734  21.611  0.00  0.00    +0.292 HD
ENDBRANCH   8  14
BRANCH  10  16
ATOM     16  O   UNL     1       7.949   2.343  21.735  0.00  0.00    -0.505 OA
ATOM     17  H   UNL     1       7.019   2.614  21.859  0.00  0.00    +0.292 HD
ENDBRANCH  10  16
ENDBRANCH   6   7
BRANCH   1  21
ATOM     18  C   UNL     1       3.856  -4.936  23.127  0.00  0.00    +0.121 A 
ATOM     19  C   UNL     1       4.185  -3.889  23.984  0.00  0.00    +0.046 A 
ATOM     20  C   UNL     1       5.523  -3.588  24.258  0.00  0.00    +0.012 A 
ATOM     21  C   UNL     1       6.561  -4.290  23.630  0.00  0.00    -0.014 A 
ATOM     22  C   UNL     1       6.217  -5.319  22.744  0.00  0.00    +0.012 A 
ATOM     23  C   UNL     1       4.880  -5.646  22.502  0.00  0.00    +0.046 A 
BRANCH  18  24
ATOM     24  O   UNL     1       2.514  -5.186  22.987  0.00  0.00    -0.492 OA
BRANCH  24  25
ATOM     25  C   UNL     1       2.136  -6.561  23.085  0.00  0.00    +0.230 C 
BRANCH  25  26
ATOM     26  C   UNL     1       1.772  -6.884  24.529  0.00  0.00    +0.056 C 
BRANCH  26  27
ATOM     27  C   UNL     1       2.801  -7.803  25.183  0.00  0.00    +0.081 C 
BRANCH  27  28
ATOM     28  N   UNL     1       2.387  -9.201  25.141  0.00  0.00    -0.330 NA
ATOM     29  H   UNL     1       1.483  -9.279  24.673  0.00  0.00    +0.118 HD
ATOM     30  H   UNL     1       3.046  -9.736  24.576  0.00  0.00    +0.118 HD
ENDBRANCH  27  28
ENDBRANCH  26  27
ENDBRANCH  25  26
ENDBRANCH  24  25
ENDBRANCH  18  24
ENDBRANCH   1  21
TORSDOF 9
ENDMDL
MODEL 6
REMARK VINA RESULT:      -6.3      4.542      9.410
REMARK  Name = 
REMARK  9 active torsions:
REMARK  status: ('A' for Active; 'I' for Inactive)
REMARK    1  A    between atoms: N_1  and  C_2
REMARK    2  A    between atoms: C_2  and  C_3
REMARK    3  A    between atoms: C_3  and  C_4
REMARK    4  A    between atoms: C_4  and  O_5
REMARK    5  A    between atoms: O_5  and  C_6
REMARK    6  A    between atoms: C_9  and  C_12
REMARK    7  A    between atoms: C_13  and  C_17
REMARK    8  A    between atoms: C_21  and  O_22
REMARK    9  A    between atoms: C_24  and  O_25
REMARK                            x       y       z     vdW  Elec       q    Type
REMARK                         _______ _______ _______ _____ _____    ______ ____
ROOT
ATOM      1  C   UNL     1       6.575  -4.610  22.729  0.00  0.00    +0.027 A 
ATOM      2  C   UNL     1       6.562  -4.757  21.315  0.00  0.00    +0.143 A 
ATOM      3  N   UNL     1       5.815  -5.781  20.903  0.00  0.00    -0.181 NA
ATOM      4  N   UNL     1       5.322  -6.269  22.050  0.00  0.00    -0.276 N 
ATOM      5  H   UNL     1       4.641  -7.023  22.006  0.00  0.00    +0.189 HD
ATOM      6  C   UNL     1       5.787  -5.662  23.192  0.00  0.00    +0.077 A 
ENDROOT
BRANCH   6   7
ATOM      7  C   UNL     1       5.370  -6.136  24.524  0.00  0.00    +0.043 A 
ATOM      8  C   UNL     1       4.256  -6.985  24.698  0.00  0.00    +0.130 A 
ATOM      9  C   UNL     1       3.784  -7.312  25.971  0.00  0.00    +0.093 A 
ATOM     10  C   UNL     1       4.433  -6.801  27.087  0.00  0.00    +0.139 A 
ATOM     11  C   UNL     1       5.580  -6.021  26.943  0.00  0.00    +0.083 A 
ATOM     12 CL   UNL     1       6.385  -5.389  28.330  0.00  0.00    -0.080 Cl
ATOM     13  C   UNL     1       6.062  -5.717  25.670  0.00  0.00    +0.037 A 
BRANCH   8  14
ATOM     14  O   UNL     1       3.612  -7.498  23.600  0.00  0.00    -0.506 OA
ATOM     15  H   UNL     1       3.642  -6.841  22.882  0.00  0.00    +0.292 HD
ENDBRANCH   8  14
BRANCH  10  16
ATOM     16  O   UNL     1       3.898  -7.087  28.313  0.00  0.00    -0.505 OA
ATOM     17  H   UNL     1       4.033  -8.041  28.471  0.00  0.00    +0.292 HD
ENDBRANCH  10  16
ENDBRANCH   6   7
BRANCH   1  21
ATOM     18  C   UNL     1       8.638  -1.503  24.834  0.00  0.00    +0.121 A 
ATOM     19  C   UNL     1       7.298  -1.338  24.491  0.00  0.00    +0.046 A 
ATOM     20  C   UNL     1       6.612  -2.341  23.798  0.00  0.00    +0.012 A 
ATOM     21  C   UNL     1       7.237  -3.558  23.492  0.00  0.00    -0.014 A 
ATOM     22  C   UNL     1       8.575  -3.725  23.872  0.00  0.00    +0.012 A 
ATOM     23  C   UNL     1       9.272  -2.706  24.528  0.00  0.00    +0.046 A 
BRANCH  18  24
ATOM     24  O   UNL     1       9.227  -0.427  25.448  0.00  0.00    -0.492 OA
BRANCH  24  25
ATOM     25  C   UNL     1      10.380   0.098  24.784  0.00  0.00    +0.230 C 
BRANCH  25  26
ATOM     26  C   UNL     1      10.021   0.436  23.341  0.00  0.00    +0.056 C 
BRANCH  26  27
ATOM     27  C   UNL     1       9.912   1.943  23.120  0.00  0.00    +0.081 C 
BRANCH  27  28
ATOM     28  N   UNL     1      10.234   2.316  21.747  0.00  0.00    -0.330 NA
ATOM     29  H   UNL     1      11.240   2.459  21.655  0.00  0.00    +0.118 HD
ATOM     30  H   UNL     1       9.999   1.546  21.120  0.00  0.00    +0.118 HD
ENDBRANCH  27  28
ENDBRANCH  26  27
ENDBRANCH  25  26
ENDBRANCH  24  25
ENDBRANCH  18  24
ENDBRANCH   1  21
TORSDOF 9
ENDMDL
MODEL 7
REMARK VINA RESULT:      -6.3      4.822      9.381
REMARK  Name = 
REMARK  9 active torsions:
REMARK  status: ('A' for Active; 'I' for Inactive)
REMARK    1  A    between atoms: N_1  and  C_2
REMARK    2  A    between atoms: C_2  and  C_3
REMARK    3  A    between atoms: C_3  and  C_4
REMARK    4  A    between atoms: C_4  and  O_5
REMARK    5  A    between atoms: O_5  and  C_6
REMARK    6  A    between atoms: C_9  and  C_12
REMARK    7  A    between atoms: C_13  and  C_17
REMARK    8  A    between atoms: C_21  and  O_22
REMARK    9  A    between atoms: C_24  and  O_25
REMARK                            x       y       z     vdW  Elec       q    Type
REMARK                         _______ _______ _______ _____ _____    ______ ____
ROOT
ATOM      1  C   UNL     1       6.344  -5.196  25.922  0.00  0.00    +0.027 A 
ATOM      2  C   UNL     1       7.011  -5.697  27.073  0.00  0.00    +0.143 A 
ATOM      3  N   UNL     1       6.266  -6.547  27.779  0.00  0.00    -0.181 NA
ATOM      4  N   UNL     1       5.136  -6.617  27.063  0.00  0.00    -0.276 N 
ATOM      5  H   UNL     1       4.416  -7.277  27.350  0.00  0.00    +0.189 HD
ATOM      6  C   UNL     1       5.081  -5.783  25.972  0.00  0.00    +0.077 A 
ENDROOT
BRANCH   6   7
ATOM      7  C   UNL     1       3.874  -5.718  25.128  0.00  0.00    +0.043 A 
ATOM      8  C   UNL     1       3.720  -6.531  23.985  0.00  0.00    +0.130 A 
ATOM      9  C   UNL     1       2.641  -6.361  23.114  0.00  0.00    +0.093 A 
ATOM     10  C   UNL     1       1.695  -5.382  23.388  0.00  0.00    +0.139 A 
ATOM     11  C   UNL     1       1.786  -4.617  24.551  0.00  0.00    +0.083 A 
ATOM     12 CL   UNL     1       0.610  -3.403  24.890  0.00  0.00    -0.080 Cl
ATOM     13  C   UNL     1       2.852  -4.806  25.430  0.00  0.00    +0.037 A 
BRANCH   8  14
ATOM     14  O   UNL     1       4.647  -7.504  23.710  0.00  0.00    -0.506 OA
ATOM     15  H   UNL     1       5.332  -7.490  24.402  0.00  0.00    +0.292 HD
ENDBRANCH   8  14
BRANCH  10  16
ATOM     16  O   UNL     1       0.694  -5.201  22.475  0.00  0.00    -0.505 OA
ATOM     17  H   UNL     1      -0.122  -5.570  22.864  0.00  0.00    +0.292 HD
ENDBRANCH  10  16
ENDBRANCH   6   7
BRANCH   1  21
ATOM     18  C   UNL     1       8.131  -2.581  23.039  0.00  0.00    +0.121 A 
ATOM     19  C   UNL     1       7.627  -3.816  22.638  0.00  0.00    +0.046 A 
ATOM     20  C   UNL     1       7.046  -4.683  23.569  0.00  0.00    +0.012 A 
ATOM     21  C   UNL     1       6.899  -4.304  24.910  0.00  0.00    -0.014 A 
ATOM     22  C   UNL     1       7.380  -3.046  25.295  0.00  0.00    +0.012 A 
ATOM     23  C   UNL     1       7.998  -2.196  24.373  0.00  0.00    +0.046 A 
BRANCH  18  24
ATOM     24  O   UNL     1       8.742  -1.844  22.056  0.00  0.00    -0.492 OA
BRANCH  24  25
ATOM     25  C   UNL     1      10.104  -1.492  22.314  0.00  0.00    +0.230 C 
BRANCH  25  26
ATOM     26  C   UNL     1      10.195   0.003  22.596  0.00  0.00    +0.056 C 
BRANCH  26  27
ATOM     27  C   UNL     1       9.286   0.811  21.674  0.00  0.00    +0.081 C 
BRANCH  27  28
ATOM     28  N   UNL     1       9.766   2.177  21.498  0.00  0.00    -0.330 NA
ATOM     29  H   UNL     1      10.639   2.170  20.969  0.00  0.00    +0.118 HD
ATOM     30  H   UNL     1       9.099   2.704  20.935  0.00  0.00    +0.118 HD
ENDBRANCH  27  28
ENDBRANCH  26  27
ENDBRANCH  25  26
ENDBRANCH  24  25
ENDBRANCH  18  24
ENDBRANCH   1  21
TORSDOF 9
ENDMDL
MODEL 8
REMARK VINA RESULT:      -6.0      4.172      9.022
REMARK  Name = 
REMARK  9 active torsions:
REMARK  status: ('A' for Active; 'I' for Inactive)
REMARK    1  A    between atoms: N_1  and  C_2
REMARK    2  A    between atoms: C_2  and  C_3
REMARK    3  A    between atoms: C_3  and  C_4
REMARK    4  A    between atoms: C_4  and  O_5
REMARK    5  A    between atoms: O_5  and  C_6
REMARK    6  A    between atoms: C_9  and  C_12
REMARK    7  A    between atoms: C_13  and  C_17
REMARK    8  A    between atoms: C_21  and  O_22
REMARK    9  A    between atoms: C_24  and  O_25
REMARK                            x       y       z     vdW  Elec       q    Type
REMARK                         _______ _______ _______ _____ _____    ______ ____
ROOT
ATOM      1  C   UNL     1       8.470  -3.723  25.069  0.00  0.00    +0.027 A 
ATOM      2  C   UNL     1       9.859  -3.973  24.897  0.00  0.00    +0.143 A 
ATOM      3  N   UNL     1      10.200  -5.233  25.164  0.00  0.00    -0.181 NA
ATOM      4  N   UNL     1       9.025  -5.799  25.474  0.00  0.00    -0.276 N 
ATOM      5  H   UNL     1       8.996  -6.802  25.644  0.00  0.00    +0.189 HD
ATOM      6  C   UNL     1       7.952  -4.941  25.506  0.00  0.00    +0.077 A 
ENDROOT
BRANCH   6   7
ATOM      7  C   UNL     1       6.611  -5.419  25.886  0.00  0.00    +0.043 A 
ATOM      8  C   UNL     1       6.364  -6.028  27.135  0.00  0.00    +0.130 A 
ATOM      9  C   UNL     1       5.127  -6.605  27.429  0.00  0.00    +0.093 A 
ATOM     10  C   UNL     1       4.117  -6.566  26.477  0.00  0.00    +0.139 A 
ATOM     11  C   UNL     1       4.312  -5.905  25.265  0.00  0.00    +0.083 A 
ATOM     12 CL   UNL     1       3.056  -5.856  24.085  0.00  0.00    -0.080 Cl
ATOM     13  C   UNL     1       5.542  -5.309  24.985  0.00  0.00    +0.037 A 
BRANCH   8  14
ATOM     14  O   UNL     1       7.355  -6.066  28.083  0.00  0.00    -0.506 OA
ATOM     15  H   UNL     1       8.014  -5.380  27.877  0.00  0.00    +0.292 HD
ENDBRANCH   8  14
BRANCH  10  16
ATOM     16  O   UNL     1       2.944  -7.204  26.776  0.00  0.00    -0.505 OA
ATOM     17  H   UNL     1       3.177  -8.090  27.115  0.00  0.00    +0.292 HD
ENDBRANCH  10  16
ENDBRANCH   6   7
BRANCH   1  21
ATOM     18  C   UNL     1       6.565   0.032  24.285  0.00  0.00    +0.121 A 
ATOM     19  C   UNL     1       6.504  -0.989  23.339  0.00  0.00    +0.046 A 
ATOM     20  C   UNL     1       7.126  -2.219  23.578  0.00  0.00    +0.012 A 
ATOM     21  C   UNL     1       7.768  -2.474  24.798  0.00  0.00    -0.014 A 
ATOM     22  C   UNL     1       7.793  -1.451  25.754  0.00  0.00    +0.012 A 
ATOM     23  C   UNL     1       7.207  -0.209  25.499  0.00  0.00    +0.046 A 
BRANCH  18  24
ATOM     24  O   UNL     1       5.981   1.217  23.914  0.00  0.00    -0.492 OA
BRANCH  24  25
ATOM     25  C   UNL     1       6.375   1.716  22.634  0.00  0.00    +0.230 C 
BRANCH  25  26
ATOM     26  C   UNL     1       7.795   2.263  22.721  0.00  0.00    +0.056 C 
BRANCH  26  27
ATOM     27  C   UNL     1       8.705   1.656  21.655  0.00  0.00    +0.081 C 
BRANCH  27  28
ATOM     28  N   UNL     1      10.049   2.221  21.701  0.00  0.00    -0.330 NA
ATOM     29  H   UNL     1      10.024   3.134  22.157  0.00  0.00    +0.118 HD
ATOM     30  H   UNL     1      10.647   1.632  22.279  0.00  0.00    +0.118 HD
ENDBRANCH  27  28
ENDBRANCH  26  27
ENDBRANCH  25  26
ENDBRANCH  24  25
ENDBRANCH  18  24
ENDBRANCH   1  21
TORSDOF 9
ENDMDL
MODEL 9
REMARK VINA RESULT:      -5.9      3.803      5.541
REMARK  Name = 
REMARK  9 active torsions:
REMARK  status: ('A' for Active; 'I' for Inactive)
REMARK    1  A    between atoms: N_1  and  C_2
REMARK    2  A    between atoms: C_2  and  C_3
REMARK    3  A    between atoms: C_3  and  C_4
REMARK    4  A    between atoms: C_4  and  O_5
REMARK    5  A    between atoms: O_5  and  C_6
REMARK    6  A    between atoms: C_9  and  C_12
REMARK    7  A    between atoms: C_13  and  C_17
REMARK    8  A    between atoms: C_21  and  O_22
REMARK    9  A    between atoms: C_24  and  O_25
REMARK                            x       y       z     vdW  Elec       q    Type
REMARK                         _______ _______ _______ _____ _____    ______ ____
ROOT
ATOM      1  C   UNL     1       7.147   0.053  27.074  0.00  0.00    +0.027 A 
ATOM      2  C   UNL     1       6.716   0.603  28.312  0.00  0.00    +0.143 A 
ATOM      3  N   UNL     1       6.886   1.922  28.386  0.00  0.00    -0.181 NA
ATOM      4  N   UNL     1       7.395   2.223  27.183  0.00  0.00    -0.276 N 
ATOM      5  H   UNL     1       7.543   3.202  26.947  0.00  0.00    +0.189 HD
ATOM      6  C   UNL     1       7.644   1.146  26.366  0.00  0.00    +0.077 A 
ENDROOT
BRANCH   6   7
ATOM      7  C   UNL     1       8.255   1.329  25.038  0.00  0.00    +0.043 A 
ATOM      8  C   UNL     1       9.603   0.996  24.785  0.00  0.00    +0.130 A 
ATOM      9  C   UNL     1      10.210   1.304  23.566  0.00  0.00    +0.093 A 
ATOM     10  C   UNL     1       9.468   1.941  22.580  0.00  0.00    +0.139 A 
ATOM     11  C   UNL     1       8.115   2.213  22.778  0.00  0.00    +0.083 A 
ATOM     12 CL   UNL     1       7.195   3.001  21.551  0.00  0.00    -0.080 Cl
ATOM     13  C   UNL     1       7.506   1.881  23.988  0.00  0.00    +0.037 A 
BRANCH   8  14
ATOM     14  O   UNL     1      10.341   0.363  25.752  0.00  0.00    -0.506 OA
ATOM     15  H   UNL     1       9.957   0.566  26.624  0.00  0.00    +0.292 HD
ENDBRANCH   8  14
BRANCH  10  16
ATOM     16  O   UNL     1      10.119   2.289  21.428  0.00  0.00    -0.505 OA
ATOM     17  H   UNL     1      10.015   1.547  20.802  0.00  0.00    +0.292 HD
ENDBRANCH  10  16
ENDBRANCH   6   7
BRANCH   1  21
ATOM     18  C   UNL     1       6.768  -3.977  25.676  0.00  0.00    +0.121 A 
ATOM     19  C   UNL     1       8.018  -3.485  26.044  0.00  0.00    +0.046 A 
ATOM     20  C   UNL     1       8.159  -2.168  26.497  0.00  0.00    +0.012 A 
ATOM     21  C   UNL     1       7.040  -1.339  26.652  0.00  0.00    -0.014 A 
ATOM     22  C   UNL     1       5.784  -1.857  26.311  0.00  0.00    +0.012 A 
ATOM     23  C   UNL     1       5.649  -3.158  25.819  0.00  0.00    +0.046 A 
BRANCH  18  24
ATOM     24  O   UNL     1       6.761  -5.257  25.180  0.00  0.00    -0.492 OA
BRANCH  24  25
ATOM     25  C   UNL     1       6.225  -5.396  23.861  0.00  0.00    +0.230 C 
BRANCH  25  26
ATOM     26  C   UNL     1       7.364  -5.364  22.848  0.00  0.00    +0.056 C 
BRANCH  26  27
ATOM     27  C   UNL     1       6.908  -5.828  21.467  0.00  0.00    +0.081 C 
BRANCH  27  28
ATOM     28  N   UNL     1       5.479  -6.119  21.434  0.00  0.00    -0.330 NA
ATOM     29  H   UNL     1       5.333  -7.106  21.217  0.00  0.00    +0.118 HD
ATOM     30  H   UNL     1       5.079  -5.971  22.361  0.00  0.00    +0.118 HD
ENDBRANCH  27  28
ENDBRANCH  26  27
ENDBRANCH  25  26
ENDBRANCH  24  25
ENDBRANCH  18  24
ENDBRANCH   1  21
TORSDOF 9
ENDMDL
