MODEL 1
REMARK VINA RESULT:      -5.3      0.000      0.000
REMARK  Name = 
REMARK  3 active torsions:
REMARK  status: ('A' for Active; 'I' for Inactive)
REMARK    1  A    between atoms: N_1  and  C_2
REMARK    2  A    between atoms: C_5  and  S_9
REMARK    3  A    between atoms: S_9  and  N_10
REMARK                            x       y       z     vdW  Elec       q    Type
REMARK                         _______ _______ _______ _____ _____    ______ ____
ROOT
ATOM      1  C   UNL     1       9.999   1.211  22.359  0.00  0.00    +0.000 A 
ATOM      2  C   UNL     1       9.202   0.351  21.594  0.00  0.00    +0.000 A 
ATOM      3 HG   UNL     1       8.570   0.925  19.714  0.00  0.00    +0.000 Hg
ATOM      4  C   UNL     1       8.836  -0.901  22.094  0.00  0.00    +0.000 A 
ATOM      5  C   UNL     1       9.264  -1.301  23.366  0.00  0.00    +0.000 A 
ATOM      6  C   UNL     1      10.056  -0.440  24.135  0.00  0.00    +0.000 A 
ATOM      7  C   UNL     1      10.423   0.812  23.634  0.00  0.00    +0.000 A 
ENDROOT
BRANCH   1   8
ATOM      8  N   UNL     1      10.376   2.473  21.841  0.00  0.00    +0.000 N 
ATOM      9  H   UNL     1       9.969   3.339  22.222  0.00  0.00    +0.000 HD
ATOM     10  H   UNL     1      11.055   2.544  21.068  0.00  0.00    +0.000 HD
ENDBRANCH   1   8
BRANCH   5  11
ATOM     11  S   UNL     1       8.831  -2.915  24.011  0.00  0.00    +0.000 S 
ATOM     12  O   UNL     1       8.134  -2.863  25.380  0.00  0.00    +0.000 OA
ATOM     13  O   UNL     1      10.050  -3.804  24.301  0.00  0.00    +0.000 OA
BRANCH  11  14
ATOM     14  N   UNL     1       7.769  -3.897  23.002  0.00  0.00    +0.000 NA
ATOM     15  H   UNL     1       8.353  -4.309  22.241  0.00  0.00    +0.000 HD
ATOM     16  H   UNL     1       7.411  -4.681  23.592  0.00  0.00    +0.000 HD
ENDBRANCH  11  14
ENDBRANCH   5  11
TORSDOF 3
ENDMDL
MODEL 2
REMARK VINA RESULT:      -5.1      1.992      2.506
REMARK  Name = 
REMARK  3 active torsions:
REMARK  status: ('A' for Active; 'I' for Inactive)
REMARK    1  A    between atoms: N_1  and  C_2
REMARK    2  A    between atoms: C_5  and  S_9
REMARK    3  A    between atoms: S_9  and  N_10
REMARK                            x       y       z     vdW  Elec       q    Type
REMARK                         _______ _______ _______ _____ _____    ______ ____
ROOT
ATOM      1  C   UNL     1       9.837   0.785  22.205  0.00  0.00    +0.000 A 
ATOM      2  C   UNL     1       9.975   0.648  23.592  0.00  0.00    +0.000 A 
ATOM      3 HG   UNL     1      10.572   2.261  24.735  0.00  0.00    +0.000 Hg
ATOM      4  C   UNL     1       9.706  -0.575  24.210  0.00  0.00    +0.000 A 
ATOM      5  C   UNL     1       9.295  -1.672  23.443  0.00  0.00    +0.000 A 
ATOM      6  C   UNL     1       9.162  -1.540  22.056  0.00  0.00    +0.000 A 
ATOM      7  C   UNL     1       9.431  -0.316  21.438  0.00  0.00    +0.000 A 
ENDROOT
BRANCH   1   8
ATOM      8  N   UNL     1      10.100   2.031  21.587  0.00  0.00    +0.000 N 
ATOM      9  H   UNL     1       9.344   2.715  21.443  0.00  0.00    +0.000 HD
ATOM     10  H   UNL     1      11.049   2.267  21.262  0.00  0.00    +0.000 HD
ENDBRANCH   1   8
BRANCH   5  11
ATOM     11  S   UNL     1       8.914  -3.240  24.221  0.00  0.00    +0.000 S 
ATOM     12  O   UNL     1      10.147  -4.127  24.454  0.00  0.00    +0.000 OA
ATOM     13  O   UNL     1       8.019  -4.147  23.363  0.00  0.00    +0.000 OA
BRANCH  11  14
ATOM     14  N   UNL     1       8.117  -3.155  25.793  0.00  0.00    +0.000 NA
ATOM     15  H   UNL     1       8.025  -4.132  26.151  0.00  0.00    +0.000 HD
ATOM     16  H   UNL     1       8.752  -2.636  26.439  0.00  0.00    +0.000 HD
ENDBRANCH  11  14
ENDBRANCH   5  11
TORSDOF 3
ENDMDL
MODEL 3
REMARK VINA RESULT:      -5.1      4.488      5.959
REMARK  Name = 
REMARK  3 active torsions:
REMARK  status: ('A' for Active; 'I' for Inactive)
REMARK    1  A    between atoms: N_1  and  C_2
REMARK    2  A    between atoms: C_5  and  S_9
REMARK    3  A    between atoms: S_9  and  N_10
REMARK                            x       y       z     vdW  Elec       q    Type
REMARK                         _______ _______ _______ _____ _____    ______ ____
ROOT
ATOM      1  C   UNL     1       8.104  -4.955  26.544  0.00  0.00    +0.000 A 
ATOM      2  C   UNL     1       9.150  -5.196  25.644  0.00  0.00    +0.000 A 
ATOM      3 HG   UNL     1      10.037  -7.059  25.564  0.00  0.00    +0.000 Hg
ATOM      4  C   UNL     1       9.594  -4.182  24.792  0.00  0.00    +0.000 A 
ATOM      5  C   UNL     1       8.996  -2.917  24.835  0.00  0.00    +0.000 A 
ATOM      6  C   UNL     1       7.955  -2.672  25.738  0.00  0.00    +0.000 A 
ATOM      7  C   UNL     1       7.510  -3.686  26.590  0.00  0.00    +0.000 A 
ENDROOT
BRANCH   1   8
ATOM      8  N   UNL     1       7.651  -5.991  27.395  0.00  0.00    +0.000 N 
ATOM      9  H   UNL     1       6.769  -5.891  27.918  0.00  0.00    +0.000 HD
ATOM     10  H   UNL     1       8.202  -6.854  27.514  0.00  0.00    +0.000 HD
ENDBRANCH   1   8
BRANCH   5  11
ATOM     11  S   UNL     1       9.530  -1.613  23.730  0.00  0.00    +0.000 S 
ATOM     12  O   UNL     1      10.548  -2.078  22.677  0.00  0.00    +0.000 OA
ATOM     13  O   UNL     1      10.291  -0.483  24.440  0.00  0.00    +0.000 OA
BRANCH  11  14
ATOM     14  N   UNL     1       8.261  -0.809  22.805  0.00  0.00    +0.000 NA
ATOM     15  H   UNL     1       8.701  -0.421  21.941  0.00  0.00    +0.000 HD
ATOM     16  H   UNL     1       7.573  -1.539  22.514  0.00  0.00    +0.000 HD
ENDBRANCH  11  14
ENDBRANCH   5  11
TORSDOF 3
ENDMDL
MODEL 4
REMARK VINA RESULT:      -5.0      5.299      5.924
REMARK  Name = 
REMARK  3 active torsions:
REMARK  status: ('A' for Active; 'I' for Inactive)
REMARK    1  A    between atoms: N_1  and  C_2
REMARK    2  A    between atoms: C_5  and  S_9
REMARK    3  A    between atoms: S_9  and  N_10
REMARK                            x       y       z     vdW  Elec       q    Type
REMARK                         _______ _______ _______ _____ _____    ______ ____
ROOT
ATOM      1  C   UNL     1       8.526  -4.803  25.772  0.00  0.00    +0.000 A 
ATOM      2  C   UNL     1       8.860  -4.267  24.523  0.00  0.00    +0.000 A 
ATOM      3 HG   UNL     1      10.750  -3.499  24.199  0.00  0.00    +0.000 Hg
ATOM      4  C   UNL     1       7.923  -4.253  23.488  0.00  0.00    +0.000 A 
ATOM      5  C   UNL     1       6.641  -4.776  23.696  0.00  0.00    +0.000 A 
ATOM      6  C   UNL     1       6.301  -5.307  24.945  0.00  0.00    +0.000 A 
ATOM      7  C   UNL     1       7.240  -5.321  25.981  0.00  0.00    +0.000 A 
ENDROOT
BRANCH   1   8
ATOM      8  N   UNL     1       9.485  -4.825  26.813  0.00  0.00    +0.000 N 
ATOM      9  H   UNL     1       9.586  -5.654  27.416  0.00  0.00    +0.000 HD
ATOM     10  H   UNL     1      10.088  -4.008  26.989  0.00  0.00    +0.000 HD
ENDBRANCH   1   8
BRANCH   5  11
ATOM     11  S   UNL     1       5.435  -4.796  22.372  0.00  0.00    +0.000 S 
ATOM     12  O   UNL     1       5.417  -3.507  21.536  0.00  0.00    +0.000 OA
ATOM     13  O   UNL     1       3.983  -4.881  22.868  0.00  0.00    +0.000 OA
BRANCH  11  14
ATOM     14  N   UNL     1       5.598  -6.096  21.191  0.00  0.00    +0.000 NA
ATOM     15  H   UNL     1       4.662  -6.547  21.089  0.00  0.00    +0.000 HD
ATOM     16  H   UNL     1       5.844  -5.660  20.274  0.00  0.00    +0.000 HD
ENDBRANCH  11  14
ENDBRANCH   5  11
TORSDOF 3
ENDMDL
MODEL 5
REMARK VINA RESULT:      -4.9      2.836      3.368
REMARK  Name = 
REMARK  3 active torsions:
REMARK  status: ('A' for Active; 'I' for Inactive)
REMARK    1  A    between atoms: N_1  and  C_2
REMARK    2  A    between atoms: C_5  and  S_9
REMARK    3  A    between atoms: S_9  and  N_10
REMARK                            x       y       z     vdW  Elec       q    Type
REMARK                         _______ _______ _______ _____ _____    ______ ____
ROOT
ATOM      1  C   UNL     1       9.445  -0.441  25.254  0.00  0.00    +0.000 A 
ATOM      2  C   UNL     1       9.828  -1.246  24.174  0.00  0.00    +0.000 A 
ATOM      3 HG   UNL     1      10.903  -0.434  22.608  0.00  0.00    +0.000 Hg
ATOM      4  C   UNL     1       9.491  -2.601  24.151  0.00  0.00    +0.000 A 
ATOM      5  C   UNL     1       8.767  -3.162  25.210  0.00  0.00    +0.000 A 
ATOM      6  C   UNL     1       8.378  -2.359  26.288  0.00  0.00    +0.000 A 
ATOM      7  C   UNL     1       8.715  -1.002  26.311  0.00  0.00    +0.000 A 
ENDROOT
BRANCH   1   8
ATOM      8  N   UNL     1       9.800   0.929  25.275  0.00  0.00    +0.000 N 
ATOM      9  H   UNL     1      10.287   1.331  26.089  0.00  0.00    +0.000 HD
ATOM     10  H   UNL     1       9.567   1.545  24.484  0.00  0.00    +0.000 HD
ENDBRANCH   1   8
BRANCH   5  11
ATOM     11  S   UNL     1       8.353  -4.905  25.214  0.00  0.00    +0.000 S 
ATOM     12  O   UNL     1       9.306  -5.766  24.370  0.00  0.00    +0.000 OA
ATOM     13  O   UNL     1       6.989  -5.210  24.578  0.00  0.00    +0.000 OA
BRANCH  11  14
ATOM     14  N   UNL     1       8.315  -5.691  26.793  0.00  0.00    +0.000 NA
ATOM     15  H   UNL     1       9.018  -5.213  27.398  0.00  0.00    +0.000 HD
ATOM     16  H   UNL     1       7.370  -5.523  27.205  0.00  0.00    +0.000 HD
ENDBRANCH  11  14
ENDBRANCH   5  11
TORSDOF 3
ENDMDL
MODEL 6
REMARK VINA RESULT:      -4.9      3.387      3.889
REMARK  Name = 
REMARK  3 active torsions:
REMARK  status: ('A' for Active; 'I' for Inactive)
REMARK    1  A    between atoms: N_1  and  C_2
REMARK    2  A    between atoms: C_5  and  S_9
REMARK    3  A    between atoms: S_9  and  N_10
REMARK                            x       y       z     vdW  Elec       q    Type
REMARK                         _______ _______ _______ _____ _____    ______ ____
ROOT
ATOM      1  C   UNL     1       9.509  -0.200  25.090  0.00  0.00    +0.000 A 
ATOM      2  C   UNL     1       8.874  -0.636  26.260  0.00  0.00    +0.000 A 
ATOM      3 HG   UNL     1       8.353   0.726  27.723  0.00  0.00    +0.000 Hg
ATOM      4  C   UNL     1       8.583  -1.990  26.442  0.00  0.00    +0.000 A 
ATOM      5  C   UNL     1       8.928  -2.920  25.453  0.00  0.00    +0.000 A 
ATOM      6  C   UNL     1       9.568  -2.488  24.286  0.00  0.00    +0.000 A 
ATOM      7  C   UNL     1       9.859  -1.133  24.104  0.00  0.00    +0.000 A 
ENDROOT
BRANCH   1   8
ATOM      8  N   UNL     1       9.790   1.175  24.908  0.00  0.00    +0.000 N 
ATOM      9  H   UNL     1      10.317   1.498  24.084  0.00  0.00    +0.000 HD
ATOM     10  H   UNL     1       9.481   1.871  25.602  0.00  0.00    +0.000 HD
ENDBRANCH   1   8
BRANCH   5  11
ATOM     11  S   UNL     1       8.535  -4.656  25.653  0.00  0.00    +0.000 S 
ATOM     12  O   UNL     1       7.296  -5.102  24.862  0.00  0.00    +0.000 OA
ATOM     13  O   UNL     1       8.156  -5.035  27.093  0.00  0.00    +0.000 OA
BRANCH  11  14
ATOM     14  N   UNL     1       9.799  -5.797  25.191  0.00  0.00    +0.000 NA
ATOM     15  H   UNL     1      10.393  -5.964  26.033  0.00  0.00    +0.000 HD
ATOM     16  H   UNL     1       9.333  -6.699  24.944  0.00  0.00    +0.000 HD
ENDBRANCH  11  14
ENDBRANCH   5  11
TORSDOF 3
ENDMDL
MODEL 7
REMARK VINA RESULT:      -4.9      2.422      2.709
REMARK  Name = 
REMARK  3 active torsions:
REMARK  status: ('A' for Active; 'I' for Inactive)
REMARK    1  A    between atoms: N_1  and  C_2
REMARK    2  A    between atoms: C_5  and  S_9
REMARK    3  A    between atoms: S_9  and  N_10
REMARK                            x       y       z     vdW  Elec       q    Type
REMARK                         _______ _______ _______ _____ _____    ______ ____
ROOT
ATOM      1  C   UNL     1       9.018  -0.894  22.437  0.00  0.00    +0.000 A 
ATOM      2  C   UNL     1       7.784  -1.299  22.960  0.00  0.00    +0.000 A 
ATOM      3 HG   UNL     1       6.051  -0.336  22.384  0.00  0.00    +0.000 Hg
ATOM      4  C   UNL     1       7.717  -2.359  23.867  0.00  0.00    +0.000 A 
ATOM      5  C   UNL     1       8.887  -3.022  24.259  0.00  0.00    +0.000 A 
ATOM      6  C   UNL     1      10.122  -2.615  23.742  0.00  0.00    +0.000 A 
ATOM      7  C   UNL     1      10.189  -1.554  22.834  0.00  0.00    +0.000 A 
ENDROOT
BRANCH   1   8
ATOM      8  N   UNL     1       9.077   0.173  21.509  0.00  0.00    +0.000 N 
ATOM      9  H   UNL     1       8.303   0.337  20.849  0.00  0.00    +0.000 HD
ATOM     10  H   UNL     1       9.899   0.794  21.473  0.00  0.00    +0.000 HD
ENDBRANCH   1   8
BRANCH   5  11
ATOM     11  S   UNL     1       8.818  -4.404  25.396  0.00  0.00    +0.000 S 
ATOM     12  O   UNL     1       7.553  -5.263  25.245  0.00  0.00    +0.000 OA
ATOM     13  O   UNL     1       8.747  -3.979  26.871  0.00  0.00    +0.000 OA
BRANCH  11  14
ATOM     14  N   UNL     1      10.155  -5.551  25.308  0.00  0.00    +0.000 NA
ATOM     15  H   UNL     1      10.757  -5.269  24.503  0.00  0.00    +0.000 HD
ATOM     16  H   UNL     1      10.718  -5.446  26.182  0.00  0.00    +0.000 HD
ENDBRANCH  11  14
ENDBRANCH   5  11
TORSDOF 3
ENDMDL
MODEL 8
REMARK VINA RESULT:      -4.8      4.036      5.094
REMARK  Name = 
REMARK  3 active torsions:
REMARK  status: ('A' for Active; 'I' for Inactive)
REMARK    1  A    between atoms: N_1  and  C_2
REMARK    2  A    between atoms: C_5  and  S_9
REMARK    3  A    between atoms: S_9  and  N_10
REMARK                            x       y       z     vdW  Elec       q    Type
REMARK                         _______ _______ _______ _____ _____    ______ ____
ROOT
ATOM      1  C   UNL     1      10.205  -0.487  22.972  0.00  0.00    +0.000 A 
ATOM      2  C   UNL     1       9.696   0.284  21.920  0.00  0.00    +0.000 A 
ATOM      3 HG   UNL     1       9.372  -0.576  20.070  0.00  0.00    +0.000 Hg
ATOM      4  C   UNL     1       9.399   1.634  22.115  0.00  0.00    +0.000 A 
ATOM      5  C   UNL     1       9.610   2.225  23.367  0.00  0.00    +0.000 A 
ATOM      6  C   UNL     1      10.125   1.458  24.419  0.00  0.00    +0.000 A 
ATOM      7  C   UNL     1      10.422   0.106  24.223  0.00  0.00    +0.000 A 
ENDROOT
BRANCH   1   8
ATOM      8  N   UNL     1      10.493  -1.858  22.769  0.00  0.00    +0.000 N 
ATOM      9  H   UNL     1      10.155  -2.346  21.927  0.00  0.00    +0.000 HD
ATOM     10  H   UNL     1      11.035  -2.391  23.466  0.00  0.00    +0.000 HD
ENDBRANCH   1   8
BRANCH   5  11
ATOM     11  S   UNL     1       9.205   3.947  23.647  0.00  0.00    +0.000 S 
ATOM     12  O   UNL     1       8.764   4.249  25.087  0.00  0.00    +0.000 OA
ATOM     13  O   UNL     1       8.000   4.432  22.828  0.00  0.00    +0.000 OA
BRANCH  11  14
ATOM     14  N   UNL     1      10.489   5.111  23.316  0.00  0.00    +0.000 NA
ATOM     15  H   UNL     1      10.991   5.288  24.214  0.00  0.00    +0.000 HD
ATOM     16  H   UNL     1      11.162   4.658  22.657  0.00  0.00    +0.000 HD
ENDBRANCH  11  14
ENDBRANCH   5  11
TORSDOF 3
ENDMDL
MODEL 9
REMARK VINA RESULT:      -4.7      2.178      2.533
REMARK  Name = 
REMARK  3 active torsions:
REMARK  status: ('A' for Active; 'I' for Inactive)
REMARK    1  A    between atoms: N_1  and  C_2
REMARK    2  A    between atoms: C_5  and  S_9
REMARK    3  A    between atoms: S_9  and  N_10
REMARK                            x       y       z     vdW  Elec       q    Type
REMARK                         _______ _______ _______ _____ _____    ______ ____
ROOT
ATOM      1  C   UNL     1       7.992   2.268  22.197  0.00  0.00    +0.000 A 
ATOM      2  C   UNL     1       9.188   1.598  21.912  0.00  0.00    +0.000 A 
ATOM      3 HG   UNL     1      10.754   2.610  21.022  0.00  0.00    +0.000 Hg
ATOM      4  C   UNL     1       9.333   0.246  22.233  0.00  0.00    +0.000 A 
ATOM      5  C   UNL     1       8.279  -0.446  22.842  0.00  0.00    +0.000 A 
ATOM      6  C   UNL     1       7.080   0.219  23.121  0.00  0.00    +0.000 A 
ATOM      7  C   UNL     1       6.935   1.572  22.800  0.00  0.00    +0.000 A 
ENDROOT
BRANCH   1   8
ATOM      8  N   UNL     1       7.857   3.641  21.879  0.00  0.00    +0.000 N 
ATOM      9  H   UNL     1       7.133   3.957  21.218  0.00  0.00    +0.000 HD
ATOM     10  H   UNL     1       8.488   4.342  22.295  0.00  0.00    +0.000 HD
ENDBRANCH   1   8
BRANCH   5  11
ATOM     11  S   UNL     1       8.456  -2.172  23.289  0.00  0.00    +0.000 S 
ATOM     12  O   UNL     1       7.915  -3.141  22.228  0.00  0.00    +0.000 OA
ATOM     13  O   UNL     1       7.646  -2.566  24.533  0.00  0.00    +0.000 OA
BRANCH  11  14
ATOM     14  N   UNL     1      10.100  -2.727  23.610  0.00  0.00    +0.000 NA
ATOM     15  H   UNL     1      10.729  -2.258  22.922  0.00  0.00    +0.000 HD
ATOM     16  H   UNL     1      10.363  -2.394  24.564  0.00  0.00    +0.000 HD
ENDBRANCH  11  14
ENDBRANCH   5  11
TORSDOF 3
ENDMDL
