MODEL 1
REMARK VINA RESULT:      -7.1      0.000      0.000
REMARK  Name = 
REMARK  4 active torsions:
REMARK  status: ('A' for Active; 'I' for Inactive)
REMARK    1  A    between atoms: C_2  and  C_3
REMARK    2  A    between atoms: C_2  and  O_4
REMARK    3  A    between atoms: C_2  and  C_17
REMARK    4  A    between atoms: O_4  and  C_5
REMARK                            x       y       z     vdW  Elec       q    Type
REMARK                         _______ _______ _______ _____ _____    ______ ____
ROOT
ATOM      1  C   UNL     1       9.573   0.585  23.700  0.00  0.00    +0.134 A 
ATOM      2  C   UNL     1       9.719   0.710  22.313  0.00  0.00    +0.046 A 
ATOM      3  C   UNL     1       9.700  -0.418  21.508  0.00  0.00    +0.006 A 
ATOM      4  C   UNL     1       9.485  -1.664  22.084  0.00  0.00    +0.029 A 
ATOM      5  C   UNL     1       9.240  -1.816  23.440  0.00  0.00    +0.081 A 
ATOM      6  N   UNL     1       8.978  -3.052  23.863  0.00  0.00    -0.214 NA
ATOM      7  C   UNL     1       8.718  -3.220  25.155  0.00  0.00    +0.215 A 
ATOM      8  N   UNL     1       8.419  -4.503  25.569  0.00  0.00    -0.327 N 
ATOM      9  H   UNL     1       8.105  -5.048  24.777  0.00  0.00    +0.145 HD
ATOM     10  H   UNL     1       7.819  -4.475  26.380  0.00  0.00    +0.145 HD
ATOM     11  N   UNL     1       8.664  -2.240  26.051  0.00  0.00    -0.199 NA
ATOM     12  C   UNL     1       8.944  -1.000  25.614  0.00  0.00    +0.133 A 
ATOM     13  N   UNL     1       8.926  -0.030  26.620  0.00  0.00    -0.342 N 
ATOM     14  H   UNL     1       8.551  -0.450  27.465  0.00  0.00    +0.144 HD
ATOM     15  H   UNL     1       8.447   0.813  26.327  0.00  0.00    +0.144 HD
ATOM     16  C   UNL     1       9.264  -0.692  24.275  0.00  0.00    +0.082 A 
ENDROOT
BRANCH   1  17
ATOM     17  O   UNL     1       9.660   1.689  24.524  0.00  0.00    -0.484 OA
BRANCH  17  18
ATOM     18  C   UNL     1       8.907   2.846  24.106  0.00  0.00    +0.201 C 
ATOM     19  C   UNL     1       7.701   3.012  25.034  0.00  0.00    +0.057 C 
BRANCH  18  20
ATOM     20  C   UNL     1       9.798   4.075  24.109  0.00  0.00    -0.006 A 
ATOM     21  C   UNL     1       9.358   5.247  24.751  0.00  0.00    +0.007 A 
ATOM     22  C   UNL     1      10.169   6.380  24.809  0.00  0.00    +0.002 A 
ATOM     23  C   UNL     1      11.434   6.358  24.223  0.00  0.00    +0.020 A 
ATOM     24  C   UNL     1      11.875   5.206  23.575  0.00  0.00    +0.041 A 
ATOM     25 CL   UNL     1      13.441   5.176  22.863  0.00  0.00    -0.084 Cl
ATOM     26  C   UNL     1      11.064   4.072  23.508  0.00  0.00    +0.027 A 
ENDBRANCH  18  20
ENDBRANCH  17  18
ENDBRANCH   1  17
TORSDOF 3
ENDMDL
MODEL 2
REMARK VINA RESULT:      -7.0      3.869      6.016
REMARK  Name = 
REMARK  4 active torsions:
REMARK  status: ('A' for Active; 'I' for Inactive)
REMARK    1  A    between atoms: C_2  and  C_3
REMARK    2  A    between atoms: C_2  and  O_4
REMARK    3  A    between atoms: C_2  and  C_17
REMARK    4  A    between atoms: O_4  and  C_5
REMARK                            x       y       z     vdW  Elec       q    Type
REMARK                         _______ _______ _______ _____ _____    ______ ____
ROOT
ATOM      1  C   UNL     1       6.238  -4.411  24.290  0.00  0.00    +0.134 A 
ATOM      2  C   UNL     1       5.285  -4.845  23.360  0.00  0.00    +0.046 A 
ATOM      3  C   UNL     1       4.491  -5.946  23.641  0.00  0.00    +0.006 A 
ATOM      4  C   UNL     1       4.616  -6.582  24.870  0.00  0.00    +0.029 A 
ATOM      5  C   UNL     1       5.479  -6.122  25.852  0.00  0.00    +0.081 A 
ATOM      6  N   UNL     1       5.459  -6.772  27.015  0.00  0.00    -0.214 NA
ATOM      7  C   UNL     1       6.262  -6.336  27.980  0.00  0.00    +0.215 A 
ATOM      8  N   UNL     1       6.204  -7.003  29.187  0.00  0.00    -0.327 N 
ATOM      9  H   UNL     1       5.321  -7.491  29.261  0.00  0.00    +0.145 HD
ATOM     10  H   UNL     1       6.454  -6.380  29.941  0.00  0.00    +0.145 HD
ATOM     11  N   UNL     1       7.058  -5.277  27.884  0.00  0.00    -0.199 NA
ATOM     12  C   UNL     1       7.080  -4.638  26.700  0.00  0.00    +0.133 A 
ATOM     13  N   UNL     1       7.982  -3.572  26.652  0.00  0.00    -0.342 N 
ATOM     14  H   UNL     1       8.333  -3.405  27.590  0.00  0.00    +0.144 HD
ATOM     15  H   UNL     1       7.580  -2.754  26.207  0.00  0.00    +0.144 HD
ATOM     16  C   UNL     1       6.299  -5.017  25.588  0.00  0.00    +0.082 A 
ENDROOT
BRANCH   1  17
ATOM     17  O   UNL     1       7.085  -3.362  23.998  0.00  0.00    -0.484 OA
BRANCH  17  18
ATOM     18  C   UNL     1       6.453  -2.158  23.517  0.00  0.00    +0.201 C 
ATOM     19  C   UNL     1       5.740  -1.474  24.686  0.00  0.00    +0.057 C 
BRANCH  18  20
ATOM     20  C   UNL     1       7.484  -1.250  22.874  0.00  0.00    -0.006 A 
ATOM     21  C   UNL     1       8.667  -1.806  22.351  0.00  0.00    +0.007 A 
ATOM     22  C   UNL     1       9.615  -1.006  21.716  0.00  0.00    +0.002 A 
ATOM     23  C   UNL     1       9.396   0.366  21.594  0.00  0.00    +0.020 A 
ATOM     24  C   UNL     1       8.234   0.928  22.118  0.00  0.00    +0.041 A 
ATOM     25 CL   UNL     1       7.959   2.620  21.956  0.00  0.00    -0.084 Cl
ATOM     26  C   UNL     1       7.285   0.132  22.761  0.00  0.00    +0.027 A 
ENDBRANCH  18  20
ENDBRANCH  17  18
ENDBRANCH   1  17
TORSDOF 3
ENDMDL
MODEL 3
REMARK VINA RESULT:      -7.0      4.665      7.664
REMARK  Name = 
REMARK  4 active torsions:
REMARK  status: ('A' for Active; 'I' for Inactive)
REMARK    1  A    between atoms: C_2  and  C_3
REMARK    2  A    between atoms: C_2  and  O_4
REMARK    3  A    between atoms: C_2  and  C_17
REMARK    4  A    between atoms: O_4  and  C_5
REMARK                            x       y       z     vdW  Elec       q    Type
REMARK                         _______ _______ _______ _____ _____    ______ ____
ROOT
ATOM      1  C   UNL     1       9.006  -1.960  24.075  0.00  0.00    +0.134 A 
ATOM      2  C   UNL     1      10.174  -2.052  23.308  0.00  0.00    +0.046 A 
ATOM      3  C   UNL     1      10.368  -1.198  22.233  0.00  0.00    +0.006 A 
ATOM      4  C   UNL     1       9.419  -0.221  21.958  0.00  0.00    +0.029 A 
ATOM      5  C   UNL     1       8.299  -0.038  22.753  0.00  0.00    +0.081 A 
ATOM      6  N   UNL     1       7.498   0.976  22.430  0.00  0.00    -0.214 NA
ATOM      7  C   UNL     1       6.429   1.186  23.191  0.00  0.00    +0.215 A 
ATOM      8  N   UNL     1       5.628   2.260  22.859  0.00  0.00    -0.327 N 
ATOM      9  H   UNL     1       6.161   2.921  22.308  0.00  0.00    +0.145 HD
ATOM     10  H   UNL     1       5.161   2.613  23.681  0.00  0.00    +0.145 HD
ATOM     11  N   UNL     1       6.119   0.481  24.274  0.00  0.00    -0.199 NA
ATOM     12  C   UNL     1       6.928  -0.549  24.581  0.00  0.00    +0.133 A 
ATOM     13  N   UNL     1       6.509  -1.281  25.695  0.00  0.00    -0.342 N 
ATOM     14  H   UNL     1       5.744  -0.782  26.140  0.00  0.00    +0.144 HD
ATOM     15  H   UNL     1       7.278  -1.501  26.317  0.00  0.00    +0.144 HD
ATOM     16  C   UNL     1       8.076  -0.895  23.839  0.00  0.00    +0.082 A 
ENDROOT
BRANCH   1  17
ATOM     17  O   UNL     1       8.763  -2.848  25.103  0.00  0.00    -0.484 OA
BRANCH  17  18
ATOM     18  C   UNL     1       8.987  -4.240  24.797  0.00  0.00    +0.201 C 
ATOM     19  C   UNL     1       9.473  -4.952  26.061  0.00  0.00    +0.057 C 
BRANCH  18  20
ATOM     20  C   UNL     1       7.715  -4.863  24.251  0.00  0.00    -0.006 A 
ATOM     21  C   UNL     1       6.669  -5.190  25.134  0.00  0.00    +0.007 A 
ATOM     22  C   UNL     1       5.471  -5.724  24.659  0.00  0.00    +0.002 A 
ATOM     23  C   UNL     1       5.302  -5.941  23.293  0.00  0.00    +0.020 A 
ATOM     24  C   UNL     1       6.336  -5.631  22.411  0.00  0.00    +0.041 A 
ATOM     25 CL   UNL     1       6.120  -5.888  20.723  0.00  0.00    -0.084 Cl
ATOM     26  C   UNL     1       7.539  -5.103  22.882  0.00  0.00    +0.027 A 
ENDBRANCH  18  20
ENDBRANCH  17  18
ENDBRANCH   1  17
TORSDOF 3
ENDMDL
MODEL 4
REMARK VINA RESULT:      -7.0      3.165      3.910
REMARK  Name = 
REMARK  4 active torsions:
REMARK  status: ('A' for Active; 'I' for Inactive)
REMARK    1  A    between atoms: C_2  and  C_3
REMARK    2  A    between atoms: C_2  and  O_4
REMARK    3  A    between atoms: C_2  and  C_17
REMARK    4  A    between atoms: O_4  and  C_5
REMARK                            x       y       z     vdW  Elec       q    Type
REMARK                         _______ _______ _______ _____ _____    ______ ____
ROOT
ATOM      1  C   UNL     1       6.491  -2.041  23.922  0.00  0.00    +0.134 A 
ATOM      2  C   UNL     1       5.868  -2.303  22.695  0.00  0.00    +0.046 A 
ATOM      3  C   UNL     1       6.261  -3.393  21.935  0.00  0.00    +0.006 A 
ATOM      4  C   UNL     1       7.241  -4.249  22.424  0.00  0.00    +0.029 A 
ATOM      5  C   UNL     1       7.811  -4.076  23.676  0.00  0.00    +0.081 A 
ATOM      6  N   UNL     1       8.687  -5.001  24.065  0.00  0.00    -0.214 NA
ATOM      7  C   UNL     1       9.230  -4.870  25.270  0.00  0.00    +0.215 A 
ATOM      8  N   UNL     1      10.113  -5.854  25.667  0.00  0.00    -0.327 N 
ATOM      9  H   UNL     1       9.945  -6.694  25.129  0.00  0.00    +0.145 HD
ATOM     10  H   UNL     1      10.109  -5.939  26.673  0.00  0.00    +0.145 HD
ATOM     11  N   UNL     1       8.936  -3.903  26.133  0.00  0.00    -0.199 NA
ATOM     12  C   UNL     1       8.061  -2.968  25.724  0.00  0.00    +0.133 A 
ATOM     13  N   UNL     1       7.844  -1.951  26.658  0.00  0.00    -0.342 N 
ATOM     14  H   UNL     1       8.291  -2.216  27.530  0.00  0.00    +0.144 HD
ATOM     15  H   UNL     1       6.862  -1.720  26.747  0.00  0.00    +0.144 HD
ATOM     16  C   UNL     1       7.436  -2.976  24.459  0.00  0.00    +0.082 A 
ENDROOT
BRANCH   1  17
ATOM     17  O   UNL     1       6.162  -0.921  24.658  0.00  0.00    -0.484 OA
BRANCH  17  18
ATOM     18  C   UNL     1       6.148   0.326  23.932  0.00  0.00    +0.201 C 
ATOM     19  C   UNL     1       5.660   1.436  24.865  0.00  0.00    +0.057 C 
BRANCH  18  20
ATOM     20  C   UNL     1       7.529   0.620  23.376  0.00  0.00    -0.006 A 
ATOM     21  C   UNL     1       7.666   1.012  22.032  0.00  0.00    +0.007 A 
ATOM     22  C   UNL     1       8.916   1.330  21.501  0.00  0.00    +0.002 A 
ATOM     23  C   UNL     1      10.050   1.259  22.309  0.00  0.00    +0.020 A 
ATOM     24  C   UNL     1       9.928   0.861  23.638  0.00  0.00    +0.041 A 
ATOM     25 CL   UNL     1      11.327   0.786  24.637  0.00  0.00    -0.084 Cl
ATOM     26  C   UNL     1       8.680   0.534  24.172  0.00  0.00    +0.027 A 
ENDBRANCH  18  20
ENDBRANCH  17  18
ENDBRANCH   1  17
TORSDOF 3
ENDMDL
MODEL 5
REMARK VINA RESULT:      -6.9      4.843      7.943
REMARK  Name = 
REMARK  4 active torsions:
REMARK  status: ('A' for Active; 'I' for Inactive)
REMARK    1  A    between atoms: C_2  and  C_3
REMARK    2  A    between atoms: C_2  and  O_4
REMARK    3  A    between atoms: C_2  and  C_17
REMARK    4  A    between atoms: O_4  and  C_5
REMARK                            x       y       z     vdW  Elec       q    Type
REMARK                         _______ _______ _______ _____ _____    ______ ____
ROOT
ATOM      1  C   UNL     1       8.310  -1.088  23.411  0.00  0.00    +0.134 A 
ATOM      2  C   UNL     1       9.566  -1.439  22.902  0.00  0.00    +0.046 A 
ATOM      3  C   UNL     1      10.186  -0.630  21.964  0.00  0.00    +0.006 A 
ATOM      4  C   UNL     1       9.573   0.555  21.573  0.00  0.00    +0.029 A 
ATOM      5  C   UNL     1       8.377   0.982  22.127  0.00  0.00    +0.081 A 
ATOM      6  N   UNL     1       7.923   2.169  21.724  0.00  0.00    -0.214 NA
ATOM      7  C   UNL     1       6.790   2.610  22.257  0.00  0.00    +0.215 A 
ATOM      8  N   UNL     1       6.352   3.855  21.849  0.00  0.00    -0.327 N 
ATOM      9  H   UNL     1       7.132   4.381  21.477  0.00  0.00    +0.145 HD
ATOM     10  H   UNL     1       5.807   4.288  22.580  0.00  0.00    +0.145 HD
ATOM     11  N   UNL     1       6.092   1.973  23.191  0.00  0.00    -0.199 NA
ATOM     12  C   UNL     1       6.552   0.770  23.579  0.00  0.00    +0.133 A 
ATOM     13  N   UNL     1       5.738   0.132  24.518  0.00  0.00    -0.342 N 
ATOM     14  H   UNL     1       5.030   0.789  24.830  0.00  0.00    +0.144 HD
ATOM     15  H   UNL     1       6.278  -0.284  25.268  0.00  0.00    +0.144 HD
ATOM     16  C   UNL     1       7.726   0.176  23.070  0.00  0.00    +0.082 A 
ENDROOT
BRANCH   1  17
ATOM     17  O   UNL     1       7.645  -1.918  24.292  0.00  0.00    -0.484 OA
BRANCH  17  18
ATOM     18  C   UNL     1       8.163  -3.260  24.402  0.00  0.00    +0.201 C 
ATOM     19  C   UNL     1       8.314  -3.612  25.884  0.00  0.00    +0.057 C 
BRANCH  18  20
ATOM     20  C   UNL     1       7.246  -4.231  23.680  0.00  0.00    -0.006 A 
ATOM     21  C   UNL     1       7.314  -4.336  22.279  0.00  0.00    +0.007 A 
ATOM     22  C   UNL     1       6.516  -5.249  21.589  0.00  0.00    +0.002 A 
ATOM     23  C   UNL     1       5.635  -6.070  22.292  0.00  0.00    +0.020 A 
ATOM     24  C   UNL     1       5.552  -5.966  23.679  0.00  0.00    +0.041 A 
ATOM     25 CL   UNL     1       4.474  -6.990  24.545  0.00  0.00    -0.084 Cl
ATOM     26  C   UNL     1       6.344  -5.050  24.373  0.00  0.00    +0.027 A 
ENDBRANCH  18  20
ENDBRANCH  17  18
ENDBRANCH   1  17
TORSDOF 3
ENDMDL
MODEL 6
REMARK VINA RESULT:      -6.8      3.076      4.896
REMARK  Name = 
REMARK  4 active torsions:
REMARK  status: ('A' for Active; 'I' for Inactive)
REMARK    1  A    between atoms: C_2  and  C_3
REMARK    2  A    between atoms: C_2  and  O_4
REMARK    3  A    between atoms: C_2  and  C_17
REMARK    4  A    between atoms: O_4  and  C_5
REMARK                            x       y       z     vdW  Elec       q    Type
REMARK                         _______ _______ _______ _____ _____    ______ ____
ROOT
ATOM      1  C   UNL     1       7.681  -2.801  24.467  0.00  0.00    +0.134 A 
ATOM      2  C   UNL     1       8.579  -3.202  25.463  0.00  0.00    +0.046 A 
ATOM      3  C   UNL     1       8.398  -4.413  26.113  0.00  0.00    +0.006 A 
ATOM      4  C   UNL     1       7.351  -5.243  25.733  0.00  0.00    +0.029 A 
ATOM      5  C   UNL     1       6.500  -4.922  24.686  0.00  0.00    +0.081 A 
ATOM      6  N   UNL     1       5.578  -5.829  24.368  0.00  0.00    -0.214 NA
ATOM      7  C   UNL     1       4.765  -5.555  23.354  0.00  0.00    +0.215 A 
ATOM      8  N   UNL     1       3.836  -6.520  23.020  0.00  0.00    -0.327 N 
ATOM      9  H   UNL     1       4.144  -7.418  23.369  0.00  0.00    +0.145 HD
ATOM     10  H   UNL     1       3.606  -6.457  22.040  0.00  0.00    +0.145 HD
ATOM     11  N   UNL     1       4.827  -4.457  22.608  0.00  0.00    -0.199 NA
ATOM     12  C   UNL     1       5.754  -3.542  22.948  0.00  0.00    +0.133 A 
ATOM     13  N   UNL     1       5.723  -2.390  22.159  0.00  0.00    -0.342 N 
ATOM     14  H   UNL     1       5.091  -2.549  21.381  0.00  0.00    +0.144 HD
ATOM     15  H   UNL     1       6.652  -2.092  21.885  0.00  0.00    +0.144 HD
ATOM     16  C   UNL     1       6.656  -3.699  24.020  0.00  0.00    +0.082 A 
ENDROOT
BRANCH   1  17
ATOM     17  O   UNL     1       7.803  -1.568  23.859  0.00  0.00    -0.484 OA
BRANCH  17  18
ATOM     18  C   UNL     1       9.146  -1.163  23.523  0.00  0.00    +0.201 C 
ATOM     19  C   UNL     1       9.447  -1.593  22.085  0.00  0.00    +0.057 C 
BRANCH  18  20
ATOM     20  C   UNL     1       9.300   0.335  23.710  0.00  0.00    -0.006 A 
ATOM     21  C   UNL     1      10.203   1.045  22.897  0.00  0.00    +0.007 A 
ATOM     22  C   UNL     1      10.337   2.429  23.014  0.00  0.00    +0.002 A 
ATOM     23  C   UNL     1       9.569   3.123  23.948  0.00  0.00    +0.020 A 
ATOM     24  C   UNL     1       8.680   2.428  24.765  0.00  0.00    +0.041 A 
ATOM     25 CL   UNL     1       7.725   3.289  25.909  0.00  0.00    -0.084 Cl
ATOM     26  C   UNL     1       8.548   1.043  24.657  0.00  0.00    +0.027 A 
ENDBRANCH  18  20
ENDBRANCH  17  18
ENDBRANCH   1  17
TORSDOF 3
ENDMDL
MODEL 7
REMARK VINA RESULT:      -6.8      2.380      3.573
REMARK  Name = 
REMARK  4 active torsions:
REMARK  status: ('A' for Active; 'I' for Inactive)
REMARK    1  A    between atoms: C_2  and  C_3
REMARK    2  A    between atoms: C_2  and  O_4
REMARK    3  A    between atoms: C_2  and  C_17
REMARK    4  A    between atoms: O_4  and  C_5
REMARK                            x       y       z     vdW  Elec       q    Type
REMARK                         _______ _______ _______ _____ _____    ______ ____
ROOT
ATOM      1  C   UNL     1       8.001  -0.744  24.899  0.00  0.00    +0.134 A 
ATOM      2  C   UNL     1       7.055  -0.309  25.834  0.00  0.00    +0.046 A 
ATOM      3  C   UNL     1       6.515  -1.204  26.745  0.00  0.00    +0.006 A 
ATOM      4  C   UNL     1       6.958  -2.521  26.752  0.00  0.00    +0.029 A 
ATOM      5  C   UNL     1       7.962  -2.964  25.906  0.00  0.00    +0.081 A 
ATOM      6  N   UNL     1       8.351  -4.230  26.054  0.00  0.00    -0.214 NA
ATOM      7  C   UNL     1       9.328  -4.672  25.269  0.00  0.00    +0.215 A 
ATOM      8  N   UNL     1       9.738  -5.976  25.459  0.00  0.00    -0.327 N 
ATOM      9  H   UNL     1       9.476  -6.280  26.388  0.00  0.00    +0.145 HD
ATOM     10  H   UNL     1      10.706  -6.078  25.194  0.00  0.00    +0.145 HD
ATOM     11  N   UNL     1       9.972  -3.934  24.371  0.00  0.00    -0.199 NA
ATOM     12  C   UNL     1       9.560  -2.662  24.221  0.00  0.00    +0.133 A 
ATOM     13  N   UNL     1      10.241  -1.964  23.220  0.00  0.00    -0.342 N 
ATOM     14  H   UNL     1      11.023  -2.531  22.908  0.00  0.00    +0.144 HD
ATOM     15  H   UNL     1      10.496  -1.029  23.514  0.00  0.00    +0.144 HD
ATOM     16  C   UNL     1       8.516  -2.081  24.970  0.00  0.00    +0.082 A 
ENDROOT
BRANCH   1  17
ATOM     17  O   UNL     1       8.495   0.115  23.939  0.00  0.00    -0.484 OA
BRANCH  17  18
ATOM     18  C   UNL     1       9.022   1.366  24.428  0.00  0.00    +0.201 C 
ATOM     19  C   UNL     1      10.548   1.340  24.309  0.00  0.00    +0.057 C 
BRANCH  18  20
ATOM     20  C   UNL     1       8.415   2.523  23.656  0.00  0.00    -0.006 A 
ATOM     21  C   UNL     1       7.309   2.291  22.817  0.00  0.00    +0.007 A 
ATOM     22  C   UNL     1       6.701   3.339  22.126  0.00  0.00    +0.002 A 
ATOM     23  C   UNL     1       7.191   4.637  22.265  0.00  0.00    +0.020 A 
ATOM     24  C   UNL     1       8.291   4.876  23.085  0.00  0.00    +0.041 A 
ATOM     25 CL   UNL     1       8.886   6.481  23.264  0.00  0.00    -0.084 Cl
ATOM     26  C   UNL     1       8.908   3.830  23.772  0.00  0.00    +0.027 A 
ENDBRANCH  18  20
ENDBRANCH  17  18
ENDBRANCH   1  17
TORSDOF 3
ENDMDL
MODEL 8
REMARK VINA RESULT:      -6.8      4.152      5.994
REMARK  Name = 
REMARK  4 active torsions:
REMARK  status: ('A' for Active; 'I' for Inactive)
REMARK    1  A    between atoms: C_2  and  C_3
REMARK    2  A    between atoms: C_2  and  O_4
REMARK    3  A    between atoms: C_2  and  C_17
REMARK    4  A    between atoms: O_4  and  C_5
REMARK                            x       y       z     vdW  Elec       q    Type
REMARK                         _______ _______ _______ _____ _____    ______ ____
ROOT
ATOM      1  C   UNL     1       7.215  -4.440  23.847  0.00  0.00    +0.134 A 
ATOM      2  C   UNL     1       7.173  -4.165  22.475  0.00  0.00    +0.046 A 
ATOM      3  C   UNL     1       6.286  -4.848  21.657  0.00  0.00    +0.006 A 
ATOM      4  C   UNL     1       5.408  -5.766  22.219  0.00  0.00    +0.029 A 
ATOM      5  C   UNL     1       5.355  -5.993  23.586  0.00  0.00    +0.081 A 
ATOM      6  N   UNL     1       4.424  -6.844  24.013  0.00  0.00    -0.214 NA
ATOM      7  C   UNL     1       4.338  -7.061  25.321  0.00  0.00    +0.215 A 
ATOM      8  N   UNL     1       3.347  -7.923  25.747  0.00  0.00    -0.327 N 
ATOM      9  H   UNL     1       2.626  -7.983  25.040  0.00  0.00    +0.145 HD
ATOM     10  H   UNL     1       3.059  -7.685  26.684  0.00  0.00    +0.145 HD
ATOM     11  N   UNL     1       5.089  -6.463  26.239  0.00  0.00    -0.199 NA
ATOM     12  C   UNL     1       6.035  -5.616  25.794  0.00  0.00    +0.133 A 
ATOM     13  N   UNL     1       6.825  -5.070  26.809  0.00  0.00    -0.342 N 
ATOM     14  H   UNL     1       6.415  -5.318  27.705  0.00  0.00    +0.144 HD
ATOM     15  H   UNL     1       6.975  -4.077  26.681  0.00  0.00    +0.144 HD
ATOM     16  C   UNL     1       6.249  -5.323  24.431  0.00  0.00    +0.082 A 
ENDROOT
BRANCH   1  17
ATOM     17  O   UNL     1       8.141  -3.823  24.664  0.00  0.00    -0.484 OA
BRANCH  17  18
ATOM     18  C   UNL     1       7.927  -2.417  24.906  0.00  0.00    +0.201 C 
ATOM     19  C   UNL     1       8.435  -2.073  26.308  0.00  0.00    +0.057 C 
BRANCH  18  20
ATOM     20  C   UNL     1       8.619  -1.593  23.836  0.00  0.00    -0.006 A 
ATOM     21  C   UNL     1       9.876  -2.003  23.352  0.00  0.00    +0.007 A 
ATOM     22  C   UNL     1      10.519  -1.293  22.339  0.00  0.00    +0.002 A 
ATOM     23  C   UNL     1       9.916  -0.160  21.795  0.00  0.00    +0.020 A 
ATOM     24  C   UNL     1       8.677   0.260  22.274  0.00  0.00    +0.041 A 
ATOM     25 CL   UNL     1       7.928   1.651  21.592  0.00  0.00    -0.084 Cl
ATOM     26  C   UNL     1       8.032  -0.443  23.292  0.00  0.00    +0.027 A 
ENDBRANCH  18  20
ENDBRANCH  17  18
ENDBRANCH   1  17
TORSDOF 3
ENDMDL
MODEL 9
REMARK VINA RESULT:      -6.5      2.172      3.001
REMARK  Name = 
REMARK  4 active torsions:
REMARK  status: ('A' for Active; 'I' for Inactive)
REMARK    1  A    between atoms: C_2  and  C_3
REMARK    2  A    between atoms: C_2  and  O_4
REMARK    3  A    between atoms: C_2  and  C_17
REMARK    4  A    between atoms: O_4  and  C_5
REMARK                            x       y       z     vdW  Elec       q    Type
REMARK                         _______ _______ _______ _____ _____    ______ ____
ROOT
ATOM      1  C   UNL     1       7.797   0.402  23.814  0.00  0.00    +0.134 A 
ATOM      2  C   UNL     1       7.005   0.867  24.870  0.00  0.00    +0.046 A 
ATOM      3  C   UNL     1       5.919   0.123  25.304  0.00  0.00    +0.006 A 
ATOM      4  C   UNL     1       5.656  -1.108  24.715  0.00  0.00    +0.029 A 
ATOM      5  C   UNL     1       6.475  -1.644  23.733  0.00  0.00    +0.081 A 
ATOM      6  N   UNL     1       6.161  -2.863  23.295  0.00  0.00    -0.214 NA
ATOM      7  C   UNL     1       6.944  -3.407  22.370  0.00  0.00    +0.215 A 
ATOM      8  N   UNL     1       6.620  -4.682  21.951  0.00  0.00    -0.327 N 
ATOM      9  H   UNL     1       6.052  -5.134  22.655  0.00  0.00    +0.145 HD
ATOM     10  H   UNL     1       7.449  -5.168  21.642  0.00  0.00    +0.145 HD
ATOM     11  N   UNL     1       8.039  -2.841  21.875  0.00  0.00    -0.199 NA
ATOM     12  C   UNL     1       8.337  -1.605  22.315  0.00  0.00    +0.133 A 
ATOM     13  N   UNL     1       9.467  -1.049  21.709  0.00  0.00    -0.342 N 
ATOM     14  H   UNL     1       9.924  -1.769  21.157  0.00  0.00    +0.144 HD
ATOM     15  H   UNL     1      10.073  -0.593  22.381  0.00  0.00    +0.144 HD
ATOM     16  C   UNL     1       7.573  -0.906  23.271  0.00  0.00    +0.082 A 
ENDROOT
BRANCH   1  17
ATOM     17  O   UNL     1       8.838   1.163  23.322  0.00  0.00    -0.484 OA
BRANCH  17  18
ATOM     18  C   UNL     1       9.760   1.676  24.305  0.00  0.00    +0.201 C 
ATOM     19  C   UNL     1      11.023   0.811  24.298  0.00  0.00    +0.057 C 
BRANCH  18  20
ATOM     20  C   UNL     1      10.071   3.133  24.015  0.00  0.00    -0.006 A 
ATOM     21  C   UNL     1       9.103   4.116  24.291  0.00  0.00    +0.007 A 
ATOM     22  C   UNL     1       9.372   5.468  24.076  0.00  0.00    +0.002 A 
ATOM     23  C   UNL     1      10.615   5.856  23.579  0.00  0.00    +0.020 A 
ATOM     24  C   UNL     1      11.578   4.890  23.292  0.00  0.00    +0.041 A 
ATOM     25 CL   UNL     1      13.116   5.374  22.692  0.00  0.00    -0.084 Cl
ATOM     26  C   UNL     1      11.310   3.536  23.499  0.00  0.00    +0.027 A 
ENDBRANCH  18  20
ENDBRANCH  17  18
ENDBRANCH   1  17
TORSDOF 3
ENDMDL
