MODEL 1
REMARK VINA RESULT:      -4.7      0.000      0.000
REMARK  Name = 
REMARK  6 active torsions:
REMARK  status: ('A' for Active; 'I' for Inactive)
REMARK    1  A    between atoms: O_1  and  C_2
REMARK    2  A    between atoms: C_2  and  C_3
REMARK    3  A    between atoms: C_5  and  O_7
REMARK    4  A    between atoms: C_8  and  O_10
REMARK    5  A    between atoms: C_11  and  O_13
REMARK    6  A    between atoms: C_14  and  O_16
REMARK                            x       y       z     vdW  Elec       q    Type
REMARK                         _______ _______ _______ _____ _____    ______ ____
ROOT
ATOM      1  C   UNL     1       9.705  -0.823  23.430  0.00  0.00    -0.015 C 
ATOM      2  C   UNL     1       8.865  -0.546  22.213  0.00  0.00    +0.174 C 
ATOM      3  C   UNL     1       8.436   0.926  21.986  0.00  0.00    +0.178 C 
ATOM      4  C   UNL     1       9.371   1.995  22.594  0.00  0.00    +0.178 C 
ATOM      5  C   UNL     1      10.038   1.615  23.936  0.00  0.00    +0.169 C 
ATOM      6  C   UNL     1      10.236   0.157  24.178  0.00  0.00    +0.011 C 
ENDROOT
BRANCH   2   7
ATOM      7  O   UNL     1       9.633  -0.988  21.088  0.00  0.00    -0.385 OA
ATOM      8  H   UNL     1       9.056  -0.861  20.313  0.00  0.00    +0.210 HD
ENDBRANCH   2   7
BRANCH   3   9
ATOM      9  O   UNL     1       7.086   1.114  22.428  0.00  0.00    -0.386 OA
ATOM     10  H   UNL     1       6.840   0.322  22.943  0.00  0.00    +0.210 HD
ENDBRANCH   3   9
BRANCH   4  11
ATOM     11  O   UNL     1      10.388   2.353  21.643  0.00  0.00    -0.386 OA
ATOM     12  H   UNL     1      11.213   1.910  21.916  0.00  0.00    +0.210 HD
ENDBRANCH   4  11
BRANCH   5  13
ATOM     13  O   UNL     1       9.244   2.082  25.026  0.00  0.00    -0.385 OA
ATOM     14  H   UNL     1       9.610   1.675  25.833  0.00  0.00    +0.210 HD
ENDBRANCH   5  13
BRANCH   1  15
ATOM     15  C   UNL     1       9.910  -2.270  23.783  0.00  0.00    +0.189 C 
BRANCH  15  16
ATOM     16  O   UNL     1       8.803  -3.013  23.292  0.00  0.00    -0.391 OA
ATOM     17  H   UNL     1       8.061  -2.837  23.895  0.00  0.00    +0.210 HD
ENDBRANCH  15  16
ENDBRANCH   1  15
TORSDOF 6
ENDMDL
MODEL 2
REMARK VINA RESULT:      -4.7      1.618      3.660
REMARK  Name = 
REMARK  6 active torsions:
REMARK  status: ('A' for Active; 'I' for Inactive)
REMARK    1  A    between atoms: O_1  and  C_2
REMARK    2  A    between atoms: C_2  and  C_3
REMARK    3  A    between atoms: C_5  and  O_7
REMARK    4  A    between atoms: C_8  and  O_10
REMARK    5  A    between atoms: C_11  and  O_13
REMARK    6  A    between atoms: C_14  and  O_16
REMARK                            x       y       z     vdW  Elec       q    Type
REMARK                         _______ _______ _______ _____ _____    ______ ____
ROOT
ATOM      1  C   UNL     1      10.004   1.514  23.312  0.00  0.00    -0.015 C 
ATOM      2  C   UNL     1       9.816   1.004  21.910  0.00  0.00    +0.174 C 
ATOM      3  C   UNL     1       9.137  -0.381  21.760  0.00  0.00    +0.178 C 
ATOM      4  C   UNL     1       8.192  -0.791  22.912  0.00  0.00    +0.178 C 
ATOM      5  C   UNL     1       8.615  -0.320  24.323  0.00  0.00    +0.169 C 
ATOM      6  C   UNL     1       9.444   0.919  24.377  0.00  0.00    +0.011 C 
ENDROOT
BRANCH   2   7
ATOM      7  O   UNL     1       9.025   1.986  21.230  0.00  0.00    -0.385 OA
ATOM      8  H   UNL     1       9.610   2.758  21.118  0.00  0.00    +0.210 HD
ENDBRANCH   2   7
BRANCH   3   9
ATOM      9  O   UNL     1      10.130  -1.388  21.530  0.00  0.00    -0.386 OA
ATOM     10  H   UNL     1      10.683  -1.434  22.334  0.00  0.00    +0.210 HD
ENDBRANCH   3   9
BRANCH   4  11
ATOM     11  O   UNL     1       6.858  -0.329  22.638  0.00  0.00    -0.386 OA
ATOM     12  H   UNL     1       6.539   0.134  23.434  0.00  0.00    +0.210 HD
ENDBRANCH   4  11
BRANCH   5  13
ATOM     13  O   UNL     1       9.391  -1.331  24.964  0.00  0.00    -0.385 OA
ATOM     14  H   UNL     1       9.651  -1.965  24.272  0.00  0.00    +0.210 HD
ENDBRANCH   5  13
BRANCH   1  15
ATOM     15  C   UNL     1      10.876   2.729  23.468  0.00  0.00    +0.189 C 
BRANCH  15  16
ATOM     16  O   UNL     1      10.104   3.878  23.152  0.00  0.00    -0.391 OA
ATOM     17  H   UNL     1      10.201   4.024  22.195  0.00  0.00    +0.210 HD
ENDBRANCH  15  16
ENDBRANCH   1  15
TORSDOF 6
ENDMDL
MODEL 3
REMARK VINA RESULT:      -4.6      3.437      5.848
REMARK  Name = 
REMARK  6 active torsions:
REMARK  status: ('A' for Active; 'I' for Inactive)
REMARK    1  A    between atoms: O_1  and  C_2
REMARK    2  A    between atoms: C_2  and  C_3
REMARK    3  A    between atoms: C_5  and  O_7
REMARK    4  A    between atoms: C_8  and  O_10
REMARK    5  A    between atoms: C_11  and  O_13
REMARK    6  A    between atoms: C_14  and  O_16
REMARK                            x       y       z     vdW  Elec       q    Type
REMARK                         _______ _______ _______ _____ _____    ______ ____
ROOT
ATOM      1  C   UNL     1      11.555   5.104  23.525  0.00  0.00    -0.015 C 
ATOM      2  C   UNL     1      10.303   5.896  23.788  0.00  0.00    +0.174 C 
ATOM      3  C   UNL     1       8.958   5.164  23.551  0.00  0.00    +0.178 C 
ATOM      4  C   UNL     1       8.998   3.627  23.696  0.00  0.00    +0.178 C 
ATOM      5  C   UNL     1      10.305   2.945  23.230  0.00  0.00    +0.169 C 
ATOM      6  C   UNL     1      11.538   3.782  23.296  0.00  0.00    +0.011 C 
ENDROOT
BRANCH   2   7
ATOM      7  O   UNL     1      10.374   6.312  25.156  0.00  0.00    -0.385 OA
ATOM      8  H   UNL     1       9.449   6.432  25.440  0.00  0.00    +0.210 HD
ENDBRANCH   2   7
BRANCH   3   9
ATOM      9  O   UNL     1       8.414   5.545  22.281  0.00  0.00    -0.386 OA
ATOM     10  H   UNL     1       8.841   6.385  22.027  0.00  0.00    +0.210 HD
ENDBRANCH   3   9
BRANCH   4  11
ATOM     11  O   UNL     1       8.730   3.257  25.060  0.00  0.00    -0.386 OA
ATOM     12  H   UNL     1       8.130   3.929  25.432  0.00  0.00    +0.210 HD
ENDBRANCH   4  11
BRANCH   5  13
ATOM     13  O   UNL     1      10.187   2.540  21.867  0.00  0.00    -0.385 OA
ATOM     14  H   UNL     1      10.819   3.080  21.359  0.00  0.00    +0.210 HD
ENDBRANCH   5  13
BRANCH   1  15
ATOM     15  C   UNL     1      12.843   5.879  23.516  0.00  0.00    +0.189 C 
BRANCH  15  16
ATOM     16  O   UNL     1      13.906   4.980  23.233  0.00  0.00    -0.391 OA
ATOM     17  H   UNL     1      14.679   5.298  23.730  0.00  0.00    +0.210 HD
ENDBRANCH  15  16
ENDBRANCH   1  15
TORSDOF 6
ENDMDL
MODEL 4
REMARK VINA RESULT:      -4.5      1.743      3.378
REMARK  Name = 
REMARK  6 active torsions:
REMARK  status: ('A' for Active; 'I' for Inactive)
REMARK    1  A    between atoms: O_1  and  C_2
REMARK    2  A    between atoms: C_2  and  C_3
REMARK    3  A    between atoms: C_5  and  O_7
REMARK    4  A    between atoms: C_8  and  O_10
REMARK    5  A    between atoms: C_11  and  O_13
REMARK    6  A    between atoms: C_14  and  O_16
REMARK                            x       y       z     vdW  Elec       q    Type
REMARK                         _______ _______ _______ _____ _____    ______ ____
ROOT
ATOM      1  C   UNL     1       7.844  -0.306  23.667  0.00  0.00    -0.015 C 
ATOM      2  C   UNL     1       8.622   0.805  24.316  0.00  0.00    +0.174 C 
ATOM      3  C   UNL     1       9.968   1.190  23.653  0.00  0.00    +0.178 C 
ATOM      4  C   UNL     1      10.077   0.891  22.141  0.00  0.00    +0.178 C 
ATOM      5  C   UNL     1       9.349  -0.383  21.656  0.00  0.00    +0.169 C 
ATOM      6  C   UNL     1       8.173  -0.812  22.468  0.00  0.00    +0.011 C 
ENDROOT
BRANCH   2   7
ATOM      7  O   UNL     1       7.760   1.949  24.319  0.00  0.00    -0.385 OA
ATOM      8  H   UNL     1       8.334   2.708  24.113  0.00  0.00    +0.210 HD
ENDBRANCH   2   7
BRANCH   3   9
ATOM      9  O   UNL     1      11.054   0.592  24.372  0.00  0.00    -0.386 OA
ATOM     10  H   UNL     1      11.317   1.223  25.069  0.00  0.00    +0.210 HD
ENDBRANCH   3   9
BRANCH   4  11
ATOM     11  O   UNL     1       9.610   2.022  21.384  0.00  0.00    -0.386 OA
ATOM     12  H   UNL     1       8.734   1.790  21.023  0.00  0.00    +0.210 HD
ENDBRANCH   4  11
BRANCH   5  13
ATOM     13  O   UNL     1      10.246  -1.492  21.662  0.00  0.00    -0.385 OA
ATOM     14  H   UNL     1       9.717  -2.279  21.886  0.00  0.00    +0.210 HD
ENDBRANCH   5  13
BRANCH   1  15
ATOM     15  C   UNL     1       6.673  -0.841  24.443  0.00  0.00    +0.189 C 
BRANCH  15  16
ATOM     16  O   UNL     1       5.577   0.046  24.270  0.00  0.00    -0.391 OA
ATOM     17  H   UNL     1       4.784  -0.508  24.170  0.00  0.00    +0.210 HD
ENDBRANCH  15  16
ENDBRANCH   1  15
TORSDOF 6
ENDMDL
MODEL 5
REMARK VINA RESULT:      -4.5      1.490      3.952
REMARK  Name = 
REMARK  6 active torsions:
REMARK  status: ('A' for Active; 'I' for Inactive)
REMARK    1  A    between atoms: O_1  and  C_2
REMARK    2  A    between atoms: C_2  and  C_3
REMARK    3  A    between atoms: C_5  and  O_7
REMARK    4  A    between atoms: C_8  and  O_10
REMARK    5  A    between atoms: C_11  and  O_13
REMARK    6  A    between atoms: C_14  and  O_16
REMARK                            x       y       z     vdW  Elec       q    Type
REMARK                         _______ _______ _______ _____ _____    ______ ____
ROOT
ATOM      1  C   UNL     1       8.166   1.423  22.580  0.00  0.00    -0.015 C 
ATOM      2  C   UNL     1       9.649   1.602  22.754  0.00  0.00    +0.174 C 
ATOM      3  C   UNL     1      10.442   0.373  23.266  0.00  0.00    +0.178 C 
ATOM      4  C   UNL     1       9.817  -1.004  22.951  0.00  0.00    +0.178 C 
ATOM      5  C   UNL     1       8.272  -1.057  22.969  0.00  0.00    +0.169 C 
ATOM      6  C   UNL     1       7.570   0.222  22.662  0.00  0.00    +0.011 C 
ENDROOT
BRANCH   2   7
ATOM      7  O   UNL     1      10.158   1.984  21.471  0.00  0.00    -0.385 OA
ATOM      8  H   UNL     1      11.128   1.996  21.568  0.00  0.00    +0.210 HD
ENDBRANCH   2   7
BRANCH   3   9
ATOM      9  O   UNL     1      10.698   0.509  24.669  0.00  0.00    -0.386 OA
ATOM     10  H   UNL     1      11.113  -0.323  24.967  0.00  0.00    +0.210 HD
ENDBRANCH   3   9
BRANCH   4  11
ATOM     11  O   UNL     1      10.293  -1.477  21.679  0.00  0.00    -0.386 OA
ATOM     12  H   UNL     1      10.287  -0.720  21.064  0.00  0.00    +0.210 HD
ENDBRANCH   4  11
BRANCH   5  13
ATOM     13  O   UNL     1       7.811  -1.449  24.260  0.00  0.00    -0.385 OA
ATOM     14  H   UNL     1       7.018  -0.914  24.449  0.00  0.00    +0.210 HD
ENDBRANCH   5  13
BRANCH   1  15
ATOM     15  C   UNL     1       7.369   2.671  22.324  0.00  0.00    +0.189 C 
BRANCH  15  16
ATOM     16  O   UNL     1       8.261   3.777  22.307  0.00  0.00    -0.391 OA
ATOM     17  H   UNL     1       7.717   4.574  22.428  0.00  0.00    +0.210 HD
ENDBRANCH  15  16
ENDBRANCH   1  15
TORSDOF 6
ENDMDL
MODEL 6
REMARK VINA RESULT:      -4.5      2.866      5.314
REMARK  Name = 
REMARK  6 active torsions:
REMARK  status: ('A' for Active; 'I' for Inactive)
REMARK    1  A    between atoms: O_1  and  C_2
REMARK    2  A    between atoms: C_2  and  C_3
REMARK    3  A    between atoms: C_5  and  O_7
REMARK    4  A    between atoms: C_8  and  O_10
REMARK    5  A    between atoms: C_11  and  O_13
REMARK    6  A    between atoms: C_14  and  O_16
REMARK                            x       y       z     vdW  Elec       q    Type
REMARK                         _______ _______ _______ _____ _____    ______ ____
ROOT
ATOM      1  C   UNL     1       9.249  -2.704  23.356  0.00  0.00    -0.015 C 
ATOM      2  C   UNL     1       7.965  -2.960  22.615  0.00  0.00    +0.174 C 
ATOM      3  C   UNL     1       7.187  -4.244  22.998  0.00  0.00    +0.178 C 
ATOM      4  C   UNL     1       7.419  -4.763  24.435  0.00  0.00    +0.178 C 
ATOM      5  C   UNL     1       8.845  -4.565  24.995  0.00  0.00    +0.169 C 
ATOM      6  C   UNL     1       9.617  -3.421  24.430  0.00  0.00    +0.011 C 
ENDROOT
BRANCH   2   7
ATOM      7  O   UNL     1       7.131  -1.820  22.856  0.00  0.00    -0.385 OA
ATOM      8  H   UNL     1       6.860  -1.505  21.974  0.00  0.00    +0.210 HD
ENDBRANCH   2   7
BRANCH   3   9
ATOM      9  O   UNL     1       7.443  -5.274  22.035  0.00  0.00    -0.386 OA
ATOM     10  H   UNL     1       8.393  -5.489  22.091  0.00  0.00    +0.210 HD
ENDBRANCH   3   9
BRANCH   4  11
ATOM     11  O   UNL     1       6.469  -4.160  25.331  0.00  0.00    -0.386 OA
ATOM     12  H   UNL     1       5.826  -4.848  25.583  0.00  0.00    +0.210 HD
ENDBRANCH   4  11
BRANCH   5  13
ATOM     13  O   UNL     1       9.636  -5.725  24.742  0.00  0.00    -0.385 OA
ATOM     14  H   UNL     1       9.320  -6.101  23.900  0.00  0.00    +0.210 HD
ENDBRANCH   5  13
BRANCH   1  15
ATOM     15  C   UNL     1      10.120  -1.603  22.819  0.00  0.00    +0.189 C 
BRANCH  15  16
ATOM     16  O   UNL     1       9.948  -1.541  21.410  0.00  0.00    -0.391 OA
ATOM     17  H   UNL     1      10.839  -1.516  21.023  0.00  0.00    +0.210 HD
ENDBRANCH  15  16
ENDBRANCH   1  15
TORSDOF 6
ENDMDL
MODEL 7
REMARK VINA RESULT:      -4.3      3.151      5.629
REMARK  Name = 
REMARK  6 active torsions:
REMARK  status: ('A' for Active; 'I' for Inactive)
REMARK    1  A    between atoms: O_1  and  C_2
REMARK    2  A    between atoms: C_2  and  C_3
REMARK    3  A    between atoms: C_5  and  O_7
REMARK    4  A    between atoms: C_8  and  O_10
REMARK    5  A    between atoms: C_11  and  O_13
REMARK    6  A    between atoms: C_14  and  O_16
REMARK                            x       y       z     vdW  Elec       q    Type
REMARK                         _______ _______ _______ _____ _____    ______ ____
ROOT
ATOM      1  C   UNL     1       8.355  -2.861  23.001  0.00  0.00    -0.015 C 
ATOM      2  C   UNL     1       9.247  -2.708  24.203  0.00  0.00    +0.174 C 
ATOM      3  C   UNL     1       9.063  -3.745  25.340  0.00  0.00    +0.178 C 
ATOM      4  C   UNL     1       8.502  -5.118  24.908  0.00  0.00    +0.178 C 
ATOM      5  C   UNL     1       7.470  -5.087  23.758  0.00  0.00    +0.169 C 
ATOM      6  C   UNL     1       7.581  -3.941  22.810  0.00  0.00    +0.011 C 
ENDROOT
BRANCH   2   7
ATOM      7  O   UNL     1      10.591  -2.784  23.715  0.00  0.00    -0.385 OA
ATOM      8  H   UNL     1      10.711  -1.994  23.157  0.00  0.00    +0.210 HD
ENDBRANCH   2   7
BRANCH   3   9
ATOM      9  O   UNL     1       8.275  -3.178  26.393  0.00  0.00    -0.386 OA
ATOM     10  H   UNL     1       8.559  -3.605  27.224  0.00  0.00    +0.210 HD
ENDBRANCH   3   9
BRANCH   4  11
ATOM     11  O   UNL     1       9.584  -5.997  24.551  0.00  0.00    -0.386 OA
ATOM     12  H   UNL     1       9.345  -6.427  23.709  0.00  0.00    +0.210 HD
ENDBRANCH   4  11
BRANCH   5  13
ATOM     13  O   UNL     1       6.147  -5.020  24.290  0.00  0.00    -0.385 OA
ATOM     14  H   UNL     1       6.006  -5.843  24.792  0.00  0.00    +0.210 HD
ENDBRANCH   5  13
BRANCH   1  15
ATOM     15  C   UNL     1       8.360  -1.723  22.019  0.00  0.00    +0.189 C 
BRANCH  15  16
ATOM     16  O   UNL     1       9.640  -1.666  21.404  0.00  0.00    -0.391 OA
ATOM     17  H   UNL     1       9.999  -0.783  21.592  0.00  0.00    +0.210 HD
ENDBRANCH  15  16
ENDBRANCH   1  15
TORSDOF 6
ENDMDL
MODEL 8
REMARK VINA RESULT:      -4.3      1.774      4.055
REMARK  Name = 
REMARK  6 active torsions:
REMARK  status: ('A' for Active; 'I' for Inactive)
REMARK    1  A    between atoms: O_1  and  C_2
REMARK    2  A    between atoms: C_2  and  C_3
REMARK    3  A    between atoms: C_5  and  O_7
REMARK    4  A    between atoms: C_8  and  O_10
REMARK    5  A    between atoms: C_11  and  O_13
REMARK    6  A    between atoms: C_14  and  O_16
REMARK                            x       y       z     vdW  Elec       q    Type
REMARK                         _______ _______ _______ _____ _____    ______ ____
ROOT
ATOM      1  C   UNL     1       9.705   0.599  23.936  0.00  0.00    -0.015 C 
ATOM      2  C   UNL     1       8.729  -0.182  24.770  0.00  0.00    +0.174 C 
ATOM      3  C   UNL     1       8.281  -1.556  24.210  0.00  0.00    +0.178 C 
ATOM      4  C   UNL     1       9.283  -2.250  23.261  0.00  0.00    +0.178 C 
ATOM      5  C   UNL     1      10.102  -1.308  22.349  0.00  0.00    +0.169 C 
ATOM      6  C   UNL     1      10.324   0.073  22.867  0.00  0.00    +0.011 C 
ENDROOT
BRANCH   2   7
ATOM      7  O   UNL     1       9.358  -0.380  26.041  0.00  0.00    -0.385 OA
ATOM      8  H   UNL     1       8.657  -0.715  26.630  0.00  0.00    +0.210 HD
ENDBRANCH   2   7
BRANCH   3   9
ATOM      9  O   UNL     1       6.992  -1.434  23.594  0.00  0.00    -0.386 OA
ATOM     10  H   UNL     1       6.497  -0.761  24.098  0.00  0.00    +0.210 HD
ENDBRANCH   3   9
BRANCH   4  11
ATOM     11  O   UNL     1      10.183  -3.076  24.020  0.00  0.00    -0.386 OA
ATOM     12  H   UNL     1      10.789  -2.484  24.501  0.00  0.00    +0.210 HD
ENDBRANCH   4  11
BRANCH   5  13
ATOM     13  O   UNL     1       9.444  -1.148  21.094  0.00  0.00    -0.385 OA
ATOM     14  H   UNL     1       9.405  -2.030  20.683  0.00  0.00    +0.210 HD
ENDBRANCH   5  13
BRANCH   1  15
ATOM     15  C   UNL     1       9.947   2.024  24.351  0.00  0.00    +0.189 C 
BRANCH  15  16
ATOM     16  O   UNL     1       8.884   2.429  25.202  0.00  0.00    -0.391 OA
ATOM     17  H   UNL     1       8.063   2.316  24.694  0.00  0.00    +0.210 HD
ENDBRANCH  15  16
ENDBRANCH   1  15
TORSDOF 6
ENDMDL
MODEL 9
REMARK VINA RESULT:      -4.3      1.890      3.991
REMARK  Name = 
REMARK  6 active torsions:
REMARK  status: ('A' for Active; 'I' for Inactive)
REMARK    1  A    between atoms: O_1  and  C_2
REMARK    2  A    between atoms: C_2  and  C_3
REMARK    3  A    between atoms: C_5  and  O_7
REMARK    4  A    between atoms: C_8  and  O_10
REMARK    5  A    between atoms: C_11  and  O_13
REMARK    6  A    between atoms: C_14  and  O_16
REMARK                            x       y       z     vdW  Elec       q    Type
REMARK                         _______ _______ _______ _____ _____    ______ ____
ROOT
ATOM      1  C   UNL     1       8.289   0.574  22.332  0.00  0.00    -0.015 C 
ATOM      2  C   UNL     1       9.407  -0.425  22.215  0.00  0.00    +0.174 C 
ATOM      3  C   UNL     1       9.227  -1.760  22.980  0.00  0.00    +0.178 C 
ATOM      4  C   UNL     1       7.766  -2.195  23.233  0.00  0.00    +0.178 C 
ATOM      5  C   UNL     1       6.764  -1.048  23.495  0.00  0.00    +0.169 C 
ATOM      6  C   UNL     1       7.107   0.272  22.892  0.00  0.00    +0.011 C 
ENDROOT
BRANCH   2   7
ATOM      7  O   UNL     1       9.549  -0.704  20.817  0.00  0.00    -0.385 OA
ATOM      8  H   UNL     1      10.276  -0.132  20.510  0.00  0.00    +0.210 HD
ENDBRANCH   2   7
BRANCH   3   9
ATOM      9  O   UNL     1       9.969  -1.724  24.206  0.00  0.00    -0.386 OA
ATOM     10  H   UNL     1       9.850  -0.832  24.585  0.00  0.00    +0.210 HD
ENDBRANCH   3   9
BRANCH   4  11
ATOM     11  O   UNL     1       7.296  -2.993  22.131  0.00  0.00    -0.386 OA
ATOM     12  H   UNL     1       7.451  -2.483  21.315  0.00  0.00    +0.210 HD
ENDBRANCH   4  11
BRANCH   5  13
ATOM     13  O   UNL     1       6.647  -0.811  24.898  0.00  0.00    -0.385 OA
ATOM     14  H   UNL     1       5.698  -0.697  25.084  0.00  0.00    +0.210 HD
ENDBRANCH   5  13
BRANCH   1  15
ATOM     15  C   UNL     1       8.569   1.952  21.800  0.00  0.00    +0.189 C 
BRANCH  15  16
ATOM     16  O   UNL     1       9.959   2.055  21.528  0.00  0.00    -0.391 OA
ATOM     17  H   UNL     1      10.057   2.720  20.826  0.00  0.00    +0.210 HD
ENDBRANCH  15  16
ENDBRANCH   1  15
TORSDOF 6
ENDMDL
