MODEL 1
REMARK VINA RESULT:      -7.4      0.000      0.000
REMARK  Name = 
REMARK  7 active torsions:
REMARK  status: ('A' for Active; 'I' for Inactive)
REMARK    1  A    between atoms: C_1  and  O_2
REMARK    2  A    between atoms: O_2  and  N_3
REMARK    3  A    between atoms: C_8  and  C_9
REMARK    4  A    between atoms: C_9  and  N_10
REMARK    5  A    between atoms: C_20  and  C_26
REMARK    6  A    between atoms: N_22  and  C_23
REMARK    7  A    between atoms: C_26  and  O_27
REMARK                            x       y       z     vdW  Elec       q    Type
REMARK                         _______ _______ _______ _____ _____    ______ ____
ROOT
ATOM      1  N   UNL     1       9.384   6.440  26.403  0.00  0.00    -0.092 NA
ATOM      2  C   UNL     1       9.474   5.681  25.352  0.00  0.00    +0.080 C 
ATOM      3  C   UNL     1      10.458   5.977  24.252  0.00  0.00    +0.069 C 
ATOM      4  C   UNL     1      10.454   4.666  23.462  0.00  0.00    +0.117 C 
ATOM      5  N   UNL     1       9.334   3.844  23.934  0.00  0.00    -0.307 N 
ATOM      6  C   UNL     1       9.444   2.458  23.884  0.00  0.00    +0.159 A 
ATOM      7  C   UNL     1      10.195   1.824  22.879  0.00  0.00    +0.164 A 
ATOM      8  F   UNL     1      10.827   2.525  21.924  0.00  0.00    -0.202 F 
ATOM      9  C   UNL     1      10.310   0.447  22.838  0.00  0.00    +0.057 A 
ATOM     10  C   UNL     1       9.657  -0.297  23.811  0.00  0.00    +0.068 A 
ATOM     11  C   UNL     1       9.745  -1.769  23.778  0.00  0.00    +0.205 A 
ATOM     12  C   UNL     1       8.982  -2.545  24.773  0.00  0.00    +0.122 A 
ATOM     13  C   UNL     1       8.314  -1.843  25.697  0.00  0.00    +0.106 A 
ATOM     14  N   UNL     1       8.294  -0.461  25.805  0.00  0.00    -0.328 N 
ATOM     15  O   UNL     1      10.427  -2.346  22.932  0.00  0.00    -0.286 OA
ATOM     16  C   UNL     1       8.915   0.347  24.802  0.00  0.00    +0.147 A 
ATOM     17  N   UNL     1       8.802   1.708  24.822  0.00  0.00    -0.211 NA
ATOM     18  C   UNL     1       8.611   4.480  25.030  0.00  0.00    +0.161 C 
ENDROOT
BRANCH  14  19
ATOM     19  C   UNL     1       7.482   0.155  26.869  0.00  0.00    +0.089 C 
ATOM     20  C   UNL     1       6.282  -0.537  27.463  0.00  0.00    +0.027 C 
ATOM     21  C   UNL     1       6.086   0.671  26.602  0.00  0.00    +0.027 C 
ENDBRANCH  14  19
BRANCH   1  23
ATOM     22  C   UNL     1       7.976   7.051  28.104  0.00  0.00    +0.313 C 
ATOM     23  O   UNL     1       8.373   5.979  27.256  0.00  0.00    -0.397 OA
ENDBRANCH   1  23
BRANCH  12  24
ATOM     24  C   UNL     1       8.925  -4.021  24.776  0.00  0.00    +0.342 C 
ATOM     25  O   UNL     1       7.876  -4.649  24.815  0.00  0.00    -0.245 OA
BRANCH  24  26
ATOM     26  O   UNL     1      10.128  -4.632  24.734  0.00  0.00    -0.477 OA
ATOM     27  H   UNL     1      10.872  -4.057  24.424  0.00  0.00    +0.295 HD
ENDBRANCH  24  26
ENDBRANCH  12  24
BRANCH   3  28
ATOM     28  C   UNL     1      11.845   6.353  24.773  0.00  0.00    +0.088 C 
BRANCH  28  29
ATOM     29  N   UNL     1      12.919   5.775  23.962  0.00  0.00    -0.329 NA
ATOM     30  H   UNL     1      13.058   4.801  24.238  0.00  0.00    +0.118 HD
ATOM     31  H   UNL     1      12.660   5.743  22.978  0.00  0.00    +0.118 HD
ENDBRANCH  28  29
ENDBRANCH   3  28
TORSDOF 6
ENDMDL
MODEL 2
REMARK VINA RESULT:      -7.0      2.766      3.852
REMARK  Name = 
REMARK  7 active torsions:
REMARK  status: ('A' for Active; 'I' for Inactive)
REMARK    1  A    between atoms: C_1  and  O_2
REMARK    2  A    between atoms: O_2  and  N_3
REMARK    3  A    between atoms: C_8  and  C_9
REMARK    4  A    between atoms: C_9  and  N_10
REMARK    5  A    between atoms: C_20  and  C_26
REMARK    6  A    between atoms: N_22  and  C_23
REMARK    7  A    between atoms: C_26  and  O_27
REMARK                            x       y       z     vdW  Elec       q    Type
REMARK                         _______ _______ _______ _____ _____    ______ ____
ROOT
ATOM      1  N   UNL     1       8.199   3.660  23.188  0.00  0.00    -0.092 NA
ATOM      2  C   UNL     1       8.622   2.470  22.884  0.00  0.00    +0.080 C 
ATOM      3  C   UNL     1      10.046   2.228  22.459  0.00  0.00    +0.069 C 
ATOM      4  C   UNL     1      10.155   0.705  22.571  0.00  0.00    +0.117 C 
ATOM      5  N   UNL     1       8.807   0.156  22.757  0.00  0.00    -0.307 N 
ATOM      6  C   UNL     1       8.650  -1.021  23.482  0.00  0.00    +0.159 A 
ATOM      7  C   UNL     1       9.644  -2.015  23.478  0.00  0.00    +0.164 A 
ATOM      8  F   UNL     1      10.777  -1.876  22.771  0.00  0.00    -0.202 F 
ATOM      9  C   UNL     1       9.489  -3.179  24.208  0.00  0.00    +0.057 A 
ATOM     10  C   UNL     1       8.321  -3.347  24.939  0.00  0.00    +0.068 A 
ATOM     11  C   UNL     1       8.120  -4.588  25.709  0.00  0.00    +0.205 A 
ATOM     12  C   UNL     1       6.841  -4.783  26.416  0.00  0.00    +0.122 A 
ATOM     13  C   UNL     1       5.970  -3.766  26.369  0.00  0.00    +0.106 A 
ATOM     14  N   UNL     1       6.176  -2.553  25.731  0.00  0.00    -0.328 N 
ATOM     15  O   UNL     1       8.991  -5.457  25.753  0.00  0.00    -0.286 OA
ATOM     16  C   UNL     1       7.343  -2.351  24.931  0.00  0.00    +0.147 A 
ATOM     17  N   UNL     1       7.507  -1.212  24.196  0.00  0.00    -0.211 NA
ATOM     18  C   UNL     1       7.795   1.204  22.836  0.00  0.00    +0.161 C 
ENDROOT
BRANCH  14  19
ATOM     19  C   UNL     1       5.098  -1.549  25.754  0.00  0.00    +0.089 C 
ATOM     20  C   UNL     1       5.182  -0.302  26.599  0.00  0.00    +0.027 C 
ATOM     21  C   UNL     1       4.203  -1.374  26.961  0.00  0.00    +0.027 C 
ENDBRANCH  14  19
BRANCH   1  23
ATOM     22  C   UNL     1       6.166   4.614  22.733  0.00  0.00    +0.313 C 
ATOM     23  O   UNL     1       6.836   3.630  23.511  0.00  0.00    -0.397 OA
ENDBRANCH   1  23
BRANCH  12  24
ATOM     24  C   UNL     1       6.497  -6.024  27.140  0.00  0.00    +0.342 C 
ATOM     25  O   UNL     1       5.549  -6.734  26.836  0.00  0.00    -0.245 OA
BRANCH  24  26
ATOM     26  O   UNL     1       7.315  -6.318  28.173  0.00  0.00    -0.477 OA
ATOM     27  H   UNL     1       8.260  -6.468  27.921  0.00  0.00    +0.295 HD
ENDBRANCH  24  26
ENDBRANCH  12  24
BRANCH   3  28
ATOM     28  C   UNL     1      11.064   2.963  23.329  0.00  0.00    +0.088 C 
BRANCH  28  29
ATOM     29  N   UNL     1      11.189   4.377  22.964  0.00  0.00    -0.329 NA
ATOM     30  H   UNL     1      10.385   4.646  22.396  0.00  0.00    +0.118 HD
ATOM     31  H   UNL     1      11.150   4.973  23.789  0.00  0.00    +0.118 HD
ENDBRANCH  28  29
ENDBRANCH   3  28
TORSDOF 6
ENDMDL
MODEL 3
REMARK VINA RESULT:      -6.9      3.446      8.031
REMARK  Name = 
REMARK  7 active torsions:
REMARK  status: ('A' for Active; 'I' for Inactive)
REMARK    1  A    between atoms: C_1  and  O_2
REMARK    2  A    between atoms: O_2  and  N_3
REMARK    3  A    between atoms: C_8  and  C_9
REMARK    4  A    between atoms: C_9  and  N_10
REMARK    5  A    between atoms: C_20  and  C_26
REMARK    6  A    between atoms: N_22  and  C_23
REMARK    7  A    between atoms: C_26  and  O_27
REMARK                            x       y       z     vdW  Elec       q    Type
REMARK                         _______ _______ _______ _____ _____    ______ ____
ROOT
ATOM      1  N   UNL     1       4.405  -5.046  23.217  0.00  0.00    -0.092 NA
ATOM      2  C   UNL     1       5.592  -4.690  23.605  0.00  0.00    +0.080 C 
ATOM      3  C   UNL     1       6.815  -5.477  23.216  0.00  0.00    +0.069 C 
ATOM      4  C   UNL     1       7.944  -4.506  23.571  0.00  0.00    +0.117 C 
ATOM      5  N   UNL     1       7.377  -3.406  24.362  0.00  0.00    -0.307 N 
ATOM      6  C   UNL     1       7.962  -2.146  24.284  0.00  0.00    +0.159 A 
ATOM      7  C   UNL     1       9.341  -1.998  24.061  0.00  0.00    +0.164 A 
ATOM      8  F   UNL     1      10.151  -3.060  23.923  0.00  0.00    -0.202 F 
ATOM      9  C   UNL     1       9.918  -0.744  23.975  0.00  0.00    +0.057 A 
ATOM     10  C   UNL     1       9.100   0.368  24.125  0.00  0.00    +0.068 A 
ATOM     11  C   UNL     1       9.691   1.716  24.059  0.00  0.00    +0.205 A 
ATOM     12  C   UNL     1       8.821   2.883  24.297  0.00  0.00    +0.122 A 
ATOM     13  C   UNL     1       7.519   2.631  24.483  0.00  0.00    +0.106 A 
ATOM     14  N   UNL     1       6.925   1.378  24.454  0.00  0.00    -0.328 N 
ATOM     15  O   UNL     1      10.890   1.875  23.826  0.00  0.00    -0.286 OA
ATOM     16  C   UNL     1       7.731   0.203  24.347  0.00  0.00    +0.147 A 
ATOM     17  N   UNL     1       7.180  -1.043  24.440  0.00  0.00    -0.211 NA
ATOM     18  C   UNL     1       5.932  -3.533  24.520  0.00  0.00    +0.161 C 
ENDROOT
BRANCH  14  19
ATOM     19  C   UNL     1       5.477   1.275  24.706  0.00  0.00    +0.089 C 
ATOM     20  C   UNL     1       4.663   2.446  25.195  0.00  0.00    +0.027 C 
ATOM     21  C   UNL     1       4.914   1.289  26.109  0.00  0.00    +0.027 C 
ENDBRANCH  14  19
BRANCH   1  23
ATOM     22  C   UNL     1       2.272  -4.939  24.048  0.00  0.00    +0.313 C 
ATOM     23  O   UNL     1       3.436  -4.181  23.740  0.00  0.00    -0.397 OA
ENDBRANCH   1  23
BRANCH  12  24
ATOM     24  C   UNL     1       9.324   4.271  24.345  0.00  0.00    +0.342 C 
ATOM     25  O   UNL     1       8.983   5.076  25.201  0.00  0.00    -0.245 OA
BRANCH  24  26
ATOM     26  O   UNL     1      10.196   4.589  23.365  0.00  0.00    -0.477 OA
ATOM     27  H   UNL     1      10.102   4.052  22.540  0.00  0.00    +0.295 HD
ENDBRANCH  24  26
ENDBRANCH  12  24
BRANCH   3  28
ATOM     28  C   UNL     1       6.822  -5.883  21.743  0.00  0.00    +0.088 C 
BRANCH  28  29
ATOM     29  N   UNL     1       6.113  -4.919  20.897  0.00  0.00    -0.329 NA
ATOM     30  H   UNL     1       5.809  -4.132  21.473  0.00  0.00    +0.118 HD
ATOM     31  H   UNL     1       6.735  -4.519  20.197  0.00  0.00    +0.118 HD
ENDBRANCH  28  29
ENDBRANCH   3  28
TORSDOF 6
ENDMDL
MODEL 4
REMARK VINA RESULT:      -6.8      4.166      8.560
REMARK  Name = 
REMARK  7 active torsions:
REMARK  status: ('A' for Active; 'I' for Inactive)
REMARK    1  A    between atoms: C_1  and  O_2
REMARK    2  A    between atoms: O_2  and  N_3
REMARK    3  A    between atoms: C_8  and  C_9
REMARK    4  A    between atoms: C_9  and  N_10
REMARK    5  A    between atoms: C_20  and  C_26
REMARK    6  A    between atoms: N_22  and  C_23
REMARK    7  A    between atoms: C_26  and  O_27
REMARK                            x       y       z     vdW  Elec       q    Type
REMARK                         _______ _______ _______ _____ _____    ______ ____
ROOT
ATOM      1  N   UNL     1       3.315  -5.711  26.302  0.00  0.00    -0.092 NA
ATOM      2  C   UNL     1       4.364  -5.694  25.535  0.00  0.00    +0.080 C 
ATOM      3  C   UNL     1       4.455  -6.566  24.311  0.00  0.00    +0.069 C 
ATOM      4  C   UNL     1       5.643  -5.948  23.569  0.00  0.00    +0.117 C 
ATOM      5  N   UNL     1       6.315  -5.007  24.473  0.00  0.00    -0.307 N 
ATOM      6  C   UNL     1       6.966  -3.901  23.936  0.00  0.00    +0.159 A 
ATOM      7  C   UNL     1       7.570  -3.958  22.668  0.00  0.00    +0.164 A 
ATOM      8  F   UNL     1       7.551  -5.079  21.929  0.00  0.00    -0.202 F 
ATOM      9  C   UNL     1       8.208  -2.854  22.133  0.00  0.00    +0.057 A 
ATOM     10  C   UNL     1       8.247  -1.688  22.885  0.00  0.00    +0.068 A 
ATOM     11  C   UNL     1       8.940  -0.503  22.348  0.00  0.00    +0.205 A 
ATOM     12  C   UNL     1       9.038   0.702  23.192  0.00  0.00    +0.122 A 
ATOM     13  C   UNL     1       8.413   0.657  24.376  0.00  0.00    +0.106 A 
ATOM     14  N   UNL     1       7.675  -0.412  24.861  0.00  0.00    -0.328 N 
ATOM     15  O   UNL     1       9.443  -0.515  21.224  0.00  0.00    -0.286 OA
ATOM     16  C   UNL     1       7.643  -1.648  24.143  0.00  0.00    +0.147 A 
ATOM     17  N   UNL     1       7.026  -2.750  24.661  0.00  0.00    -0.211 NA
ATOM     18  C   UNL     1       5.632  -4.899  25.758  0.00  0.00    +0.161 C 
ENDROOT
BRANCH  14  19
ATOM     19  C   UNL     1       7.073  -0.307  26.201  0.00  0.00    +0.089 C 
ATOM     20  C   UNL     1       7.195   0.940  27.040  0.00  0.00    +0.027 C 
ATOM     21  C   UNL     1       7.921  -0.301  27.454  0.00  0.00    +0.027 C 
ENDBRANCH  14  19
BRANCH   1  23
ATOM     22  C   UNL     1       3.237  -5.573  28.588  0.00  0.00    +0.313 C 
ATOM     23  O   UNL     1       3.489  -4.847  27.391  0.00  0.00    -0.397 OA
ENDBRANCH   1  23
BRANCH  12  24
ATOM     24  C   UNL     1       9.786   1.911  22.792  0.00  0.00    +0.342 C 
ATOM     25  O   UNL     1      10.450   2.576  23.576  0.00  0.00    -0.245 OA
BRANCH  24  26
ATOM     26  O   UNL     1       9.681   2.232  21.486  0.00  0.00    -0.477 OA
ATOM     27  H   UNL     1      10.364   1.816  20.903  0.00  0.00    +0.295 HD
ENDBRANCH  24  26
ENDBRANCH  12  24
BRANCH   3  28
ATOM     28  C   UNL     1       3.172  -6.569  23.481  0.00  0.00    +0.088 C 
BRANCH  28  29
ATOM     29  N   UNL     1       2.828  -5.234  22.985  0.00  0.00    -0.329 NA
ATOM     30  H   UNL     1       3.458  -4.550  23.406  0.00  0.00    +0.118 HD
ATOM     31  H   UNL     1       2.983  -5.164  21.981  0.00  0.00    +0.118 HD
ENDBRANCH  28  29
ENDBRANCH   3  28
TORSDOF 6
ENDMDL
MODEL 5
REMARK VINA RESULT:      -6.6      3.003      3.414
REMARK  Name = 
REMARK  7 active torsions:
REMARK  status: ('A' for Active; 'I' for Inactive)
REMARK    1  A    between atoms: C_1  and  O_2
REMARK    2  A    between atoms: O_2  and  N_3
REMARK    3  A    between atoms: C_8  and  C_9
REMARK    4  A    between atoms: C_9  and  N_10
REMARK    5  A    between atoms: C_20  and  C_26
REMARK    6  A    between atoms: N_22  and  C_23
REMARK    7  A    between atoms: C_26  and  O_27
REMARK                            x       y       z     vdW  Elec       q    Type
REMARK                         _______ _______ _______ _____ _____    ______ ____
ROOT
ATOM      1  N   UNL     1       5.228   4.663  23.966  0.00  0.00    -0.092 NA
ATOM      2  C   UNL     1       5.820   3.734  23.278  0.00  0.00    +0.080 C 
ATOM      3  C   UNL     1       6.865   4.066  22.246  0.00  0.00    +0.069 C 
ATOM      4  C   UNL     1       7.505   2.699  21.992  0.00  0.00    +0.117 C 
ATOM      5  N   UNL     1       6.667   1.670  22.621  0.00  0.00    -0.307 N 
ATOM      6  C   UNL     1       7.266   0.505  23.090  0.00  0.00    +0.159 A 
ATOM      7  C   UNL     1       8.403  -0.032  22.463  0.00  0.00    +0.164 A 
ATOM      8  F   UNL     1       8.952   0.549  21.383  0.00  0.00    -0.202 F 
ATOM      9  C   UNL     1       9.001  -1.185  22.938  0.00  0.00    +0.057 A 
ATOM     10  C   UNL     1       8.443  -1.805  24.047  0.00  0.00    +0.068 A 
ATOM     11  C   UNL     1       9.047  -3.048  24.562  0.00  0.00    +0.205 A 
ATOM     12  C   UNL     1       8.396  -3.735  25.693  0.00  0.00    +0.122 A 
ATOM     13  C   UNL     1       7.329  -3.129  26.228  0.00  0.00    +0.106 A 
ATOM     14  N   UNL     1       6.800  -1.913  25.822  0.00  0.00    -0.328 N 
ATOM     15  O   UNL     1      10.066  -3.517  24.054  0.00  0.00    -0.286 OA
ATOM     16  C   UNL     1       7.313  -1.260  24.659  0.00  0.00    +0.147 A 
ATOM     17  N   UNL     1       6.729  -0.126  24.170  0.00  0.00    -0.211 NA
ATOM     18  C   UNL     1       5.534   2.249  23.335  0.00  0.00    +0.161 C 
ENDROOT
BRANCH  14  19
ATOM     19  C   UNL     1       5.600  -1.399  26.505  0.00  0.00    +0.089 C 
ATOM     20  C   UNL     1       4.864  -2.203  27.546  0.00  0.00    +0.027 C 
ATOM     21  C   UNL     1       4.224  -1.957  26.216  0.00  0.00    +0.027 C 
ENDBRANCH  14  19
BRANCH   1  23
ATOM     22  C   UNL     1       3.026   4.747  24.594  0.00  0.00    +0.313 C 
ATOM     23  O   UNL     1       4.274   4.105  24.827  0.00  0.00    -0.397 OA
ENDBRANCH   1  23
BRANCH  12  24
ATOM     24  C   UNL     1       8.862  -5.031  26.228  0.00  0.00    +0.342 C 
ATOM     25  O   UNL     1       8.154  -5.770  26.898  0.00  0.00    -0.245 OA
BRANCH  24  26
ATOM     26  O   UNL     1      10.139  -5.341  25.921  0.00  0.00    -0.477 OA
ATOM     27  H   UNL     1      10.315  -5.452  24.954  0.00  0.00    +0.295 HD
ENDBRANCH  24  26
ENDBRANCH  12  24
BRANCH   3  28
ATOM     28  C   UNL     1       7.869   5.113  22.726  0.00  0.00    +0.088 C 
BRANCH  28  29
ATOM     29  N   UNL     1       7.903   6.291  21.855  0.00  0.00    -0.329 NA
ATOM     30  H   UNL     1       8.023   7.126  22.430  0.00  0.00    +0.118 HD
ATOM     31  H   UNL     1       8.713   6.268  21.239  0.00  0.00    +0.118 HD
ENDBRANCH  28  29
ENDBRANCH   3  28
TORSDOF 6
ENDMDL
MODEL 6
REMARK VINA RESULT:      -6.4      4.518      7.540
REMARK  Name = 
REMARK  7 active torsions:
REMARK  status: ('A' for Active; 'I' for Inactive)
REMARK    1  A    between atoms: C_1  and  O_2
REMARK    2  A    between atoms: O_2  and  N_3
REMARK    3  A    between atoms: C_8  and  C_9
REMARK    4  A    between atoms: C_9  and  N_10
REMARK    5  A    between atoms: C_20  and  C_26
REMARK    6  A    between atoms: N_22  and  C_23
REMARK    7  A    between atoms: C_26  and  O_27
REMARK                            x       y       z     vdW  Elec       q    Type
REMARK                         _______ _______ _______ _____ _____    ______ ____
ROOT
ATOM      1  N   UNL     1       9.849  -0.431  23.687  0.00  0.00    -0.092 NA
ATOM      2  C   UNL     1       9.215  -0.996  24.669  0.00  0.00    +0.080 C 
ATOM      3  C   UNL     1       8.738  -0.202  25.857  0.00  0.00    +0.069 C 
ATOM      4  C   UNL     1       7.770  -1.181  26.525  0.00  0.00    +0.117 C 
ATOM      5  N   UNL     1       7.945  -2.501  25.906  0.00  0.00    -0.307 N 
ATOM      6  C   UNL     1       6.857  -3.366  25.840  0.00  0.00    +0.159 A 
ATOM      7  C   UNL     1       5.863  -3.362  26.834  0.00  0.00    +0.164 A 
ATOM      8  F   UNL     1       5.926  -2.533  27.889  0.00  0.00    -0.202 F 
ATOM      9  C   UNL     1       4.779  -4.217  26.760  0.00  0.00    +0.057 A 
ATOM     10  C   UNL     1       4.701  -5.088  25.683  0.00  0.00    +0.068 A 
ATOM     11  C   UNL     1       3.566  -6.026  25.590  0.00  0.00    +0.205 A 
ATOM     12  C   UNL     1       3.540  -6.997  24.481  0.00  0.00    +0.122 A 
ATOM     13  C   UNL     1       4.526  -6.903  23.579  0.00  0.00    +0.106 A 
ATOM     14  N   UNL     1       5.550  -5.969  23.594  0.00  0.00    -0.328 N 
ATOM     15  O   UNL     1       2.663  -6.015  26.427  0.00  0.00    -0.286 OA
ATOM     16  C   UNL     1       5.696  -5.081  24.704  0.00  0.00    +0.147 A 
ATOM     17  N   UNL     1       6.766  -4.237  24.798  0.00  0.00    -0.211 NA
ATOM     18  C   UNL     1       8.923  -2.473  24.823  0.00  0.00    +0.161 C 
ENDROOT
BRANCH  14  19
ATOM     19  C   UNL     1       6.573  -6.023  22.536  0.00  0.00    +0.089 C 
ATOM     20  C   UNL     1       6.972  -4.805  21.742  0.00  0.00    +0.027 C 
ATOM     21  C   UNL     1       6.208  -5.904  21.073  0.00  0.00    +0.027 C 
ENDBRANCH  14  19
BRANCH   1  23
ATOM     22  C   UNL     1       9.468  -1.148  21.544  0.00  0.00    +0.313 C 
ATOM     23  O   UNL     1      10.220  -1.383  22.728  0.00  0.00    -0.397 OA
ENDBRANCH   1  23
BRANCH  12  24
ATOM     24  C   UNL     1       2.502  -8.039  24.343  0.00  0.00    +0.342 C 
ATOM     25  O   UNL     1       1.643  -8.015  23.472  0.00  0.00    -0.245 OA
BRANCH  24  26
ATOM     26  O   UNL     1       2.572  -9.029  25.258  0.00  0.00    -0.477 OA
ATOM     27  H   UNL     1       1.896  -9.742  25.147  0.00  0.00    +0.295 HD
ENDBRANCH  24  26
ENDBRANCH  12  24
BRANCH   3  28
ATOM     28  C   UNL     1       8.073   1.118  25.466  0.00  0.00    +0.088 C 
BRANCH  28  29
ATOM     29  N   UNL     1       9.046   2.118  25.018  0.00  0.00    -0.329 NA
ATOM     30  H   UNL     1       9.378   2.645  25.828  0.00  0.00    +0.118 HD
ATOM     31  H   UNL     1       9.874   1.675  24.625  0.00  0.00    +0.118 HD
ENDBRANCH  28  29
ENDBRANCH   3  28
TORSDOF 6
ENDMDL
MODEL 7
REMARK VINA RESULT:      -6.4      2.680      3.856
REMARK  Name = 
REMARK  7 active torsions:
REMARK  status: ('A' for Active; 'I' for Inactive)
REMARK    1  A    between atoms: C_1  and  O_2
REMARK    2  A    between atoms: O_2  and  N_3
REMARK    3  A    between atoms: C_8  and  C_9
REMARK    4  A    between atoms: C_9  and  N_10
REMARK    5  A    between atoms: C_20  and  C_26
REMARK    6  A    between atoms: N_22  and  C_23
REMARK    7  A    between atoms: C_26  and  O_27
REMARK                            x       y       z     vdW  Elec       q    Type
REMARK                         _______ _______ _______ _____ _____    ______ ____
ROOT
ATOM      1  N   UNL     1       8.331   3.722  24.385  0.00  0.00    -0.092 NA
ATOM      2  C   UNL     1       8.304   2.704  23.579  0.00  0.00    +0.080 C 
ATOM      3  C   UNL     1       9.422   2.444  22.604  0.00  0.00    +0.069 C 
ATOM      4  C   UNL     1       9.135   1.004  22.169  0.00  0.00    +0.117 C 
ATOM      5  N   UNL     1       7.799   0.632  22.651  0.00  0.00    -0.307 N 
ATOM      6  C   UNL     1       7.540  -0.700  22.961  0.00  0.00    +0.159 A 
ATOM      7  C   UNL     1       8.176  -1.744  22.269  0.00  0.00    +0.164 A 
ATOM      8  F   UNL     1       9.051  -1.503  21.279  0.00  0.00    -0.202 F 
ATOM      9  C   UNL     1       7.923  -3.066  22.586  0.00  0.00    +0.057 A 
ATOM     10  C   UNL     1       7.014  -3.337  23.599  0.00  0.00    +0.068 A 
ATOM     11  C   UNL     1       6.709  -4.738  23.943  0.00  0.00    +0.205 A 
ATOM     12  C   UNL     1       5.684  -5.008  24.969  0.00  0.00    +0.122 A 
ATOM     13  C   UNL     1       5.152  -3.940  25.579  0.00  0.00    +0.106 A 
ATOM     14  N   UNL     1       5.492  -2.618  25.339  0.00  0.00    -0.328 N 
ATOM     15  O   UNL     1       7.281  -5.670  23.379  0.00  0.00    -0.286 OA
ATOM     16  C   UNL     1       6.389  -2.288  24.277  0.00  0.00    +0.147 A 
ATOM     17  N   UNL     1       6.643  -0.988  23.944  0.00  0.00    -0.211 NA
ATOM     18  C   UNL     1       7.182   1.698  23.434  0.00  0.00    +0.161 C 
ENDROOT
BRANCH  14  19
ATOM     19  C   UNL     1       4.787  -1.560  26.082  0.00  0.00    +0.089 C 
ATOM     20  C   UNL     1       5.457  -0.764  27.174  0.00  0.00    +0.027 C 
ATOM     21  C   UNL     1       4.381  -1.742  27.528  0.00  0.00    +0.027 C 
ENDBRANCH  14  19
BRANCH   1  23
ATOM     22  C   UNL     1       7.483   4.343  26.422  0.00  0.00    +0.313 C 
ATOM     23  O   UNL     1       7.165   3.766  25.160  0.00  0.00    -0.397 OA
ENDBRANCH   1  23
BRANCH  12  24
ATOM     24  C   UNL     1       5.235  -6.369  25.325  0.00  0.00    +0.342 C 
ATOM     25  O   UNL     1       5.324  -6.827  26.456  0.00  0.00    -0.245 OA
BRANCH  24  26
ATOM     26  O   UNL     1       4.716  -7.077  24.300  0.00  0.00    -0.477 OA
ATOM     27  H   UNL     1       4.935  -8.042  24.312  0.00  0.00    +0.295 HD
ENDBRANCH  24  26
ENDBRANCH  12  24
BRANCH   3  28
ATOM     28  C   UNL     1      10.808   2.613  23.224  0.00  0.00    +0.088 C 
BRANCH  28  29
ATOM     29  N   UNL     1      11.293   3.992  23.134  0.00  0.00    -0.329 NA
ATOM     30  H   UNL     1      10.492   4.625  23.092  0.00  0.00    +0.118 HD
ATOM     31  H   UNL     1      11.804   4.258  23.973  0.00  0.00    +0.118 HD
ENDBRANCH  28  29
ENDBRANCH   3  28
TORSDOF 6
ENDMDL
MODEL 8
REMARK VINA RESULT:      -6.3      5.736      9.748
REMARK  Name = 
REMARK  7 active torsions:
REMARK  status: ('A' for Active; 'I' for Inactive)
REMARK    1  A    between atoms: C_1  and  O_2
REMARK    2  A    between atoms: O_2  and  N_3
REMARK    3  A    between atoms: C_8  and  C_9
REMARK    4  A    between atoms: C_9  and  N_10
REMARK    5  A    between atoms: C_20  and  C_26
REMARK    6  A    between atoms: N_22  and  C_23
REMARK    7  A    between atoms: C_26  and  O_27
REMARK                            x       y       z     vdW  Elec       q    Type
REMARK                         _______ _______ _______ _____ _____    ______ ____
ROOT
ATOM      1  N   UNL     1       2.956  -7.838  26.236  0.00  0.00    -0.092 NA
ATOM      2  C   UNL     1       3.230  -6.589  26.464  0.00  0.00    +0.080 C 
ATOM      3  C   UNL     1       3.293  -6.042  27.866  0.00  0.00    +0.069 C 
ATOM      4  C   UNL     1       3.984  -4.694  27.649  0.00  0.00    +0.117 C 
ATOM      5  N   UNL     1       4.019  -4.417  26.208  0.00  0.00    -0.307 N 
ATOM      6  C   UNL     1       5.065  -3.660  25.690  0.00  0.00    +0.159 A 
ATOM      7  C   UNL     1       5.677  -2.649  26.450  0.00  0.00    +0.164 A 
ATOM      8  F   UNL     1       5.274  -2.365  27.699  0.00  0.00    -0.202 F 
ATOM      9  C   UNL     1       6.723  -1.905  25.935  0.00  0.00    +0.057 A 
ATOM     10  C   UNL     1       7.149  -2.176  24.642  0.00  0.00    +0.068 A 
ATOM     11  C   UNL     1       8.247  -1.383  24.061  0.00  0.00    +0.205 A 
ATOM     12  C   UNL     1       8.634  -1.633  22.660  0.00  0.00    +0.122 A 
ATOM     13  C   UNL     1       8.000  -2.631  22.031  0.00  0.00    +0.106 A 
ATOM     14  N   UNL     1       7.031  -3.451  22.588  0.00  0.00    -0.328 N 
ATOM     15  O   UNL     1       8.825  -0.519  24.719  0.00  0.00    -0.286 OA
ATOM     16  C   UNL     1       6.530  -3.183  23.899  0.00  0.00    +0.147 A 
ATOM     17  N   UNL     1       5.491  -3.901  24.420  0.00  0.00    -0.211 NA
ATOM     18  C   UNL     1       3.451  -5.510  25.426  0.00  0.00    +0.161 C 
ENDROOT
BRANCH  14  19
ATOM     19  C   UNL     1       6.412  -4.489  21.745  0.00  0.00    +0.089 C 
ATOM     20  C   UNL     1       5.925  -5.798  22.313  0.00  0.00    +0.027 C 
ATOM     21  C   UNL     1       7.129  -5.781  21.424  0.00  0.00    +0.027 C 
ENDBRANCH  14  19
BRANCH   1  23
ATOM     22  C   UNL     1       1.671  -8.699  24.546  0.00  0.00    +0.313 C 
ATOM     23  O   UNL     1       2.918  -8.090  24.859  0.00  0.00    -0.397 OA
ENDBRANCH   1  23
BRANCH  12  24
ATOM     24  C   UNL     1       9.657  -0.837  21.949  0.00  0.00    +0.342 C 
ATOM     25  O   UNL     1       9.487   0.328  21.620  0.00  0.00    -0.245 OA
BRANCH  24  26
ATOM     26  O   UNL     1      10.803  -1.499  21.687  0.00  0.00    -0.477 OA
ATOM     27  H   UNL     1      11.451  -1.515  22.435  0.00  0.00    +0.295 HD
ENDBRANCH  24  26
ENDBRANCH  12  24
BRANCH   3  28
ATOM     28  C   UNL     1       4.052  -6.952  28.830  0.00  0.00    +0.088 C 
BRANCH  28  29
ATOM     29  N   UNL     1       5.313  -7.435  28.262  0.00  0.00    -0.329 NA
ATOM     30  H   UNL     1       5.126  -8.258  27.687  0.00  0.00    +0.118 HD
ATOM     31  H   UNL     1       5.717  -6.749  27.627  0.00  0.00    +0.118 HD
ENDBRANCH  28  29
ENDBRANCH   3  28
TORSDOF 6
ENDMDL
MODEL 9
REMARK VINA RESULT:      -6.2      3.017      8.477
REMARK  Name = 
REMARK  7 active torsions:
REMARK  status: ('A' for Active; 'I' for Inactive)
REMARK    1  A    between atoms: C_1  and  O_2
REMARK    2  A    between atoms: O_2  and  N_3
REMARK    3  A    between atoms: C_8  and  C_9
REMARK    4  A    between atoms: C_9  and  N_10
REMARK    5  A    between atoms: C_20  and  C_26
REMARK    6  A    between atoms: N_22  and  C_23
REMARK    7  A    between atoms: C_26  and  O_27
REMARK                            x       y       z     vdW  Elec       q    Type
REMARK                         _______ _______ _______ _____ _____    ______ ____
ROOT
ATOM      1  N   UNL     1       7.534  -5.275  24.366  0.00  0.00    -0.092 NA
ATOM      2  C   UNL     1       6.868  -4.349  24.987  0.00  0.00    +0.080 C 
ATOM      3  C   UNL     1       6.293  -4.581  26.359  0.00  0.00    +0.069 C 
ATOM      4  C   UNL     1       5.949  -3.158  26.804  0.00  0.00    +0.117 C 
ATOM      5  N   UNL     1       6.060  -2.269  25.640  0.00  0.00    -0.307 N 
ATOM      6  C   UNL     1       6.420  -0.940  25.838  0.00  0.00    +0.159 A 
ATOM      7  C   UNL     1       6.058  -0.254  27.010  0.00  0.00    +0.164 A 
ATOM      8  F   UNL     1       5.345  -0.847  27.981  0.00  0.00    -0.202 F 
ATOM      9  C   UNL     1       6.427   1.064  27.206  0.00  0.00    +0.057 A 
ATOM     10  C   UNL     1       7.156   1.699  26.210  0.00  0.00    +0.068 A 
ATOM     11  C   UNL     1       7.543   3.111  26.384  0.00  0.00    +0.205 A 
ATOM     12  C   UNL     1       8.250   3.791  25.283  0.00  0.00    +0.122 A 
ATOM     13  C   UNL     1       8.562   3.041  24.217  0.00  0.00    +0.106 A 
ATOM     14  N   UNL     1       8.292   1.689  24.072  0.00  0.00    -0.328 N 
ATOM     15  O   UNL     1       7.272   3.722  27.417  0.00  0.00    -0.286 OA
ATOM     16  C   UNL     1       7.507   1.004  25.051  0.00  0.00    +0.147 A 
ATOM     17  N   UNL     1       7.126  -0.294  24.868  0.00  0.00    -0.211 NA
ATOM     18  C   UNL     1       6.511  -2.980  24.449  0.00  0.00    +0.161 C 
ENDROOT
BRANCH  14  19
ATOM     19  C   UNL     1       8.681   1.019  22.819  0.00  0.00    +0.089 C 
ATOM     20  C   UNL     1       9.658   1.637  21.850  0.00  0.00    +0.027 C 
ATOM     21  C   UNL     1       8.214   1.525  21.472  0.00  0.00    +0.027 C 
ENDBRANCH  14  19
BRANCH   1  23
ATOM     22  C   UNL     1       7.259  -5.615  22.116  0.00  0.00    +0.313 C 
ATOM     23  O   UNL     1       7.928  -4.831  23.097  0.00  0.00    -0.397 OA
ENDBRANCH   1  23
BRANCH  12  24
ATOM     24  C   UNL     1       8.604   5.225  25.312  0.00  0.00    +0.342 C 
ATOM     25  O   UNL     1       8.657   5.920  24.307  0.00  0.00    -0.245 OA
BRANCH  24  26
ATOM     26  O   UNL     1       8.866   5.715  26.542  0.00  0.00    -0.477 OA
ATOM     27  H   UNL     1       8.297   5.347  27.262  0.00  0.00    +0.295 HD
ENDBRANCH  24  26
ENDBRANCH  12  24
BRANCH   3  28
ATOM     28  C   UNL     1       7.266  -5.281  27.306  0.00  0.00    +0.088 C 
BRANCH  28  29
ATOM     29  N   UNL     1       8.662  -4.940  27.019  0.00  0.00    -0.329 NA
ATOM     30  H   UNL     1       8.997  -5.523  26.251  0.00  0.00    +0.118 HD
ATOM     31  H   UNL     1       8.745  -3.981  26.688  0.00  0.00    +0.118 HD
ENDBRANCH  28  29
ENDBRANCH   3  28
TORSDOF 6
ENDMDL
