MODEL 1
REMARK VINA RESULT:      -7.9      0.000      0.000
REMARK  Name = 
REMARK  1 active torsions:
REMARK  status: ('A' for Active; 'I' for Inactive)
REMARK    1  A    between atoms: C_2  and  C_4
REMARK                            x       y       z     vdW  Elec       q    Type
REMARK                         _______ _______ _______ _____ _____    ______ ____
ROOT
ATOM      1  C   UNL     1       6.822  -4.536  22.504  0.00  0.00    +0.261 C 
ATOM      2  O   UNL     1       7.522  -3.452  21.880  0.00  0.00    -0.479 OA
ATOM      3  C   UNL     1       8.151  -2.608  22.753  0.00  0.00    +0.127 A 
ATOM      4  C   UNL     1       8.474  -2.955  24.073  0.00  0.00    +0.029 A 
ATOM      5  C   UNL     1       9.111  -1.994  24.877  0.00  0.00    +0.048 A 
ATOM      6  C   UNL     1       9.436  -0.745  24.354  0.00  0.00    +0.124 A 
ATOM      7  C   UNL     1       9.135  -0.418  23.039  0.00  0.00    +0.042 A 
ATOM      8  F   UNL     1      10.050   0.154  25.133  0.00  0.00    -0.205 F 
ATOM      9  C   UNL     1       8.110  -4.326  24.602  0.00  0.00    +0.145 C 
ATOM     10  C   UNL     1       9.216  -4.967  25.470  0.00  0.00    +0.249 C 
ATOM     11  O   UNL     1      10.345  -5.267  25.113  0.00  0.00    -0.273 OA
ATOM     12  N   UNL     1       8.735  -5.130  26.735  0.00  0.00    -0.238 N 
ATOM     13  H   UNL     1       9.269  -5.478  27.512  0.00  0.00    +0.159 HD
ATOM     14  C   UNL     1       7.476  -4.648  26.840  0.00  0.00    +0.307 C 
ATOM     15  O   UNL     1       6.818  -4.566  27.860  0.00  0.00    -0.252 OA
ATOM     16  N   UNL     1       7.063  -4.226  25.600  0.00  0.00    -0.281 N 
ATOM     17  H   UNL     1       6.186  -3.732  25.496  0.00  0.00    +0.152 HD
ATOM     18  C   UNL     1       8.492  -1.355  22.235  0.00  0.00    +0.049 A 
ATOM     19  C   UNL     1       7.729  -5.281  23.471  0.00  0.00    +0.094 C 
ENDROOT
BRANCH   1  23
ATOM     20  N   UNL     1       6.068  -6.766  21.798  0.00  0.00    -0.326 N 
ATOM     21  H   UNL     1       6.509  -7.122  22.639  0.00  0.00    +0.145 HD
ATOM     22  H   UNL     1       5.839  -7.427  21.067  0.00  0.00    +0.145 HD
ATOM     23  C   UNL     1       6.309  -5.478  21.414  0.00  0.00    +0.251 C 
ATOM     24  O   UNL     1       6.068  -5.106  20.270  0.00  0.00    -0.272 OA
ENDBRANCH   1  23
TORSDOF 1
ENDMDL
MODEL 2
REMARK VINA RESULT:      -6.7      1.195      1.282
REMARK  Name = 
REMARK  1 active torsions:
REMARK  status: ('A' for Active; 'I' for Inactive)
REMARK    1  A    between atoms: C_2  and  C_4
REMARK                            x       y       z     vdW  Elec       q    Type
REMARK                         _______ _______ _______ _____ _____    ______ ____
ROOT
ATOM      1  C   UNL     1       6.372  -4.322  22.687  0.00  0.00    +0.261 C 
ATOM      2  O   UNL     1       7.536  -3.717  22.111  0.00  0.00    -0.479 OA
ATOM      3  C   UNL     1       8.198  -2.858  22.945  0.00  0.00    +0.127 A 
ATOM      4  C   UNL     1       8.056  -2.867  24.340  0.00  0.00    +0.029 A 
ATOM      5  C   UNL     1       8.783  -1.926  25.089  0.00  0.00    +0.048 A 
ATOM      6  C   UNL     1       9.643  -1.035  24.452  0.00  0.00    +0.124 A 
ATOM      7  C   UNL     1       9.796  -1.049  23.072  0.00  0.00    +0.042 A 
ATOM      8  F   UNL     1      10.333  -0.150  25.183  0.00  0.00    -0.205 F 
ATOM      9  C   UNL     1       7.116  -3.856  24.996  0.00  0.00    +0.145 C 
ATOM     10  C   UNL     1       7.685  -4.487  26.286  0.00  0.00    +0.249 C 
ATOM     11  O   UNL     1       8.685  -5.182  26.383  0.00  0.00    -0.273 OA
ATOM     12  N   UNL     1       6.893  -4.121  27.334  0.00  0.00    -0.238 N 
ATOM     13  H   UNL     1       7.070  -4.352  28.296  0.00  0.00    +0.159 HD
ATOM     14  C   UNL     1       5.901  -3.299  26.926  0.00  0.00    +0.307 C 
ATOM     15  O   UNL     1       5.093  -2.733  27.639  0.00  0.00    -0.252 OA
ATOM     16  N   UNL     1       5.968  -3.173  25.560  0.00  0.00    -0.281 N 
ATOM     17  H   UNL     1       5.374  -2.510  25.079  0.00  0.00    +0.152 HD
ATOM     18  C   UNL     1       9.072  -1.966  22.317  0.00  0.00    +0.049 A 
ATOM     19  C   UNL     1       6.700  -4.963  24.026  0.00  0.00    +0.094 C 
ENDROOT
BRANCH   1  23
ATOM     20  N   UNL     1       5.050  -6.348  22.251  0.00  0.00    -0.326 N 
ATOM     21  H   UNL     1       5.111  -6.536  23.245  0.00  0.00    +0.145 HD
ATOM     22  H   UNL     1       4.780  -7.107  21.640  0.00  0.00    +0.145 HD
ATOM     23  C   UNL     1       5.831  -5.367  21.709  0.00  0.00    +0.251 C 
ATOM     24  O   UNL     1       6.029  -5.315  20.500  0.00  0.00    -0.272 OA
ENDBRANCH   1  23
TORSDOF 1
ENDMDL
MODEL 3
REMARK VINA RESULT:      -6.5      2.989      4.713
REMARK  Name = 
REMARK  1 active torsions:
REMARK  status: ('A' for Active; 'I' for Inactive)
REMARK    1  A    between atoms: C_2  and  C_4
REMARK                            x       y       z     vdW  Elec       q    Type
REMARK                         _______ _______ _______ _____ _____    ______ ____
ROOT
ATOM      1  C   UNL     1       8.832  -3.259  23.984  0.00  0.00    +0.261 C 
ATOM      2  O   UNL     1       8.065  -3.455  22.790  0.00  0.00    -0.479 OA
ATOM      3  C   UNL     1       6.991  -4.289  22.939  0.00  0.00    +0.127 A 
ATOM      4  C   UNL     1       6.410  -4.593  24.177  0.00  0.00    +0.029 A 
ATOM      5  C   UNL     1       5.314  -5.474  24.200  0.00  0.00    +0.048 A 
ATOM      6  C   UNL     1       4.811  -6.000  23.014  0.00  0.00    +0.124 A 
ATOM      7  C   UNL     1       5.378  -5.675  21.789  0.00  0.00    +0.042 A 
ATOM      8  F   UNL     1       3.763  -6.832  23.055  0.00  0.00    -0.205 F 
ATOM      9  C   UNL     1       6.982  -3.996  25.446  0.00  0.00    +0.145 C 
ATOM     10  C   UNL     1       5.905  -3.524  26.448  0.00  0.00    +0.249 C 
ATOM     11  O   UNL     1       5.067  -2.653  26.266  0.00  0.00    -0.273 OA
ATOM     12  N   UNL     1       6.017  -4.263  27.587  0.00  0.00    -0.238 N 
ATOM     13  H   UNL     1       5.403  -4.195  28.379  0.00  0.00    +0.159 HD
ATOM     14  C   UNL     1       6.993  -5.191  27.467  0.00  0.00    +0.307 C 
ATOM     15  O   UNL     1       7.270  -6.057  28.276  0.00  0.00    -0.252 OA
ATOM     16  N   UNL     1       7.613  -5.021  26.253  0.00  0.00    -0.281 N 
ATOM     17  H   UNL     1       8.300  -5.692  25.933  0.00  0.00    +0.152 HD
ATOM     18  C   UNL     1       6.471  -4.814  21.752  0.00  0.00    +0.049 A 
ATOM     19  C   UNL     1       7.937  -2.842  25.141  0.00  0.00    +0.094 C 
ENDROOT
BRANCH   1  23
ATOM     20  N   UNL     1       9.889  -1.115  24.555  0.00  0.00    -0.326 N 
ATOM     21  H   UNL     1       9.052  -0.905  25.086  0.00  0.00    +0.145 HD
ATOM     22  H   UNL     1      10.507  -0.349  24.321  0.00  0.00    +0.145 HD
ATOM     23  C   UNL     1       9.893  -2.190  23.713  0.00  0.00    +0.251 C 
ATOM     24  O   UNL     1      10.741  -2.300  22.834  0.00  0.00    -0.272 OA
ENDBRANCH   1  23
TORSDOF 1
ENDMDL
MODEL 4
REMARK VINA RESULT:      -6.5      2.640      3.222
REMARK  Name = 
REMARK  1 active torsions:
REMARK  status: ('A' for Active; 'I' for Inactive)
REMARK    1  A    between atoms: C_2  and  C_4
REMARK                            x       y       z     vdW  Elec       q    Type
REMARK                         _______ _______ _______ _____ _____    ______ ____
ROOT
ATOM      1  C   UNL     1       6.898  -2.803  22.469  0.00  0.00    +0.261 C 
ATOM      2  O   UNL     1       8.124  -2.326  21.901  0.00  0.00    -0.479 OA
ATOM      3  C   UNL     1       8.526  -1.105  22.368  0.00  0.00    +0.127 A 
ATOM      4  C   UNL     1       8.073  -0.546  23.571  0.00  0.00    +0.029 A 
ATOM      5  C   UNL     1       8.553   0.723  23.938  0.00  0.00    +0.048 A 
ATOM      6  C   UNL     1       9.479   1.383  23.135  0.00  0.00    +0.124 A 
ATOM      7  C   UNL     1       9.942   0.811  21.957  0.00  0.00    +0.042 A 
ATOM      8  F   UNL     1       9.931   2.588  23.505  0.00  0.00    -0.205 F 
ATOM      9  C   UNL     1       7.070  -1.298  24.421  0.00  0.00    +0.145 C 
ATOM     10  C   UNL     1       7.368  -1.229  25.935  0.00  0.00    +0.249 C 
ATOM     11  O   UNL     1       8.361  -1.655  26.507  0.00  0.00    -0.273 OA
ATOM     12  N   UNL     1       6.339  -0.581  26.551  0.00  0.00    -0.238 N 
ATOM     13  H   UNL     1       6.307  -0.355  27.530  0.00  0.00    +0.159 HD
ATOM     14  C   UNL     1       5.417  -0.172  25.652  0.00  0.00    +0.307 C 
ATOM     15  O   UNL     1       4.436   0.510  25.883  0.00  0.00    -0.252 OA
ATOM     16  N   UNL     1       5.785  -0.626  24.408  0.00  0.00    -0.281 N 
ATOM     17  H   UNL     1       5.276  -0.328  23.586  0.00  0.00    +0.152 HD
ATOM     18  C   UNL     1       9.465  -0.439  21.574  0.00  0.00    +0.049 A 
ATOM     19  C   UNL     1       6.952  -2.760  23.989  0.00  0.00    +0.094 C 
ENDROOT
BRANCH   1  23
ATOM     20  N   UNL     1       7.387  -5.209  22.599  0.00  0.00    -0.326 N 
ATOM     21  H   UNL     1       8.236  -4.954  23.092  0.00  0.00    +0.145 HD
ATOM     22  H   UNL     1       7.324  -6.141  22.212  0.00  0.00    +0.145 HD
ATOM     23  C   UNL     1       6.658  -4.233  21.981  0.00  0.00    +0.251 C 
ATOM     24  O   UNL     1       5.823  -4.515  21.128  0.00  0.00    -0.272 OA
ENDBRANCH   1  23
TORSDOF 1
ENDMDL
MODEL 5
REMARK VINA RESULT:      -6.4      2.822      3.958
REMARK  Name = 
REMARK  1 active torsions:
REMARK  status: ('A' for Active; 'I' for Inactive)
REMARK    1  A    between atoms: C_2  and  C_4
REMARK                            x       y       z     vdW  Elec       q    Type
REMARK                         _______ _______ _______ _____ _____    ______ ____
ROOT
ATOM      1  C   UNL     1       8.528  -3.911  25.099  0.00  0.00    +0.261 C 
ATOM      2  O   UNL     1       9.606  -3.418  24.295  0.00  0.00    -0.479 OA
ATOM      3  C   UNL     1       9.441  -2.133  23.855  0.00  0.00    +0.127 A 
ATOM      4  C   UNL     1       8.561  -1.217  24.447  0.00  0.00    +0.029 A 
ATOM      5  C   UNL     1       8.473   0.074  23.895  0.00  0.00    +0.048 A 
ATOM      6  C   UNL     1       9.268   0.429  22.809  0.00  0.00    +0.124 A 
ATOM      7  C   UNL     1      10.155  -0.478  22.244  0.00  0.00    +0.042 A 
ATOM      8  F   UNL     1       9.176   1.664  22.302  0.00  0.00    -0.205 F 
ATOM      9  C   UNL     1       7.718  -1.639  25.631  0.00  0.00    +0.145 C 
ATOM     10  C   UNL     1       7.621  -0.563  26.736  0.00  0.00    +0.249 C 
ATOM     11  O   UNL     1       8.542  -0.105  27.396  0.00  0.00    -0.273 OA
ATOM     12  N   UNL     1       6.319  -0.173  26.850  0.00  0.00    -0.238 N 
ATOM     13  H   UNL     1       5.989   0.554  27.460  0.00  0.00    +0.159 HD
ATOM     14  C   UNL     1       5.543  -0.810  25.946  0.00  0.00    +0.307 C 
ATOM     15  O   UNL     1       4.361  -0.608  25.740  0.00  0.00    -0.252 OA
ATOM     16  N   UNL     1       6.318  -1.714  25.260  0.00  0.00    -0.281 N 
ATOM     17  H   UNL     1       5.938  -2.210  24.464  0.00  0.00    +0.152 HD
ATOM     18  C   UNL     1      10.243  -1.762  22.771  0.00  0.00    +0.049 A 
ATOM     19  C   UNL     1       8.217  -2.950  26.237  0.00  0.00    +0.094 C 
ENDROOT
BRANCH   1  23
ATOM     20  N   UNL     1      10.231  -5.635  25.513  0.00  0.00    -0.326 N 
ATOM     21  H   UNL     1      10.800  -5.163  24.819  0.00  0.00    +0.145 HD
ATOM     22  H   UNL     1      10.481  -6.581  25.767  0.00  0.00    +0.145 HD
ATOM     23  C   UNL     1       8.918  -5.285  25.648  0.00  0.00    +0.251 C 
ATOM     24  O   UNL     1       8.126  -6.019  26.230  0.00  0.00    -0.272 OA
ENDBRANCH   1  23
TORSDOF 1
ENDMDL
MODEL 6
REMARK VINA RESULT:      -6.4      3.233      4.935
REMARK  Name = 
REMARK  1 active torsions:
REMARK  status: ('A' for Active; 'I' for Inactive)
REMARK    1  A    between atoms: C_2  and  C_4
REMARK                            x       y       z     vdW  Elec       q    Type
REMARK                         _______ _______ _______ _____ _____    ______ ____
ROOT
ATOM      1  C   UNL     1       7.703  -1.248  22.565  0.00  0.00    +0.261 C 
ATOM      2  O   UNL     1       7.162  -0.885  23.841  0.00  0.00    -0.479 OA
ATOM      3  C   UNL     1       6.296  -1.803  24.370  0.00  0.00    +0.127 A 
ATOM      4  C   UNL     1       6.245  -3.144  23.967  0.00  0.00    +0.029 A 
ATOM      5  C   UNL     1       5.302  -3.988  24.579  0.00  0.00    +0.048 A 
ATOM      6  C   UNL     1       4.467  -3.499  25.580  0.00  0.00    +0.124 A 
ATOM      7  C   UNL     1       4.541  -2.174  25.990  0.00  0.00    +0.042 A 
ATOM      8  F   UNL     1       3.580  -4.319  26.157  0.00  0.00    -0.205 F 
ATOM      9  C   UNL     1       7.175  -3.641  22.880  0.00  0.00    +0.145 C 
ATOM     10  C   UNL     1       7.775  -5.035  23.168  0.00  0.00    +0.249 C 
ATOM     11  O   UNL     1       8.500  -5.342  24.102  0.00  0.00    -0.273 OA
ATOM     12  N   UNL     1       7.340  -5.901  22.209  0.00  0.00    -0.238 N 
ATOM     13  H   UNL     1       7.540  -6.886  22.192  0.00  0.00    +0.159 HD
ATOM     14  C   UNL     1       6.500  -5.287  21.347  0.00  0.00    +0.307 C 
ATOM     15  O   UNL     1       5.879  -5.815  20.444  0.00  0.00    -0.252 OA
ATOM     16  N   UNL     1       6.430  -3.955  21.676  0.00  0.00    -0.281 N 
ATOM     17  H   UNL     1       5.765  -3.349  21.212  0.00  0.00    +0.152 HD
ATOM     18  C   UNL     1       5.460  -1.324  25.384  0.00  0.00    +0.049 A 
ATOM     19  C   UNL     1       8.302  -2.645  22.608  0.00  0.00    +0.094 C 
ENDROOT
BRANCH   1  23
ATOM     20  N   UNL     1       9.814  -0.690  21.437  0.00  0.00    -0.326 N 
ATOM     21  H   UNL     1      10.017  -1.682  21.444  0.00  0.00    +0.145 HD
ATOM     22  H   UNL     1      10.579  -0.049  21.268  0.00  0.00    +0.145 HD
ATOM     23  C   UNL     1       8.766  -0.219  22.175  0.00  0.00    +0.251 C 
ATOM     24  O   UNL     1       8.673   0.973  22.450  0.00  0.00    -0.272 OA
ENDBRANCH   1  23
TORSDOF 1
ENDMDL
MODEL 7
REMARK VINA RESULT:      -6.4      3.494      5.451
REMARK  Name = 
REMARK  1 active torsions:
REMARK  status: ('A' for Active; 'I' for Inactive)
REMARK    1  A    between atoms: C_2  and  C_4
REMARK                            x       y       z     vdW  Elec       q    Type
REMARK                         _______ _______ _______ _____ _____    ______ ____
ROOT
ATOM      1  C   UNL     1       5.818  -1.512  24.883  0.00  0.00    +0.261 C 
ATOM      2  O   UNL     1       5.186  -2.793  24.786  0.00  0.00    -0.479 OA
ATOM      3  C   UNL     1       5.653  -3.578  23.767  0.00  0.00    +0.127 A 
ATOM      4  C   UNL     1       6.892  -3.382  23.142  0.00  0.00    +0.029 A 
ATOM      5  C   UNL     1       7.255  -4.251  22.097  0.00  0.00    +0.048 A 
ATOM      6  C   UNL     1       6.410  -5.293  21.725  0.00  0.00    +0.124 A 
ATOM      7  C   UNL     1       5.196  -5.495  22.366  0.00  0.00    +0.042 A 
ATOM      8  F   UNL     1       6.776  -6.114  20.733  0.00  0.00    -0.205 F 
ATOM      9  C   UNL     1       7.786  -2.242  23.580  0.00  0.00    +0.145 C 
ATOM     10  C   UNL     1       9.280  -2.624  23.664  0.00  0.00    +0.249 C 
ATOM     11  O   UNL     1       9.782  -3.464  24.397  0.00  0.00    -0.273 OA
ATOM     12  N   UNL     1       9.971  -1.879  22.755  0.00  0.00    -0.238 N 
ATOM     13  H   UNL     1      10.954  -1.970  22.566  0.00  0.00    +0.159 HD
ATOM     14  C   UNL     1       9.138  -1.084  22.047  0.00  0.00    +0.307 C 
ATOM     15  O   UNL     1       9.441  -0.376  21.106  0.00  0.00    -0.252 OA
ATOM     16  N   UNL     1       7.865  -1.229  22.545  0.00  0.00    -0.281 N 
ATOM     17  H   UNL     1       7.081  -0.796  22.073  0.00  0.00    +0.152 HD
ATOM     18  C   UNL     1       4.817  -4.635  23.393  0.00  0.00    +0.049 A 
ATOM     19  C   UNL     1       7.332  -1.655  24.916  0.00  0.00    +0.094 C 
ENDROOT
BRANCH   1  23
ATOM     20  N   UNL     1       6.258  -0.555  27.105  0.00  0.00    -0.326 N 
ATOM     21  H   UNL     1       7.127  -1.078  27.098  0.00  0.00    +0.145 HD
ATOM     22  H   UNL     1       5.925  -0.200  27.991  0.00  0.00    +0.145 HD
ATOM     23  C   UNL     1       5.317  -0.815  26.150  0.00  0.00    +0.251 C 
ATOM     24  O   UNL     1       4.154  -0.452  26.296  0.00  0.00    -0.272 OA
ENDBRANCH   1  23
TORSDOF 1
ENDMDL
MODEL 8
REMARK VINA RESULT:      -6.3      4.281      5.926
REMARK  Name = 
REMARK  1 active torsions:
REMARK  status: ('A' for Active; 'I' for Inactive)
REMARK    1  A    between atoms: C_2  and  C_4
REMARK                            x       y       z     vdW  Elec       q    Type
REMARK                         _______ _______ _______ _____ _____    ______ ____
ROOT
ATOM      1  C   UNL     1       9.729   1.219  24.044  0.00  0.00    +0.261 C 
ATOM      2  O   UNL     1       9.951  -0.058  23.435  0.00  0.00    -0.479 OA
ATOM      3  C   UNL     1       9.405  -1.112  24.115  0.00  0.00    +0.127 A 
ATOM      4  C   UNL     1       8.376  -0.978  25.058  0.00  0.00    +0.029 A 
ATOM      5  C   UNL     1       7.907  -2.138  25.700  0.00  0.00    +0.048 A 
ATOM      6  C   UNL     1       8.437  -3.383  25.376  0.00  0.00    +0.124 A 
ATOM      7  C   UNL     1       9.440  -3.509  24.423  0.00  0.00    +0.042 A 
ATOM      8  F   UNL     1       7.973  -4.477  25.992  0.00  0.00    -0.205 F 
ATOM      9  C   UNL     1       7.820   0.393  25.377  0.00  0.00    +0.145 C 
ATOM     10  C   UNL     1       6.282   0.418  25.524  0.00  0.00    +0.249 C 
ATOM     11  O   UNL     1       5.459   0.148  24.662  0.00  0.00    -0.273 OA
ATOM     12  N   UNL     1       5.974   0.774  26.804  0.00  0.00    -0.238 N 
ATOM     13  H   UNL     1       5.043   0.814  27.180  0.00  0.00    +0.159 HD
ATOM     14  C   UNL     1       7.093   0.948  27.541  0.00  0.00    +0.307 C 
ATOM     15  O   UNL     1       7.143   1.176  28.735  0.00  0.00    -0.252 OA
ATOM     16  N   UNL     1       8.186   0.791  26.723  0.00  0.00    -0.281 N 
ATOM     17  H   UNL     1       9.119   0.776  27.116  0.00  0.00    +0.152 HD
ATOM     18  C   UNL     1       9.924  -2.369  23.790  0.00  0.00    +0.049 A 
ATOM     19  C   UNL     1       8.252   1.430  24.340  0.00  0.00    +0.094 C 
ENDROOT
BRANCH   1  23
ATOM     20  N   UNL     1      10.026   2.103  21.770  0.00  0.00    -0.326 N 
ATOM     21  H   UNL     1       9.835   1.164  21.439  0.00  0.00    +0.145 HD
ATOM     22  H   UNL     1      10.461   2.753  21.129  0.00  0.00    +0.145 HD
ATOM     23  C   UNL     1      10.248   2.307  23.102  0.00  0.00    +0.251 C 
ATOM     24  O   UNL     1      10.783   3.336  23.501  0.00  0.00    -0.272 OA
ENDBRANCH   1  23
TORSDOF 1
ENDMDL
MODEL 9
REMARK VINA RESULT:      -6.2      3.396      4.303
REMARK  Name = 
REMARK  1 active torsions:
REMARK  status: ('A' for Active; 'I' for Inactive)
REMARK    1  A    between atoms: C_2  and  C_4
REMARK                            x       y       z     vdW  Elec       q    Type
REMARK                         _______ _______ _______ _____ _____    ______ ____
ROOT
ATOM      1  C   UNL     1       3.703  -6.711  24.879  0.00  0.00    +0.261 C 
ATOM      2  O   UNL     1       4.419  -6.923  23.656  0.00  0.00    -0.479 OA
ATOM      3  C   UNL     1       5.384  -5.988  23.396  0.00  0.00    +0.127 A 
ATOM      4  C   UNL     1       5.945  -5.159  24.377  0.00  0.00    +0.029 A 
ATOM      5  C   UNL     1       6.923  -4.229  23.983  0.00  0.00    +0.048 A 
ATOM      6  C   UNL     1       7.337  -4.166  22.655  0.00  0.00    +0.124 A 
ATOM      7  C   UNL     1       6.793  -5.008  21.694  0.00  0.00    +0.042 A 
ATOM      8  F   UNL     1       8.274  -3.279  22.299  0.00  0.00    -0.205 F 
ATOM      9  C   UNL     1       5.474  -5.263  25.812  0.00  0.00    +0.145 C 
ATOM     10  C   UNL     1       6.619  -5.182  26.847  0.00  0.00    +0.249 C 
ATOM     11  O   UNL     1       7.555  -5.959  26.966  0.00  0.00    -0.273 OA
ATOM     12  N   UNL     1       6.435  -4.069  27.612  0.00  0.00    -0.238 N 
ATOM     13  H   UNL     1       7.068  -3.752  28.325  0.00  0.00    +0.159 HD
ATOM     14  C   UNL     1       5.350  -3.375  27.203  0.00  0.00    +0.307 C 
ATOM     15  O   UNL     1       4.983  -2.294  27.625  0.00  0.00    -0.252 OA
ATOM     16  N   UNL     1       4.735  -4.076  26.194  0.00  0.00    -0.281 N 
ATOM     17  H   UNL     1       3.965  -3.664  25.683  0.00  0.00    +0.152 HD
ATOM     18  C   UNL     1       5.814  -5.924  22.067  0.00  0.00    +0.049 A 
ATOM     19  C   UNL     1       4.664  -6.538  26.046  0.00  0.00    +0.094 C 
ENDROOT
BRANCH   1  23
ATOM     20  N   UNL     1       2.289  -8.043  26.384  0.00  0.00    -0.326 N 
ATOM     21  H   UNL     1       2.766  -7.584  27.151  0.00  0.00    +0.145 HD
ATOM     22  H   UNL     1       1.770  -8.888  26.585  0.00  0.00    +0.145 HD
ATOM     23  C   UNL     1       2.779  -7.907  25.117  0.00  0.00    +0.251 C 
ATOM     24  O   UNL     1       2.440  -8.676  24.223  0.00  0.00    -0.272 OA
ENDBRANCH   1  23
TORSDOF 1
ENDMDL
