MODEL 1
REMARK VINA RESULT:      -6.5      0.000      0.000
REMARK  Name = 
REMARK  5 active torsions:
REMARK  status: ('A' for Active; 'I' for Inactive)
REMARK    1  A    between atoms: C_2  and  C_8
REMARK    2  A    between atoms: C_11  and  O_12
REMARK    3  A    between atoms: O_12  and  C_13
REMARK    4  A    between atoms: C_14  and  O_15
REMARK    5  A    between atoms: O_15  and  C_16
REMARK                            x       y       z     vdW  Elec       q    Type
REMARK                         _______ _______ _______ _____ _____    ______ ____
ROOT
ATOM      1  C   UNL     1       9.642  -0.946  24.231  0.00  0.00    -0.039 A 
ATOM      2  C   UNL     1       9.296  -2.213  23.723  0.00  0.00    +0.053 A 
ATOM      3  C   UNL     1       8.644  -3.166  24.518  0.00  0.00    +0.163 A 
ATOM      4  C   UNL     1       8.282  -2.840  25.837  0.00  0.00    +0.162 A 
ATOM      5  C   UNL     1       8.604  -1.577  26.339  0.00  0.00    +0.049 A 
ATOM      6  C   UNL     1       9.287  -0.646  25.549  0.00  0.00    +0.008 A 
ENDROOT
BRANCH   1   7
ATOM      7  C   UNL     1      10.431   0.009  23.341  0.00  0.00    +0.045 C 
ATOM      8  C   UNL     1       9.877   0.236  21.923  0.00  0.00    +0.105 C 
ATOM      9  C   UNL     1       8.959   1.421  22.103  0.00  0.00    +0.214 C 
ATOM     10  O   UNL     1       8.097   1.793  21.327  0.00  0.00    -0.276 OA
ATOM     11  N   UNL     1       9.292   2.046  23.286  0.00  0.00    -0.315 N 
ATOM     12  H   UNL     1       8.836   2.902  23.574  0.00  0.00    +0.149 HD
ATOM     13  C   UNL     1      10.416   1.426  23.924  0.00  0.00    +0.112 C 
ENDBRANCH   1   7
BRANCH   4  14
ATOM     14  O   UNL     1       7.641  -3.818  26.557  0.00  0.00    -0.491 OA
ATOM     15  C   UNL     1       6.335  -3.524  27.037  0.00  0.00    +0.277 C 
ENDBRANCH   4  14
BRANCH   3  16
ATOM     16  O   UNL     1       8.295  -4.418  24.075  0.00  0.00    -0.485 OA
BRANCH  16  17
ATOM     17  C   UNL     1       7.367  -4.505  22.999  0.00  0.00    +0.174 C 
ATOM     18  C   UNL     1       5.922  -4.577  23.499  0.00  0.00    +0.044 C 
ATOM     19  C   UNL     1       5.182  -5.502  22.531  0.00  0.00    +0.004 C 
ATOM     20  C   UNL     1       6.228  -6.003  21.542  0.00  0.00    +0.004 C 
ATOM     21  C   UNL     1       7.545  -5.842  22.280  0.00  0.00    +0.044 C 
ENDBRANCH  16  17
ENDBRANCH   3  16
TORSDOF 4
ENDMDL
MODEL 2
REMARK VINA RESULT:      -6.2      1.795      2.177
REMARK  Name = 
REMARK  5 active torsions:
REMARK  status: ('A' for Active; 'I' for Inactive)
REMARK    1  A    between atoms: C_2  and  C_8
REMARK    2  A    between atoms: C_11  and  O_12
REMARK    3  A    between atoms: O_12  and  C_13
REMARK    4  A    between atoms: C_14  and  O_15
REMARK    5  A    between atoms: O_15  and  C_16
REMARK                            x       y       z     vdW  Elec       q    Type
REMARK                         _______ _______ _______ _____ _____    ______ ____
ROOT
ATOM      1  C   UNL     1       8.571  -0.017  23.577  0.00  0.00    -0.039 A 
ATOM      2  C   UNL     1       8.165  -1.088  22.757  0.00  0.00    +0.053 A 
ATOM      3  C   UNL     1       8.547  -2.408  23.038  0.00  0.00    +0.163 A 
ATOM      4  C   UNL     1       9.310  -2.681  24.186  0.00  0.00    +0.162 A 
ATOM      5  C   UNL     1       9.697  -1.625  25.013  0.00  0.00    +0.049 A 
ATOM      6  C   UNL     1       9.343  -0.308  24.705  0.00  0.00    +0.008 A 
ENDROOT
BRANCH   1   7
ATOM      7  C   UNL     1       8.198   1.403  23.164  0.00  0.00    +0.045 C 
ATOM      8  C   UNL     1       8.929   2.541  23.897  0.00  0.00    +0.105 C 
ATOM      9  C   UNL     1      10.141   2.782  23.029  0.00  0.00    +0.214 C 
ATOM     10  O   UNL     1      11.146   3.394  23.342  0.00  0.00    -0.276 OA
ATOM     11  N   UNL     1       9.900   2.223  21.792  0.00  0.00    -0.315 N 
ATOM     12  H   UNL     1      10.563   2.319  21.034  0.00  0.00    +0.149 HD
ATOM     13  C   UNL     1       8.585   1.660  21.703  0.00  0.00    +0.112 C 
ENDBRANCH   1   7
BRANCH   4  14
ATOM     14  O   UNL     1       9.643  -3.995  24.402  0.00  0.00    -0.491 OA
ATOM     15  C   UNL     1       9.234  -4.577  25.634  0.00  0.00    +0.277 C 
ENDBRANCH   4  14
BRANCH   3  16
ATOM     16  O   UNL     1       8.187  -3.485  22.265  0.00  0.00    -0.485 OA
BRANCH  16  17
ATOM     17  C   UNL     1       6.811  -3.844  22.228  0.00  0.00    +0.174 C 
ATOM     18  C   UNL     1       6.197  -3.890  23.630  0.00  0.00    +0.044 C 
ATOM     19  C   UNL     1       5.183  -5.035  23.614  0.00  0.00    +0.004 C 
ATOM     20  C   UNL     1       5.285  -5.671  22.233  0.00  0.00    +0.004 C 
ATOM     21  C   UNL     1       6.673  -5.288  21.750  0.00  0.00    +0.044 C 
ENDBRANCH  16  17
ENDBRANCH   3  16
TORSDOF 4
ENDMDL
MODEL 3
REMARK VINA RESULT:      -6.2      2.432      5.810
REMARK  Name = 
REMARK  5 active torsions:
REMARK  status: ('A' for Active; 'I' for Inactive)
REMARK    1  A    between atoms: C_2  and  C_8
REMARK    2  A    between atoms: C_11  and  O_12
REMARK    3  A    between atoms: O_12  and  C_13
REMARK    4  A    between atoms: C_14  and  O_15
REMARK    5  A    between atoms: O_15  and  C_16
REMARK                            x       y       z     vdW  Elec       q    Type
REMARK                         _______ _______ _______ _____ _____    ______ ____
ROOT
ATOM      1  C   UNL     1       7.698  -4.068  24.360  0.00  0.00    -0.039 A 
ATOM      2  C   UNL     1       8.640  -3.099  23.962  0.00  0.00    +0.053 A 
ATOM      3  C   UNL     1       9.002  -2.042  24.810  0.00  0.00    +0.163 A 
ATOM      4  C   UNL     1       8.455  -1.968  26.102  0.00  0.00    +0.162 A 
ATOM      5  C   UNL     1       7.536  -2.938  26.509  0.00  0.00    +0.049 A 
ATOM      6  C   UNL     1       7.153  -3.968  25.643  0.00  0.00    +0.008 A 
ENDROOT
BRANCH   1   7
ATOM      7  C   UNL     1       7.281  -5.138  23.356  0.00  0.00    +0.045 C 
ATOM      8  C   UNL     1       5.884  -5.752  23.555  0.00  0.00    +0.105 C 
ATOM      9  C   UNL     1       4.998  -4.856  22.721  0.00  0.00    +0.214 C 
ATOM     10  O   UNL     1       3.784  -4.780  22.781  0.00  0.00    -0.276 OA
ATOM     11  N   UNL     1       5.799  -4.162  21.840  0.00  0.00    -0.315 N 
ATOM     12  H   UNL     1       5.402  -3.543  21.145  0.00  0.00    +0.149 HD
ATOM     13  C   UNL     1       7.176  -4.545  21.947  0.00  0.00    +0.112 C 
ENDBRANCH   1   7
BRANCH   4  14
ATOM     14  O   UNL     1       8.857  -0.911  26.880  0.00  0.00    -0.491 OA
ATOM     15  C   UNL     1       7.848  -0.029  27.354  0.00  0.00    +0.277 C 
ENDBRANCH   4  14
BRANCH   3  16
ATOM     16  O   UNL     1       9.906  -1.066  24.466  0.00  0.00    -0.485 OA
BRANCH  16  17
ATOM     17  C   UNL     1       9.406   0.102  23.826  0.00  0.00    +0.174 C 
ATOM     18  C   UNL     1       9.765   0.132  22.337  0.00  0.00    +0.044 C 
ATOM     19  C   UNL     1      10.023   1.600  21.990  0.00  0.00    +0.004 C 
ATOM     20  C   UNL     1       9.883   2.374  23.296  0.00  0.00    +0.004 C 
ATOM     21  C   UNL     1      10.129   1.332  24.373  0.00  0.00    +0.044 C 
ENDBRANCH  16  17
ENDBRANCH   3  16
TORSDOF 4
ENDMDL
MODEL 4
REMARK VINA RESULT:      -5.8      2.933      6.303
REMARK  Name = 
REMARK  5 active torsions:
REMARK  status: ('A' for Active; 'I' for Inactive)
REMARK    1  A    between atoms: C_2  and  C_8
REMARK    2  A    between atoms: C_11  and  O_12
REMARK    3  A    between atoms: O_12  and  C_13
REMARK    4  A    between atoms: C_14  and  O_15
REMARK    5  A    between atoms: O_15  and  C_16
REMARK                            x       y       z     vdW  Elec       q    Type
REMARK                         _______ _______ _______ _____ _____    ______ ____
ROOT
ATOM      1  C   UNL     1       7.560  -2.863  23.462  0.00  0.00    -0.039 A 
ATOM      2  C   UNL     1       7.363  -1.625  22.819  0.00  0.00    +0.053 A 
ATOM      3  C   UNL     1       8.382  -0.663  22.762  0.00  0.00    +0.163 A 
ATOM      4  C   UNL     1       9.643  -0.951  23.312  0.00  0.00    +0.162 A 
ATOM      5  C   UNL     1       9.849  -2.185  23.931  0.00  0.00    +0.049 A 
ATOM      6  C   UNL     1       8.816  -3.125  24.016  0.00  0.00    +0.008 A 
ENDROOT
BRANCH   1   7
ATOM      7  C   UNL     1       6.383  -3.827  23.568  0.00  0.00    +0.045 C 
ATOM      8  C   UNL     1       5.500  -3.967  22.316  0.00  0.00    +0.105 C 
ATOM      9  C   UNL     1       6.152  -5.104  21.565  0.00  0.00    +0.214 C 
ATOM     10  O   UNL     1       5.974  -5.395  20.396  0.00  0.00    -0.276 OA
ATOM     11  N   UNL     1       6.959  -5.791  22.446  0.00  0.00    -0.315 N 
ATOM     12  H   UNL     1       7.449  -6.630  22.163  0.00  0.00    +0.149 HD
ATOM     13  C   UNL     1       6.878  -5.263  23.776  0.00  0.00    +0.112 C 
ENDBRANCH   1   7
BRANCH   4  14
ATOM     14  O   UNL     1      10.594   0.034  23.215  0.00  0.00    -0.491 OA
ATOM     15  C   UNL     1      10.983   0.684  24.418  0.00  0.00    +0.277 C 
ENDBRANCH   4  14
BRANCH   3  16
ATOM     16  O   UNL     1       8.238   0.563  22.158  0.00  0.00    -0.485 OA
BRANCH  16  17
ATOM     17  C   UNL     1       7.185   1.405  22.613  0.00  0.00    +0.174 C 
ATOM     18  C   UNL     1       7.157   2.737  21.859  0.00  0.00    +0.044 C 
ATOM     19  C   UNL     1       6.725   3.794  22.876  0.00  0.00    +0.004 C 
ATOM     20  C   UNL     1       6.587   3.067  24.209  0.00  0.00    +0.004 C 
ATOM     21  C   UNL     1       7.462   1.836  24.052  0.00  0.00    +0.044 C 
ENDBRANCH  16  17
ENDBRANCH   3  16
TORSDOF 4
ENDMDL
MODEL 5
REMARK VINA RESULT:      -5.8      2.988      6.022
REMARK  Name = 
REMARK  5 active torsions:
REMARK  status: ('A' for Active; 'I' for Inactive)
REMARK    1  A    between atoms: C_2  and  C_8
REMARK    2  A    between atoms: C_11  and  O_12
REMARK    3  A    between atoms: O_12  and  C_13
REMARK    4  A    between atoms: C_14  and  O_15
REMARK    5  A    between atoms: O_15  and  C_16
REMARK                            x       y       z     vdW  Elec       q    Type
REMARK                         _______ _______ _______ _____ _____    ______ ____
ROOT
ATOM      1  C   UNL     1       6.421  -3.315  24.831  0.00  0.00    -0.039 A 
ATOM      2  C   UNL     1       6.917  -2.411  23.871  0.00  0.00    +0.053 A 
ATOM      3  C   UNL     1       6.527  -1.064  23.868  0.00  0.00    +0.163 A 
ATOM      4  C   UNL     1       5.662  -0.587  24.868  0.00  0.00    +0.162 A 
ATOM      5  C   UNL     1       5.185  -1.475  25.834  0.00  0.00    +0.049 A 
ATOM      6  C   UNL     1       5.550  -2.826  25.808  0.00  0.00    +0.008 A 
ENDROOT
BRANCH   1   7
ATOM      7  C   UNL     1       6.813  -4.785  24.722  0.00  0.00    +0.045 C 
ATOM      8  C   UNL     1       8.141  -5.086  24.005  0.00  0.00    +0.105 C 
ATOM      9  C   UNL     1       9.147  -5.069  25.132  0.00  0.00    +0.214 C 
ATOM     10  O   UNL     1      10.357  -4.987  25.020  0.00  0.00    -0.276 OA
ATOM     11  N   UNL     1       8.462  -5.208  26.320  0.00  0.00    -0.315 N 
ATOM     12  H   UNL     1       8.951  -5.280  27.203  0.00  0.00    +0.149 HD
ATOM     13  C   UNL     1       7.055  -5.383  26.113  0.00  0.00    +0.112 C 
ENDBRANCH   1   7
BRANCH   4  14
ATOM     14  O   UNL     1       5.327   0.742  24.808  0.00  0.00    -0.491 OA
ATOM     15  C   UNL     1       4.763   1.326  25.975  0.00  0.00    +0.277 C 
ENDBRANCH   4  14
BRANCH   3  16
ATOM     16  O   UNL     1       6.971  -0.145  22.949  0.00  0.00    -0.485 OA
BRANCH  16  17
ATOM     17  C   UNL     1       8.375   0.069  22.852  0.00  0.00    +0.174 C 
ATOM     18  C   UNL     1       8.921   0.820  24.069  0.00  0.00    +0.044 C 
ATOM     19  C   UNL     1      10.034   1.729  23.545  0.00  0.00    +0.004 C 
ATOM     20  C   UNL     1      10.057   1.541  22.032  0.00  0.00    +0.004 C 
ATOM     21  C   UNL     1       8.666   1.032  21.701  0.00  0.00    +0.044 C 
ENDBRANCH  16  17
ENDBRANCH   3  16
TORSDOF 4
ENDMDL
MODEL 6
REMARK VINA RESULT:      -5.6      3.089      6.643
REMARK  Name = 
REMARK  5 active torsions:
REMARK  status: ('A' for Active; 'I' for Inactive)
REMARK    1  A    between atoms: C_2  and  C_8
REMARK    2  A    between atoms: C_11  and  O_12
REMARK    3  A    between atoms: O_12  and  C_13
REMARK    4  A    between atoms: C_14  and  O_15
REMARK    5  A    between atoms: O_15  and  C_16
REMARK                            x       y       z     vdW  Elec       q    Type
REMARK                         _______ _______ _______ _____ _____    ______ ____
ROOT
ATOM      1  C   UNL     1       6.161  -4.302  25.357  0.00  0.00    -0.039 A 
ATOM      2  C   UNL     1       6.716  -3.337  24.494  0.00  0.00    +0.053 A 
ATOM      3  C   UNL     1       6.607  -3.455  23.101  0.00  0.00    +0.163 A 
ATOM      4  C   UNL     1       5.889  -4.529  22.548  0.00  0.00    +0.162 A 
ATOM      5  C   UNL     1       5.319  -5.477  23.401  0.00  0.00    +0.049 A 
ATOM      6  C   UNL     1       5.464  -5.371  24.788  0.00  0.00    +0.008 A 
ENDROOT
BRANCH   1   7
ATOM      7  C   UNL     1       6.395  -4.162  26.858  0.00  0.00    +0.045 C 
ATOM      8  C   UNL     1       5.445  -4.955  27.773  0.00  0.00    +0.105 C 
ATOM      9  C   UNL     1       6.163  -6.272  27.949  0.00  0.00    +0.214 C 
ATOM     10  O   UNL     1       5.680  -7.310  28.364  0.00  0.00    -0.276 OA
ATOM     11  N   UNL     1       7.483  -6.090  27.598  0.00  0.00    -0.315 N 
ATOM     12  H   UNL     1       8.160  -6.836  27.696  0.00  0.00    +0.149 HD
ATOM     13  C   UNL     1       7.764  -4.729  27.246  0.00  0.00    +0.112 C 
ENDBRANCH   1   7
BRANCH   4  14
ATOM     14  O   UNL     1       5.817  -4.580  21.179  0.00  0.00    -0.491 OA
ATOM     15  C   UNL     1       6.128  -5.819  20.554  0.00  0.00    +0.277 C 
ENDBRANCH   4  14
BRANCH   3  16
ATOM     16  O   UNL     1       7.139  -2.549  22.216  0.00  0.00    -0.485 OA
BRANCH  16  17
ATOM     17  C   UNL     1       8.068  -1.597  22.722  0.00  0.00    +0.174 C 
ATOM     18  C   UNL     1       7.471  -0.188  22.766  0.00  0.00    +0.044 C 
ATOM     19  C   UNL     1       8.616   0.771  22.434  0.00  0.00    +0.004 C 
ATOM     20  C   UNL     1       9.827  -0.105  22.131  0.00  0.00    +0.004 C 
ATOM     21  C   UNL     1       9.227  -1.444  21.738  0.00  0.00    +0.044 C 
ENDBRANCH  16  17
ENDBRANCH   3  16
TORSDOF 4
ENDMDL
MODEL 7
REMARK VINA RESULT:      -5.5      2.710      6.065
REMARK  Name = 
REMARK  5 active torsions:
REMARK  status: ('A' for Active; 'I' for Inactive)
REMARK    1  A    between atoms: C_2  and  C_8
REMARK    2  A    between atoms: C_11  and  O_12
REMARK    3  A    between atoms: O_12  and  C_13
REMARK    4  A    between atoms: C_14  and  O_15
REMARK    5  A    between atoms: O_15  and  C_16
REMARK                            x       y       z     vdW  Elec       q    Type
REMARK                         _______ _______ _______ _____ _____    ______ ____
ROOT
ATOM      1  C   UNL     1       6.091  -2.869  23.876  0.00  0.00    -0.039 A 
ATOM      2  C   UNL     1       7.297  -2.209  23.571  0.00  0.00    +0.053 A 
ATOM      3  C   UNL     1       8.077  -1.614  24.572  0.00  0.00    +0.163 A 
ATOM      4  C   UNL     1       7.679  -1.714  25.917  0.00  0.00    +0.162 A 
ATOM      5  C   UNL     1       6.494  -2.385  26.226  0.00  0.00    +0.049 A 
ATOM      6  C   UNL     1       5.703  -2.945  25.217  0.00  0.00    +0.008 A 
ENDROOT
BRANCH   1   7
ATOM      7  C   UNL     1       5.245  -3.415  22.731  0.00  0.00    +0.045 C 
ATOM      8  C   UNL     1       6.006  -4.128  21.600  0.00  0.00    +0.105 C 
ATOM      9  C   UNL     1       6.023  -5.568  22.057  0.00  0.00    +0.214 C 
ATOM     10  O   UNL     1       6.741  -6.454  21.630  0.00  0.00    -0.276 OA
ATOM     11  N   UNL     1       5.049  -5.723  23.019  0.00  0.00    -0.315 N 
ATOM     12  H   UNL     1       4.849  -6.629  23.422  0.00  0.00    +0.149 HD
ATOM     13  C   UNL     1       4.304  -4.516  23.232  0.00  0.00    +0.112 C 
ENDBRANCH   1   7
BRANCH   4  14
ATOM     14  O   UNL     1       8.492  -1.113  26.844  0.00  0.00    -0.491 OA
ATOM     15  C   UNL     1       7.956  -0.010  27.564  0.00  0.00    +0.277 C 
ENDBRANCH   4  14
BRANCH   3  16
ATOM     16  O   UNL     1       9.254  -0.949  24.327  0.00  0.00    -0.485 OA
BRANCH  16  17
ATOM     17  C   UNL     1       9.172   0.391  23.855  0.00  0.00    +0.174 C 
ATOM     18  C   UNL     1       9.412   0.478  22.345  0.00  0.00    +0.044 C 
ATOM     19  C   UNL     1      10.163   1.789  22.108  0.00  0.00    +0.004 C 
ATOM     20  C   UNL     1      10.407   2.393  23.487  0.00  0.00    +0.004 C 
ATOM     21  C   UNL     1      10.330   1.205  24.430  0.00  0.00    +0.044 C 
ENDBRANCH  16  17
ENDBRANCH   3  16
TORSDOF 4
ENDMDL
MODEL 8
REMARK VINA RESULT:      -5.5      3.669      7.787
REMARK  Name = 
REMARK  5 active torsions:
REMARK  status: ('A' for Active; 'I' for Inactive)
REMARK    1  A    between atoms: C_2  and  C_8
REMARK    2  A    between atoms: C_11  and  O_12
REMARK    3  A    between atoms: O_12  and  C_13
REMARK    4  A    between atoms: C_14  and  O_15
REMARK    5  A    between atoms: O_15  and  C_16
REMARK                            x       y       z     vdW  Elec       q    Type
REMARK                         _______ _______ _______ _____ _____    ______ ____
ROOT
ATOM      1  C   UNL     1       8.944   1.326  22.584  0.00  0.00    -0.039 A 
ATOM      2  C   UNL     1       7.955   2.268  22.928  0.00  0.00    +0.053 A 
ATOM      3  C   UNL     1       8.287   3.483  23.545  0.00  0.00    +0.163 A 
ATOM      4  C   UNL     1       9.637   3.795  23.785  0.00  0.00    +0.162 A 
ATOM      5  C   UNL     1      10.622   2.873  23.427  0.00  0.00    +0.049 A 
ATOM      6  C   UNL     1      10.279   1.648  22.845  0.00  0.00    +0.008 A 
ENDROOT
BRANCH   1   7
ATOM      7  C   UNL     1       8.507  -0.013  21.999  0.00  0.00    +0.045 C 
ATOM      8  C   UNL     1       9.613  -1.063  21.798  0.00  0.00    +0.105 C 
ATOM      9  C   UNL     1       9.607  -1.818  23.107  0.00  0.00    +0.214 C 
ATOM     10  O   UNL     1      10.483  -2.557  23.520  0.00  0.00    -0.276 OA
ATOM     11  N   UNL     1       8.412  -1.561  23.743  0.00  0.00    -0.315 N 
ATOM     12  H   UNL     1       8.174  -2.015  24.616  0.00  0.00    +0.149 HD
ATOM     13  C   UNL     1       7.549  -0.732  22.955  0.00  0.00    +0.112 C 
ENDBRANCH   1   7
BRANCH   4  14
ATOM     14  O   UNL     1       9.890   5.002  24.387  0.00  0.00    -0.491 OA
ATOM     15  C   UNL     1      10.659   5.947  23.654  0.00  0.00    +0.277 C 
ENDBRANCH   4  14
BRANCH   3  16
ATOM     16  O   UNL     1       7.362   4.430  23.910  0.00  0.00    -0.485 OA
BRANCH  16  17
ATOM     17  C   UNL     1       6.562   5.005  22.883  0.00  0.00    +0.174 C 
ATOM     18  C   UNL     1       7.364   5.983  22.020  0.00  0.00    +0.044 C 
ATOM     19  C   UNL     1       6.398   7.107  21.641  0.00  0.00    +0.004 C 
ATOM     20  C   UNL     1       5.086   6.796  22.353  0.00  0.00    +0.004 C 
ATOM     21  C   UNL     1       5.495   5.901  23.509  0.00  0.00    +0.044 C 
ENDBRANCH  16  17
ENDBRANCH   3  16
TORSDOF 4
ENDMDL
MODEL 9
REMARK VINA RESULT:      -5.5      1.723      3.477
REMARK  Name = 
REMARK  5 active torsions:
REMARK  status: ('A' for Active; 'I' for Inactive)
REMARK    1  A    between atoms: C_2  and  C_8
REMARK    2  A    between atoms: C_11  and  O_12
REMARK    3  A    between atoms: O_12  and  C_13
REMARK    4  A    between atoms: C_14  and  O_15
REMARK    5  A    between atoms: O_15  and  C_16
REMARK                            x       y       z     vdW  Elec       q    Type
REMARK                         _______ _______ _______ _____ _____    ______ ____
ROOT
ATOM      1  C   UNL     1       8.977  -2.005  23.828  0.00  0.00    -0.039 A 
ATOM      2  C   UNL     1       8.674  -3.152  24.587  0.00  0.00    +0.053 A 
ATOM      3  C   UNL     1       7.732  -4.092  24.145  0.00  0.00    +0.163 A 
ATOM      4  C   UNL     1       7.108  -3.917  22.897  0.00  0.00    +0.162 A 
ATOM      5  C   UNL     1       7.422  -2.793  22.131  0.00  0.00    +0.049 A 
ATOM      6  C   UNL     1       8.336  -1.841  22.597  0.00  0.00    +0.008 A 
ENDROOT
BRANCH   1   7
ATOM      7  C   UNL     1       9.943  -0.977  24.409  0.00  0.00    +0.045 C 
ATOM      8  C   UNL     1      10.456   0.102  23.439  0.00  0.00    +0.105 C 
ATOM      9  C   UNL     1       9.441   1.209  23.594  0.00  0.00    +0.214 C 
ATOM     10  O   UNL     1       9.274   2.149  22.838  0.00  0.00    -0.276 OA
ATOM     11  N   UNL     1       8.755   1.000  24.771  0.00  0.00    -0.315 N 
ATOM     12  H   UNL     1       8.062   1.660  25.100  0.00  0.00    +0.149 HD
ATOM     13  C   UNL     1       9.251  -0.137  25.489  0.00  0.00    +0.112 C 
ENDBRANCH   1   7
BRANCH   4  14
ATOM     14  O   UNL     1       6.202  -4.878  22.524  0.00  0.00    -0.491 OA
ATOM     15  C   UNL     1       6.539  -5.696  21.411  0.00  0.00    +0.277 C 
ENDBRANCH   4  14
BRANCH   3  16
ATOM     16  O   UNL     1       7.391  -5.219  24.851  0.00  0.00    -0.485 OA
BRANCH  16  17
ATOM     17  C   UNL     1       6.537  -5.062  25.979  0.00  0.00    +0.174 C 
ATOM     18  C   UNL     1       7.275  -5.331  27.293  0.00  0.00    +0.044 C 
ATOM     19  C   UNL     1       6.261  -6.001  28.222  0.00  0.00    +0.004 C 
ATOM     20  C   UNL     1       4.986  -6.172  27.403  0.00  0.00    +0.004 C 
ATOM     21  C   UNL     1       5.465  -6.150  25.962  0.00  0.00    +0.044 C 
ENDBRANCH  16  17
ENDBRANCH   3  16
TORSDOF 4
ENDMDL
