MODEL 1
REMARK VINA RESULT:      -5.1      0.000      0.000
REMARK  Name = 
REMARK  22 active torsions:
REMARK  status: ('A' for Active; 'I' for Inactive)
REMARK    1  A    between atoms: C_1  and  C_2
REMARK    2  A    between atoms: C_2  and  C_3
REMARK    3  A    between atoms: C_3  and  C_4
REMARK    4  A    between atoms: C_4  and  C_5
REMARK    5  A    between atoms: C_5  and  C_6
REMARK    6  A    between atoms: C_6  and  C_7
REMARK    7  A    between atoms: C_7  and  C_8
REMARK    8  A    between atoms: C_8  and  C_9
REMARK    9  A    between atoms: C_10  and  C_11
REMARK   10  A    between atoms: C_11  and  C_12
REMARK   11  A    between atoms: C_12  and  C_13
REMARK   12  A    between atoms: C_13  and  C_14
REMARK   13  A    between atoms: C_14  and  C_15
REMARK   14  A    between atoms: C_15  and  C_16
REMARK   15  A    between atoms: C_16  and  C_17
REMARK   16  A    between atoms: C_17  and  C_18
REMARK   17  A    between atoms: C_18  and  O_19
REMARK   18  A    between atoms: O_19  and  C_20
REMARK   19  A    between atoms: C_20  and  C_22
REMARK   20  A    between atoms: C_22  and  O_24
REMARK   21  A    between atoms: C_22  and  C_25
REMARK   22  A    between atoms: C_25  and  O_26
REMARK                            x       y       z     vdW  Elec       q    Type
REMARK                         _______ _______ _______ _____ _____    ______ ____
ROOT
ATOM      1  C   UNL     1      10.519   2.270  22.373  0.00  0.00    +0.000 C 
ENDROOT
BRANCH   1   2
ATOM      2  C   UNL     1      10.198   0.854  22.853  0.00  0.00    +0.000 C 
BRANCH   2   3
ATOM      3  C   UNL     1       9.714  -0.059  21.723  0.00  0.00    +0.003 C 
BRANCH   3   4
ATOM      4  C   UNL     1       9.821  -1.539  22.080  0.00  0.00    +0.041 C 
BRANCH   4   5
ATOM      5  C   UNL     1       9.638  -1.789  23.573  0.00  0.00    +0.232 C 
BRANCH   5   6
ATOM      6  O   UNL     1       9.844  -3.186  23.851  0.00  0.00    -0.463 OA
BRANCH   6   7
ATOM      7  C   UNL     1       8.741  -3.851  24.308  0.00  0.00    +0.338 C 
ATOM      8  O   UNL     1       7.580  -3.567  24.026  0.00  0.00    -0.248 OA
BRANCH   7   9
ATOM      9  C   UNL     1       9.155  -5.055  25.155  0.00  0.00    +0.248 C 
BRANCH   9  10
ATOM     10  O   UNL     1      10.555  -5.321  25.088  0.00  0.00    -0.379 OA
ATOM     11  H   UNL     1      11.002  -4.500  25.365  0.00  0.00    +0.211 HD
ENDBRANCH   9  10
BRANCH   9  12
ATOM     12  C   UNL     1       8.760  -4.795  26.609  0.00  0.00    +0.198 C 
BRANCH  12  13
ATOM     13  O   UNL     1       7.967  -5.854  27.147  0.00  0.00    -0.392 OA
ATOM     14  H   UNL     1       8.563  -6.407  27.690  0.00  0.00    +0.210 HD
ENDBRANCH  12  13
ENDBRANCH   9  12
ENDBRANCH   7   9
ENDBRANCH   6   7
ENDBRANCH   5   6
ENDBRANCH   4   5
ENDBRANCH   3   4
ENDBRANCH   2   3
ENDBRANCH   1   2
BRANCH   1  15
ATOM     15  C   UNL     1      10.664   3.240  23.540  0.00  0.00    +0.000 C 
BRANCH  15  16
ATOM     16  C   UNL     1      11.804   4.222  23.276  0.00  0.00    +0.004 C 
BRANCH  16  17
ATOM     17  C   UNL     1      11.361   5.653  23.557  0.00  0.00    +0.027 C 
BRANCH  17  19
ATOM     18  C   UNL     1       9.018   6.493  23.310  0.00  0.00    -0.031 C 
ATOM     19  C   UNL     1       9.907   5.693  23.918  0.00  0.00    -0.031 C 
BRANCH  18  20
ATOM     20  C   UNL     1       7.562   6.528  23.657  0.00  0.00    +0.027 C 
BRANCH  20  21
ATOM     21  C   UNL     1       6.724   5.950  22.519  0.00  0.00    +0.004 C 
BRANCH  21  22
ATOM     22  C   UNL     1       6.302   4.516  22.828  0.00  0.00    +0.000 C 
BRANCH  22  23
ATOM     23  C   UNL     1       7.117   3.516  22.013  0.00  0.00    +0.000 C 
BRANCH  23  24
ATOM     24  C   UNL     1       6.723   2.082  22.355  0.00  0.00    -0.000 C 
BRANCH  24  25
ATOM     25  C   UNL     1       6.240   1.977  23.800  0.00  0.00    -0.000 C 
BRANCH  25  27
ATOM     26  C   UNL     1       7.837   1.242  25.597  0.00  0.00    +0.004 C 
ATOM     27  C   UNL     1       6.878   0.786  24.511  0.00  0.00    -0.003 C 
ENDBRANCH  25  27
ENDBRANCH  24  25
ENDBRANCH  23  24
ENDBRANCH  22  23
ENDBRANCH  21  22
ENDBRANCH  20  21
ENDBRANCH  18  20
ENDBRANCH  17  19
ENDBRANCH  16  17
ENDBRANCH  15  16
ENDBRANCH   1  15
TORSDOF 21
ENDMDL
MODEL 2
REMARK VINA RESULT:      -4.9      1.510      3.803
REMARK  Name = 
REMARK  22 active torsions:
REMARK  status: ('A' for Active; 'I' for Inactive)
REMARK    1  A    between atoms: C_1  and  C_2
REMARK    2  A    between atoms: C_2  and  C_3
REMARK    3  A    between atoms: C_3  and  C_4
REMARK    4  A    between atoms: C_4  and  C_5
REMARK    5  A    between atoms: C_5  and  C_6
REMARK    6  A    between atoms: C_6  and  C_7
REMARK    7  A    between atoms: C_7  and  C_8
REMARK    8  A    between atoms: C_8  and  C_9
REMARK    9  A    between atoms: C_10  and  C_11
REMARK   10  A    between atoms: C_11  and  C_12
REMARK   11  A    between atoms: C_12  and  C_13
REMARK   12  A    between atoms: C_13  and  C_14
REMARK   13  A    between atoms: C_14  and  C_15
REMARK   14  A    between atoms: C_15  and  C_16
REMARK   15  A    between atoms: C_16  and  C_17
REMARK   16  A    between atoms: C_17  and  C_18
REMARK   17  A    between atoms: C_18  and  O_19
REMARK   18  A    between atoms: O_19  and  C_20
REMARK   19  A    between atoms: C_20  and  C_22
REMARK   20  A    between atoms: C_22  and  O_24
REMARK   21  A    between atoms: C_22  and  C_25
REMARK   22  A    between atoms: C_25  and  O_26
REMARK                            x       y       z     vdW  Elec       q    Type
REMARK                         _______ _______ _______ _____ _____    ______ ____
ROOT
ATOM      1  C   UNL     1       9.632   1.265  24.465  0.00  0.00    +0.000 C 
ENDROOT
BRANCH   1   2
ATOM      2  C   UNL     1      10.456  -0.003  24.695  0.00  0.00    +0.000 C 
BRANCH   2   3
ATOM      3  C   UNL     1       9.694  -1.279  24.323  0.00  0.00    +0.003 C 
BRANCH   3   4
ATOM      4  C   UNL     1       8.362  -1.400  25.058  0.00  0.00    +0.041 C 
BRANCH   4   5
ATOM      5  C   UNL     1       8.493  -2.158  26.374  0.00  0.00    +0.232 C 
BRANCH   5   6
ATOM      6  O   UNL     1       7.548  -3.242  26.396  0.00  0.00    -0.463 OA
BRANCH   6   7
ATOM      7  C   UNL     1       8.098  -4.483  26.566  0.00  0.00    +0.338 C 
ATOM      8  O   UNL     1       7.801  -5.268  27.461  0.00  0.00    -0.248 OA
BRANCH   7   9
ATOM      9  C   UNL     1       9.078  -4.793  25.433  0.00  0.00    +0.248 C 
BRANCH   9  10
ATOM     10  O   UNL     1       9.926  -5.902  25.727  0.00  0.00    -0.379 OA
ATOM     11  H   UNL     1       9.774  -6.557  25.020  0.00  0.00    +0.211 HD
ENDBRANCH   9  10
BRANCH   9  12
ATOM     12  C   UNL     1       8.283  -5.089  24.161  0.00  0.00    +0.198 C 
BRANCH  12  13
ATOM     13  O   UNL     1       6.895  -5.291  24.430  0.00  0.00    -0.392 OA
ATOM     14  H   UNL     1       6.671  -4.732  25.201  0.00  0.00    +0.210 HD
ENDBRANCH  12  13
ENDBRANCH   9  12
ENDBRANCH   7   9
ENDBRANCH   6   7
ENDBRANCH   5   6
ENDBRANCH   4   5
ENDBRANCH   3   4
ENDBRANCH   2   3
ENDBRANCH   1   2
BRANCH   1  15
ATOM     15  C   UNL     1      10.321   2.213  23.489  0.00  0.00    +0.000 C 
BRANCH  15  16
ATOM     16  C   UNL     1       9.573   2.242  22.158  0.00  0.00    +0.004 C 
BRANCH  16  17
ATOM     17  C   UNL     1       8.186   1.627  22.305  0.00  0.00    +0.027 C 
BRANCH  17  19
ATOM     18  C   UNL     1       7.440   4.006  22.492  0.00  0.00    -0.031 C 
ATOM     19  C   UNL     1       7.147   2.698  22.442  0.00  0.00    -0.031 C 
BRANCH  18  20
ATOM     20  C   UNL     1       6.405   5.082  22.617  0.00  0.00    +0.027 C 
BRANCH  20  21
ATOM     21  C   UNL     1       7.023   6.454  22.359  0.00  0.00    +0.004 C 
BRANCH  21  22
ATOM     22  C   UNL     1       8.491   6.475  22.775  0.00  0.00    +0.000 C 
BRANCH  22  23
ATOM     23  C   UNL     1       8.653   7.012  24.194  0.00  0.00    +0.000 C 
BRANCH  23  24
ATOM     24  C   UNL     1       9.908   6.445  24.853  0.00  0.00    -0.000 C 
BRANCH  24  25
ATOM     25  C   UNL     1      10.741   5.650  23.850  0.00  0.00    -0.000 C 
BRANCH  25  27
ATOM     26  C   UNL     1      13.072   5.086  23.095  0.00  0.00    +0.004 C 
ATOM     27  C   UNL     1      12.223   6.002  23.960  0.00  0.00    -0.003 C 
ENDBRANCH  25  27
ENDBRANCH  24  25
ENDBRANCH  23  24
ENDBRANCH  22  23
ENDBRANCH  21  22
ENDBRANCH  20  21
ENDBRANCH  18  20
ENDBRANCH  17  19
ENDBRANCH  16  17
ENDBRANCH  15  16
ENDBRANCH   1  15
TORSDOF 21
ENDMDL
MODEL 3
REMARK VINA RESULT:      -4.9      1.303      3.303
REMARK  Name = 
REMARK  22 active torsions:
REMARK  status: ('A' for Active; 'I' for Inactive)
REMARK    1  A    between atoms: C_1  and  C_2
REMARK    2  A    between atoms: C_2  and  C_3
REMARK    3  A    between atoms: C_3  and  C_4
REMARK    4  A    between atoms: C_4  and  C_5
REMARK    5  A    between atoms: C_5  and  C_6
REMARK    6  A    between atoms: C_6  and  C_7
REMARK    7  A    between atoms: C_7  and  C_8
REMARK    8  A    between atoms: C_8  and  C_9
REMARK    9  A    between atoms: C_10  and  C_11
REMARK   10  A    between atoms: C_11  and  C_12
REMARK   11  A    between atoms: C_12  and  C_13
REMARK   12  A    between atoms: C_13  and  C_14
REMARK   13  A    between atoms: C_14  and  C_15
REMARK   14  A    between atoms: C_15  and  C_16
REMARK   15  A    between atoms: C_16  and  C_17
REMARK   16  A    between atoms: C_17  and  C_18
REMARK   17  A    between atoms: C_18  and  O_19
REMARK   18  A    between atoms: O_19  and  C_20
REMARK   19  A    between atoms: C_20  and  C_22
REMARK   20  A    between atoms: C_22  and  O_24
REMARK   21  A    between atoms: C_22  and  C_25
REMARK   22  A    between atoms: C_25  and  O_26
REMARK                            x       y       z     vdW  Elec       q    Type
REMARK                         _______ _______ _______ _____ _____    ______ ____
ROOT
ATOM      1  C   UNL     1      10.226  -0.977  22.560  0.00  0.00    +0.000 C 
ENDROOT
BRANCH   1   2
ATOM      2  C   UNL     1       9.333  -2.056  23.173  0.00  0.00    +0.000 C 
BRANCH   2   3
ATOM      3  C   UNL     1       8.486  -1.533  24.337  0.00  0.00    +0.003 C 
BRANCH   3   4
ATOM      4  C   UNL     1       7.034  -1.996  24.258  0.00  0.00    +0.041 C 
BRANCH   4   5
ATOM      5  C   UNL     1       6.660  -2.926  25.407  0.00  0.00    +0.232 C 
BRANCH   5   6
ATOM      6  O   UNL     1       6.247  -4.198  24.876  0.00  0.00    -0.463 OA
BRANCH   6   7
ATOM      7  C   UNL     1       6.601  -5.280  25.633  0.00  0.00    +0.338 C 
ATOM      8  O   UNL     1       5.968  -6.329  25.701  0.00  0.00    -0.248 OA
BRANCH   7   9
ATOM      9  C   UNL     1       7.945  -5.035  26.322  0.00  0.00    +0.248 C 
BRANCH   9  10
ATOM     10  O   UNL     1       8.116  -5.828  27.496  0.00  0.00    -0.379 OA
ATOM     11  H   UNL     1       8.786  -6.501  27.275  0.00  0.00    +0.211 HD
ENDBRANCH   9  10
BRANCH   9  12
ATOM     12  C   UNL     1       9.070  -5.348  25.334  0.00  0.00    +0.198 C 
BRANCH  12  13
ATOM     13  O   UNL     1       8.582  -5.520  24.003  0.00  0.00    -0.392 OA
ATOM     14  H   UNL     1       7.660  -5.194  23.994  0.00  0.00    +0.210 HD
ENDBRANCH  12  13
ENDBRANCH   9  12
ENDBRANCH   7   9
ENDBRANCH   6   7
ENDBRANCH   5   6
ENDBRANCH   4   5
ENDBRANCH   3   4
ENDBRANCH   2   3
ENDBRANCH   1   2
BRANCH   1  15
ATOM     15  C   UNL     1       9.439  -0.055  21.634  0.00  0.00    +0.000 C 
BRANCH  15  16
ATOM     16  C   UNL     1       9.840   1.399  21.865  0.00  0.00    +0.004 C 
BRANCH  16  17
ATOM     17  C   UNL     1      10.391   1.591  23.273  0.00  0.00    +0.027 C 
BRANCH  17  19
ATOM     18  C   UNL     1      11.286   3.926  23.278  0.00  0.00    -0.031 C 
ATOM     19  C   UNL     1      10.356   3.039  23.660  0.00  0.00    -0.031 C 
BRANCH  18  20
ATOM     20  C   UNL     1      11.249   5.377  23.650  0.00  0.00    +0.027 C 
BRANCH  20  21
ATOM     21  C   UNL     1       9.963   5.705  24.406  0.00  0.00    +0.004 C 
BRANCH  21  22
ATOM     22  C   UNL     1       9.070   6.627  23.582  0.00  0.00    +0.000 C 
BRANCH  22  23
ATOM     23  C   UNL     1       7.637   6.105  23.534  0.00  0.00    +0.000 C 
BRANCH  23  24
ATOM     24  C   UNL     1       7.305   5.548  22.151  0.00  0.00    -0.000 C 
BRANCH  24  25
ATOM     25  C   UNL     1       7.239   4.023  22.178  0.00  0.00    -0.000 C 
BRANCH  25  27
ATOM     26  C   UNL     1       6.726   2.160  23.786  0.00  0.00    +0.004 C 
ATOM     27  C   UNL     1       6.304   3.528  23.279  0.00  0.00    -0.003 C 
ENDBRANCH  25  27
ENDBRANCH  24  25
ENDBRANCH  23  24
ENDBRANCH  22  23
ENDBRANCH  21  22
ENDBRANCH  20  21
ENDBRANCH  18  20
ENDBRANCH  17  19
ENDBRANCH  16  17
ENDBRANCH  15  16
ENDBRANCH   1  15
TORSDOF 21
ENDMDL
MODEL 4
REMARK VINA RESULT:      -4.9      3.473      7.669
REMARK  Name = 
REMARK  22 active torsions:
REMARK  status: ('A' for Active; 'I' for Inactive)
REMARK    1  A    between atoms: C_1  and  C_2
REMARK    2  A    between atoms: C_2  and  C_3
REMARK    3  A    between atoms: C_3  and  C_4
REMARK    4  A    between atoms: C_4  and  C_5
REMARK    5  A    between atoms: C_5  and  C_6
REMARK    6  A    between atoms: C_6  and  C_7
REMARK    7  A    between atoms: C_7  and  C_8
REMARK    8  A    between atoms: C_8  and  C_9
REMARK    9  A    between atoms: C_10  and  C_11
REMARK   10  A    between atoms: C_11  and  C_12
REMARK   11  A    between atoms: C_12  and  C_13
REMARK   12  A    between atoms: C_13  and  C_14
REMARK   13  A    between atoms: C_14  and  C_15
REMARK   14  A    between atoms: C_15  and  C_16
REMARK   15  A    between atoms: C_16  and  C_17
REMARK   16  A    between atoms: C_17  and  C_18
REMARK   17  A    between atoms: C_18  and  O_19
REMARK   18  A    between atoms: O_19  and  C_20
REMARK   19  A    between atoms: C_20  and  C_22
REMARK   20  A    between atoms: C_22  and  O_24
REMARK   21  A    between atoms: C_22  and  C_25
REMARK   22  A    between atoms: C_25  and  O_26
REMARK                            x       y       z     vdW  Elec       q    Type
REMARK                         _______ _______ _______ _____ _____    ______ ____
ROOT
ATOM      1  C   UNL     1       8.296  -1.594  25.001  0.00  0.00    +0.000 C 
ENDROOT
BRANCH   1   2
ATOM      2  C   UNL     1       9.699  -1.442  24.413  0.00  0.00    +0.000 C 
BRANCH   2   3
ATOM      3  C   UNL     1       9.823  -2.052  23.014  0.00  0.00    +0.003 C 
BRANCH   3   4
ATOM      4  C   UNL     1       8.949  -1.341  21.985  0.00  0.00    +0.041 C 
BRANCH   4   5
ATOM      5  C   UNL     1       9.573  -0.039  21.495  0.00  0.00    +0.232 C 
BRANCH   5   6
ATOM      6  O   UNL     1       8.565   0.986  21.450  0.00  0.00    -0.463 OA
BRANCH   6   7
ATOM      7  C   UNL     1       8.174   1.464  22.670  0.00  0.00    +0.338 C 
ATOM      8  O   UNL     1       7.059   1.313  23.161  0.00  0.00    -0.248 OA
BRANCH   7   9
ATOM      9  C   UNL     1       9.346   2.142  23.380  0.00  0.00    +0.248 C 
BRANCH   9  10
ATOM     10  O   UNL     1       9.953   3.164  22.589  0.00  0.00    -0.379 OA
ATOM     11  H   UNL     1      10.623   2.719  22.037  0.00  0.00    +0.211 HD
ENDBRANCH   9  10
BRANCH   9  12
ATOM     12  C   UNL     1       8.845   2.750  24.690  0.00  0.00    +0.198 C 
BRANCH  12  13
ATOM     13  O   UNL     1       8.499   1.749  25.648  0.00  0.00    -0.392 OA
ATOM     14  H   UNL     1       9.316   1.531  26.139  0.00  0.00    +0.210 HD
ENDBRANCH  12  13
ENDBRANCH   9  12
ENDBRANCH   7   9
ENDBRANCH   6   7
ENDBRANCH   5   6
ENDBRANCH   4   5
ENDBRANCH   3   4
ENDBRANCH   2   3
ENDBRANCH   1   2
BRANCH   1  15
ATOM     15  C   UNL     1       8.341  -2.116  26.434  0.00  0.00    +0.000 C 
BRANCH  15  16
ATOM     16  C   UNL     1       7.847  -3.559  26.489  0.00  0.00    +0.004 C 
BRANCH  16  17
ATOM     17  C   UNL     1       9.000  -4.534  26.283  0.00  0.00    +0.027 C 
BRANCH  17  19
ATOM     18  C   UNL     1       7.935  -4.964  24.062  0.00  0.00    -0.031 C 
ATOM     19  C   UNL     1       8.811  -5.312  25.016  0.00  0.00    -0.031 C 
BRANCH  18  20
ATOM     20  C   UNL     1       7.750  -5.731  22.788  0.00  0.00    +0.027 C 
BRANCH  20  21
ATOM     21  C   UNL     1       6.890  -4.940  21.805  0.00  0.00    +0.004 C 
BRANCH  21  22
ATOM     22  C   UNL     1       5.530  -4.613  22.415  0.00  0.00    +0.000 C 
BRANCH  22  23
ATOM     23  C   UNL     1       5.465  -3.156  22.864  0.00  0.00    +0.000 C 
BRANCH  23  24
ATOM     24  C   UNL     1       4.916  -3.045  24.284  0.00  0.00    -0.000 C 
BRANCH  24  25
ATOM     25  C   UNL     1       4.095  -4.279  24.650  0.00  0.00    -0.000 C 
BRANCH  25  27
ATOM     26  C   UNL     1       5.075  -6.284  25.806  0.00  0.00    +0.004 C 
ATOM     27  C   UNL     1       4.549  -4.870  25.982  0.00  0.00    -0.003 C 
ENDBRANCH  25  27
ENDBRANCH  24  25
ENDBRANCH  23  24
ENDBRANCH  22  23
ENDBRANCH  21  22
ENDBRANCH  20  21
ENDBRANCH  18  20
ENDBRANCH  17  19
ENDBRANCH  16  17
ENDBRANCH  15  16
ENDBRANCH   1  15
TORSDOF 21
ENDMDL
MODEL 5
REMARK VINA RESULT:      -4.9      3.711      7.810
REMARK  Name = 
REMARK  22 active torsions:
REMARK  status: ('A' for Active; 'I' for Inactive)
REMARK    1  A    between atoms: C_1  and  C_2
REMARK    2  A    between atoms: C_2  and  C_3
REMARK    3  A    between atoms: C_3  and  C_4
REMARK    4  A    between atoms: C_4  and  C_5
REMARK    5  A    between atoms: C_5  and  C_6
REMARK    6  A    between atoms: C_6  and  C_7
REMARK    7  A    between atoms: C_7  and  C_8
REMARK    8  A    between atoms: C_8  and  C_9
REMARK    9  A    between atoms: C_10  and  C_11
REMARK   10  A    between atoms: C_11  and  C_12
REMARK   11  A    between atoms: C_12  and  C_13
REMARK   12  A    between atoms: C_13  and  C_14
REMARK   13  A    between atoms: C_14  and  C_15
REMARK   14  A    between atoms: C_15  and  C_16
REMARK   15  A    between atoms: C_16  and  C_17
REMARK   16  A    between atoms: C_17  and  C_18
REMARK   17  A    between atoms: C_18  and  O_19
REMARK   18  A    between atoms: O_19  and  C_20
REMARK   19  A    between atoms: C_20  and  C_22
REMARK   20  A    between atoms: C_22  and  O_24
REMARK   21  A    between atoms: C_22  and  C_25
REMARK   22  A    between atoms: C_25  and  O_26
REMARK                            x       y       z     vdW  Elec       q    Type
REMARK                         _______ _______ _______ _____ _____    ______ ____
ROOT
ATOM      1  C   UNL     1      10.292  -0.433  23.784  0.00  0.00    +0.000 C 
ENDROOT
BRANCH   1   2
ATOM      2  C   UNL     1      10.005  -0.991  22.389  0.00  0.00    +0.000 C 
BRANCH   2   3
ATOM      3  C   UNL     1       9.385   0.050  21.452  0.00  0.00    +0.003 C 
BRANCH   3   4
ATOM      4  C   UNL     1       9.727   1.480  21.858  0.00  0.00    +0.041 C 
BRANCH   4   5
ATOM      5  C   UNL     1       8.485   2.352  22.008  0.00  0.00    +0.232 C 
BRANCH   5   6
ATOM      6  O   UNL     1       8.652   3.229  23.136  0.00  0.00    -0.463 OA
BRANCH   6   7
ATOM      7  C   UNL     1       7.564   4.005  23.428  0.00  0.00    +0.338 C 
ATOM      8  O   UNL     1       6.955   3.992  24.494  0.00  0.00    -0.248 OA
BRANCH   7   9
ATOM      9  C   UNL     1       7.258   4.955  22.270  0.00  0.00    +0.248 C 
BRANCH   9  10
ATOM     10  O   UNL     1       5.858   5.151  22.071  0.00  0.00    -0.379 OA
ATOM     11  H   UNL     1       5.747   5.396  21.134  0.00  0.00    +0.211 HD
ENDBRANCH   9  10
BRANCH   9  12
ATOM     12  C   UNL     1       7.921   6.305  22.551  0.00  0.00    +0.198 C 
BRANCH  12  13
ATOM     13  O   UNL     1       9.316   6.170  22.825  0.00  0.00    -0.392 OA
ATOM     14  H   UNL     1       9.733   5.823  22.012  0.00  0.00    +0.210 HD
ENDBRANCH  12  13
ENDBRANCH   9  12
ENDBRANCH   7   9
ENDBRANCH   6   7
ENDBRANCH   5   6
ENDBRANCH   4   5
ENDBRANCH   3   4
ENDBRANCH   2   3
ENDBRANCH   1   2
BRANCH   1  15
ATOM     15  C   UNL     1       9.401  -1.076  24.841  0.00  0.00    +0.000 C 
BRANCH  15  16
ATOM     16  C   UNL     1       8.606  -0.007  25.587  0.00  0.00    +0.004 C 
BRANCH  16  17
ATOM     17  C   UNL     1       7.338   0.356  24.823  0.00  0.00    +0.027 C 
BRANCH  17  19
ATOM     18  C   UNL     1       5.741  -1.556  25.029  0.00  0.00    -0.031 C 
ATOM     19  C   UNL     1       6.655  -0.878  24.319  0.00  0.00    -0.031 C 
BRANCH  18  20
ATOM     20  C   UNL     1       5.045  -2.784  24.527  0.00  0.00    +0.027 C 
BRANCH  20  21
ATOM     21  C   UNL     1       5.770  -3.351  23.308  0.00  0.00    +0.004 C 
BRANCH  21  22
ATOM     22  C   UNL     1       5.914  -4.866  23.418  0.00  0.00    +0.000 C 
BRANCH  22  23
ATOM     23  C   UNL     1       7.358  -5.300  23.185  0.00  0.00    +0.000 C 
BRANCH  23  24
ATOM     24  C   UNL     1       8.332  -4.359  23.891  0.00  0.00    -0.000 C 
BRANCH  24  25
ATOM     25  C   UNL     1       8.823  -4.965  25.204  0.00  0.00    -0.000 C 
BRANCH  25  27
ATOM     26  C   UNL     1       7.081  -4.997  27.015  0.00  0.00    +0.004 C 
ATOM     27  C   UNL     1       8.239  -4.226  26.406  0.00  0.00    -0.003 C 
ENDBRANCH  25  27
ENDBRANCH  24  25
ENDBRANCH  23  24
ENDBRANCH  22  23
ENDBRANCH  21  22
ENDBRANCH  20  21
ENDBRANCH  18  20
ENDBRANCH  17  19
ENDBRANCH  16  17
ENDBRANCH  15  16
ENDBRANCH   1  15
TORSDOF 21
ENDMDL
MODEL 6
REMARK VINA RESULT:      -4.8      3.207      7.704
REMARK  Name = 
REMARK  22 active torsions:
REMARK  status: ('A' for Active; 'I' for Inactive)
REMARK    1  A    between atoms: C_1  and  C_2
REMARK    2  A    between atoms: C_2  and  C_3
REMARK    3  A    between atoms: C_3  and  C_4
REMARK    4  A    between atoms: C_4  and  C_5
REMARK    5  A    between atoms: C_5  and  C_6
REMARK    6  A    between atoms: C_6  and  C_7
REMARK    7  A    between atoms: C_7  and  C_8
REMARK    8  A    between atoms: C_8  and  C_9
REMARK    9  A    between atoms: C_10  and  C_11
REMARK   10  A    between atoms: C_11  and  C_12
REMARK   11  A    between atoms: C_12  and  C_13
REMARK   12  A    between atoms: C_13  and  C_14
REMARK   13  A    between atoms: C_14  and  C_15
REMARK   14  A    between atoms: C_15  and  C_16
REMARK   15  A    between atoms: C_16  and  C_17
REMARK   16  A    between atoms: C_17  and  C_18
REMARK   17  A    between atoms: C_18  and  O_19
REMARK   18  A    between atoms: O_19  and  C_20
REMARK   19  A    between atoms: C_20  and  C_22
REMARK   20  A    between atoms: C_22  and  O_24
REMARK   21  A    between atoms: C_22  and  C_25
REMARK   22  A    between atoms: C_25  and  O_26
REMARK                            x       y       z     vdW  Elec       q    Type
REMARK                         _______ _______ _______ _____ _____    ______ ____
ROOT
ATOM      1  C   UNL     1       6.616  -2.609  26.747  0.00  0.00    +0.000 C 
ENDROOT
BRANCH   1   2
ATOM      2  C   UNL     1       5.629  -1.653  26.076  0.00  0.00    +0.000 C 
BRANCH   2   3
ATOM      3  C   UNL     1       6.182  -0.232  25.937  0.00  0.00    +0.003 C 
BRANCH   3   4
ATOM      4  C   UNL     1       7.708  -0.196  25.928  0.00  0.00    +0.041 C 
BRANCH   4   5
ATOM      5  C   UNL     1       8.252   1.151  25.468  0.00  0.00    +0.232 C 
BRANCH   5   6
ATOM      6  O   UNL     1       9.194   0.945  24.400  0.00  0.00    -0.463 OA
BRANCH   6   7
ATOM      7  C   UNL     1       9.595   2.085  23.759  0.00  0.00    +0.338 C 
ATOM      8  O   UNL     1      10.751   2.493  23.705  0.00  0.00    -0.248 OA
BRANCH   7   9
ATOM      9  C   UNL     1       8.413   2.739  23.042  0.00  0.00    +0.248 C 
BRANCH   9  10
ATOM     10  O   UNL     1       8.648   4.112  22.731  0.00  0.00    -0.379 OA
ATOM     11  H   UNL     1       7.884   4.406  22.200  0.00  0.00    +0.211 HD
ENDBRANCH   9  10
BRANCH   9  12
ATOM     12  C   UNL     1       8.132   1.970  21.750  0.00  0.00    +0.198 C 
BRANCH  12  13
ATOM     13  O   UNL     1       9.294   1.300  21.262  0.00  0.00    -0.392 OA
ATOM     14  H   UNL     1      10.041   1.925  21.350  0.00  0.00    +0.210 HD
ENDBRANCH  12  13
ENDBRANCH   9  12
ENDBRANCH   7   9
ENDBRANCH   6   7
ENDBRANCH   5   6
ENDBRANCH   4   5
ENDBRANCH   3   4
ENDBRANCH   2   3
ENDBRANCH   1   2
BRANCH   1  15
ATOM     15  C   UNL     1       6.832  -3.869  25.915  0.00  0.00    +0.000 C 
BRANCH  15  16
ATOM     16  C   UNL     1       7.904  -4.750  26.553  0.00  0.00    +0.004 C 
BRANCH  16  17
ATOM     17  C   UNL     1       9.140  -4.828  25.665  0.00  0.00    +0.027 C 
BRANCH  17  19
ATOM     18  C   UNL     1       9.775  -2.909  24.194  0.00  0.00    -0.031 C 
ATOM     19  C   UNL     1       8.978  -3.954  24.459  0.00  0.00    -0.031 C 
BRANCH  18  20
ATOM     20  C   UNL     1       9.626  -2.039  22.984  0.00  0.00    +0.027 C 
BRANCH  20  21
ATOM     21  C   UNL     1       8.353  -2.395  22.220  0.00  0.00    +0.004 C 
BRANCH  21  22
ATOM     22  C   UNL     1       7.190  -1.511  22.659  0.00  0.00    +0.000 C 
BRANCH  22  23
ATOM     23  C   UNL     1       5.872  -2.280  22.623  0.00  0.00    +0.000 C 
BRANCH  23  24
ATOM     24  C   UNL     1       6.055  -3.649  21.973  0.00  0.00    -0.000 C 
BRANCH  24  25
ATOM     25  C   UNL     1       5.264  -4.720  22.722  0.00  0.00    -0.000 C 
BRANCH  25  27
ATOM     26  C   UNL     1       7.249  -6.033  21.914  0.00  0.00    +0.004 C 
ATOM     27  C   UNL     1       6.083  -5.998  22.887  0.00  0.00    -0.003 C 
ENDBRANCH  25  27
ENDBRANCH  24  25
ENDBRANCH  23  24
ENDBRANCH  22  23
ENDBRANCH  21  22
ENDBRANCH  20  21
ENDBRANCH  18  20
ENDBRANCH  17  19
ENDBRANCH  16  17
ENDBRANCH  15  16
ENDBRANCH   1  15
TORSDOF 21
ENDMDL
MODEL 7
REMARK VINA RESULT:      -4.8      1.500      3.422
REMARK  Name = 
REMARK  22 active torsions:
REMARK  status: ('A' for Active; 'I' for Inactive)
REMARK    1  A    between atoms: C_1  and  C_2
REMARK    2  A    between atoms: C_2  and  C_3
REMARK    3  A    between atoms: C_3  and  C_4
REMARK    4  A    between atoms: C_4  and  C_5
REMARK    5  A    between atoms: C_5  and  C_6
REMARK    6  A    between atoms: C_6  and  C_7
REMARK    7  A    between atoms: C_7  and  C_8
REMARK    8  A    between atoms: C_8  and  C_9
REMARK    9  A    between atoms: C_10  and  C_11
REMARK   10  A    between atoms: C_11  and  C_12
REMARK   11  A    between atoms: C_12  and  C_13
REMARK   12  A    between atoms: C_13  and  C_14
REMARK   13  A    between atoms: C_14  and  C_15
REMARK   14  A    between atoms: C_15  and  C_16
REMARK   15  A    between atoms: C_16  and  C_17
REMARK   16  A    between atoms: C_17  and  C_18
REMARK   17  A    between atoms: C_18  and  O_19
REMARK   18  A    between atoms: O_19  and  C_20
REMARK   19  A    between atoms: C_20  and  C_22
REMARK   20  A    between atoms: C_22  and  O_24
REMARK   21  A    between atoms: C_22  and  C_25
REMARK   22  A    between atoms: C_25  and  O_26
REMARK                            x       y       z     vdW  Elec       q    Type
REMARK                         _______ _______ _______ _____ _____    ______ ____
ROOT
ATOM      1  C   UNL     1      10.065   0.856  24.785  0.00  0.00    +0.000 C 
ENDROOT
BRANCH   1   2
ATOM      2  C   UNL     1      10.172  -0.565  24.228  0.00  0.00    +0.000 C 
BRANCH   2   3
ATOM      3  C   UNL     1       8.889  -1.377  24.427  0.00  0.00    +0.003 C 
BRANCH   3   4
ATOM      4  C   UNL     1       8.460  -2.113  23.161  0.00  0.00    +0.041 C 
BRANCH   4   5
ATOM      5  C   UNL     1       7.193  -2.935  23.370  0.00  0.00    +0.232 C 
BRANCH   5   6
ATOM      6  O   UNL     1       7.392  -3.847  24.465  0.00  0.00    -0.463 OA
BRANCH   6   7
ATOM      7  C   UNL     1       8.008  -5.021  24.131  0.00  0.00    +0.338 C 
ATOM      8  O   UNL     1       7.816  -5.648  23.094  0.00  0.00    -0.248 OA
BRANCH   7   9
ATOM      9  C   UNL     1       9.037  -5.407  25.196  0.00  0.00    +0.248 C 
BRANCH   9  10
ATOM     10  O   UNL     1      10.358  -4.983  24.865  0.00  0.00    -0.379 OA
ATOM     11  H   UNL     1      10.535  -4.193  25.409  0.00  0.00    +0.211 HD
ENDBRANCH   9  10
BRANCH   9  12
ATOM     12  C   UNL     1       8.625  -4.781  26.529  0.00  0.00    +0.198 C 
BRANCH  12  13
ATOM     13  O   UNL     1       7.997  -5.727  27.394  0.00  0.00    -0.392 OA
ATOM     14  H   UNL     1       8.652  -6.432  27.567  0.00  0.00    +0.210 HD
ENDBRANCH  12  13
ENDBRANCH   9  12
ENDBRANCH   7   9
ENDBRANCH   6   7
ENDBRANCH   5   6
ENDBRANCH   4   5
ENDBRANCH   3   4
ENDBRANCH   2   3
ENDBRANCH   1   2
BRANCH   1  15
ATOM     15  C   UNL     1       9.869   1.882  23.675  0.00  0.00    +0.000 C 
BRANCH  15  16
ATOM     16  C   UNL     1      10.234   1.276  22.321  0.00  0.00    +0.004 C 
BRANCH  16  17
ATOM     17  C   UNL     1       8.997   1.132  21.442  0.00  0.00    +0.027 C 
BRANCH  17  19
ATOM     18  C   UNL     1       6.713   1.758  22.245  0.00  0.00    -0.031 C 
ATOM     19  C   UNL     1       7.943   2.117  21.851  0.00  0.00    -0.031 C 
BRANCH  18  20
ATOM     20  C   UNL     1       5.660   2.737  22.666  0.00  0.00    +0.027 C 
BRANCH  20  21
ATOM     21  C   UNL     1       5.224   2.471  24.105  0.00  0.00    +0.004 C 
BRANCH  21  22
ATOM     22  C   UNL     1       6.430   2.436  25.040  0.00  0.00    +0.000 C 
BRANCH  22  23
ATOM     23  C   UNL     1       6.597   3.764  25.772  0.00  0.00    +0.000 C 
BRANCH  23  24
ATOM     24  C   UNL     1       8.026   4.284  25.642  0.00  0.00    -0.000 C 
BRANCH  24  25
ATOM     25  C   UNL     1       8.062   5.596  24.861  0.00  0.00    -0.000 C 
BRANCH  25  27
ATOM     26  C   UNL     1       7.544   5.861  22.415  0.00  0.00    +0.004 C 
ATOM     27  C   UNL     1       8.561   5.377  23.434  0.00  0.00    -0.003 C 
ENDBRANCH  25  27
ENDBRANCH  24  25
ENDBRANCH  23  24
ENDBRANCH  22  23
ENDBRANCH  21  22
ENDBRANCH  20  21
ENDBRANCH  18  20
ENDBRANCH  17  19
ENDBRANCH  16  17
ENDBRANCH  15  16
ENDBRANCH   1  15
TORSDOF 21
ENDMDL
MODEL 8
REMARK VINA RESULT:      -4.8      3.703      8.172
REMARK  Name = 
REMARK  22 active torsions:
REMARK  status: ('A' for Active; 'I' for Inactive)
REMARK    1  A    between atoms: C_1  and  C_2
REMARK    2  A    between atoms: C_2  and  C_3
REMARK    3  A    between atoms: C_3  and  C_4
REMARK    4  A    between atoms: C_4  and  C_5
REMARK    5  A    between atoms: C_5  and  C_6
REMARK    6  A    between atoms: C_6  and  C_7
REMARK    7  A    between atoms: C_7  and  C_8
REMARK    8  A    between atoms: C_8  and  C_9
REMARK    9  A    between atoms: C_10  and  C_11
REMARK   10  A    between atoms: C_11  and  C_12
REMARK   11  A    between atoms: C_12  and  C_13
REMARK   12  A    between atoms: C_13  and  C_14
REMARK   13  A    between atoms: C_14  and  C_15
REMARK   14  A    between atoms: C_15  and  C_16
REMARK   15  A    between atoms: C_16  and  C_17
REMARK   16  A    between atoms: C_17  and  C_18
REMARK   17  A    between atoms: C_18  and  O_19
REMARK   18  A    between atoms: O_19  and  C_20
REMARK   19  A    between atoms: C_20  and  C_22
REMARK   20  A    between atoms: C_22  and  O_24
REMARK   21  A    between atoms: C_22  and  C_25
REMARK   22  A    between atoms: C_25  and  O_26
REMARK                            x       y       z     vdW  Elec       q    Type
REMARK                         _______ _______ _______ _____ _____    ______ ____
ROOT
ATOM      1  C   UNL     1       4.894  -1.879  26.006  0.00  0.00    +0.000 C 
ENDROOT
BRANCH   1   2
ATOM      2  C   UNL     1       5.585  -1.680  24.656  0.00  0.00    +0.000 C 
BRANCH   2   3
ATOM      3  C   UNL     1       6.818  -0.776  24.750  0.00  0.00    +0.003 C 
BRANCH   3   4
ATOM      4  C   UNL     1       7.799  -1.234  25.826  0.00  0.00    +0.041 C 
BRANCH   4   5
ATOM      5  C   UNL     1       9.251  -0.998  25.425  0.00  0.00    +0.232 C 
BRANCH   5   6
ATOM      6  O   UNL     1       9.382  -1.148  24.000  0.00  0.00    -0.463 OA
BRANCH   6   7
ATOM      7  C   UNL     1      10.174  -0.213  23.393  0.00  0.00    +0.338 C 
ATOM      8  O   UNL     1      10.963   0.526  23.974  0.00  0.00    -0.248 OA
BRANCH   7   9
ATOM      9  C   UNL     1      10.004  -0.273  21.874  0.00  0.00    +0.248 C 
BRANCH   9  10
ATOM     10  O   UNL     1       9.431  -1.503  21.431  0.00  0.00    -0.379 OA
ATOM     11  H   UNL     1       9.516  -1.509  20.459  0.00  0.00    +0.211 HD
ENDBRANCH   9  10
BRANCH   9  12
ATOM     12  C   UNL     1       9.113   0.888  21.431  0.00  0.00    +0.198 C 
BRANCH  12  13
ATOM     13  O   UNL     1       9.765   2.150  21.573  0.00  0.00    -0.392 OA
ATOM     14  H   UNL     1       9.132   2.832  21.277  0.00  0.00    +0.210 HD
ENDBRANCH  12  13
ENDBRANCH   9  12
ENDBRANCH   7   9
ENDBRANCH   6   7
ENDBRANCH   5   6
ENDBRANCH   4   5
ENDBRANCH   3   4
ENDBRANCH   2   3
ENDBRANCH   1   2
BRANCH   1  15
ATOM     15  C   UNL     1       4.681  -3.357  26.315  0.00  0.00    +0.000 C 
BRANCH  15  16
ATOM     16  C   UNL     1       5.250  -3.700  27.690  0.00  0.00    +0.004 C 
BRANCH  16  17
ATOM     17  C   UNL     1       6.249  -4.847  27.592  0.00  0.00    +0.027 C 
BRANCH  17  19
ATOM     18  C   UNL     1       8.152  -4.749  25.973  0.00  0.00    -0.031 C 
ATOM     19  C   UNL     1       6.843  -4.911  26.218  0.00  0.00    -0.031 C 
BRANCH  18  20
ATOM     20  C   UNL     1       8.754  -4.824  24.604  0.00  0.00    +0.027 C 
BRANCH  20  21
ATOM     21  C   UNL     1       7.692  -5.187  23.569  0.00  0.00    +0.004 C 
BRANCH  21  22
ATOM     22  C   UNL     1       7.413  -4.009  22.640  0.00  0.00    +0.000 C 
BRANCH  22  23
ATOM     23  C   UNL     1       6.028  -4.122  22.010  0.00  0.00    +0.000 C 
BRANCH  23  24
ATOM     24  C   UNL     1       5.268  -5.321  22.571  0.00  0.00    -0.000 C 
BRANCH  24  25
ATOM     25  C   UNL     1       3.972  -4.881  23.247  0.00  0.00    -0.000 C 
BRANCH  25  27
ATOM     26  C   UNL     1       4.388  -6.987  24.555  0.00  0.00    +0.004 C 
ATOM     27  C   UNL     1       3.334  -6.031  24.024  0.00  0.00    -0.003 C 
ENDBRANCH  25  27
ENDBRANCH  24  25
ENDBRANCH  23  24
ENDBRANCH  22  23
ENDBRANCH  21  22
ENDBRANCH  20  21
ENDBRANCH  18  20
ENDBRANCH  17  19
ENDBRANCH  16  17
ENDBRANCH  15  16
ENDBRANCH   1  15
TORSDOF 21
ENDMDL
MODEL 9
REMARK VINA RESULT:      -4.8      4.485      9.409
REMARK  Name = 
REMARK  22 active torsions:
REMARK  status: ('A' for Active; 'I' for Inactive)
REMARK    1  A    between atoms: C_1  and  C_2
REMARK    2  A    between atoms: C_2  and  C_3
REMARK    3  A    between atoms: C_3  and  C_4
REMARK    4  A    between atoms: C_4  and  C_5
REMARK    5  A    between atoms: C_5  and  C_6
REMARK    6  A    between atoms: C_6  and  C_7
REMARK    7  A    between atoms: C_7  and  C_8
REMARK    8  A    between atoms: C_8  and  C_9
REMARK    9  A    between atoms: C_10  and  C_11
REMARK   10  A    between atoms: C_11  and  C_12
REMARK   11  A    between atoms: C_12  and  C_13
REMARK   12  A    between atoms: C_13  and  C_14
REMARK   13  A    between atoms: C_14  and  C_15
REMARK   14  A    between atoms: C_15  and  C_16
REMARK   15  A    between atoms: C_16  and  C_17
REMARK   16  A    between atoms: C_17  and  C_18
REMARK   17  A    between atoms: C_18  and  O_19
REMARK   18  A    between atoms: O_19  and  C_20
REMARK   19  A    between atoms: C_20  and  C_22
REMARK   20  A    between atoms: C_22  and  O_24
REMARK   21  A    between atoms: C_22  and  C_25
REMARK   22  A    between atoms: C_25  and  O_26
REMARK                            x       y       z     vdW  Elec       q    Type
REMARK                         _______ _______ _______ _____ _____    ______ ____
ROOT
ATOM      1  C   UNL     1       8.044  -1.071  22.513  0.00  0.00    +0.000 C 
ENDROOT
BRANCH   1   2
ATOM      2  C   UNL     1       9.133  -0.288  21.777  0.00  0.00    +0.000 C 
BRANCH   2   3
ATOM      3  C   UNL     1       9.008   1.226  21.974  0.00  0.00    +0.003 C 
BRANCH   3   4
ATOM      4  C   UNL     1      10.363   1.908  22.141  0.00  0.00    +0.041 C 
BRANCH   4   5
ATOM      5  C   UNL     1      10.476   2.654  23.466  0.00  0.00    +0.232 C 
BRANCH   5   6
ATOM      6  O   UNL     1      11.449   3.706  23.338  0.00  0.00    -0.463 OA
BRANCH   6   7
ATOM      7  C   UNL     1      11.004   4.949  23.695  0.00  0.00    +0.338 C 
ATOM      8  O   UNL     1       9.887   5.196  24.139  0.00  0.00    -0.248 OA
BRANCH   7   9
ATOM      9  C   UNL     1      12.122   5.982  23.542  0.00  0.00    +0.248 C 
BRANCH   9  10
ATOM     10  O   UNL     1      12.789   6.258  24.773  0.00  0.00    -0.379 OA
ATOM     11  H   UNL     1      12.206   6.864  25.269  0.00  0.00    +0.211 HD
ENDBRANCH   9  10
BRANCH   9  12
ATOM     12  C   UNL     1      13.137   5.463  22.523  0.00  0.00    +0.198 C 
BRANCH  12  13
ATOM     13  O   UNL     1      14.344   5.021  23.147  0.00  0.00    -0.392 OA
ATOM     14  H   UNL     1      14.242   4.063  23.315  0.00  0.00    +0.210 HD
ENDBRANCH  12  13
ENDBRANCH   9  12
ENDBRANCH   7   9
ENDBRANCH   6   7
ENDBRANCH   5   6
ENDBRANCH   4   5
ENDBRANCH   3   4
ENDBRANCH   2   3
ENDBRANCH   1   2
BRANCH   1  15
ATOM     15  C   UNL     1       8.306  -2.573  22.467  0.00  0.00    +0.000 C 
BRANCH  15  16
ATOM     16  C   UNL     1       6.987  -3.341  22.450  0.00  0.00    +0.004 C 
BRANCH  16  17
ATOM     17  C   UNL     1       7.216  -4.802  22.080  0.00  0.00    +0.027 C 
BRANCH  17  19
ATOM     18  C   UNL     1       4.868  -5.182  22.851  0.00  0.00    -0.031 C 
ATOM     19  C   UNL     1       6.095  -5.656  22.588  0.00  0.00    -0.031 C 
BRANCH  18  20
ATOM     20  C   UNL     1       3.740  -6.034  23.349  0.00  0.00    +0.027 C 
BRANCH  20  21
ATOM     21  C   UNL     1       4.213  -6.946  24.478  0.00  0.00    +0.004 C 
BRANCH  21  22
ATOM     22  C   UNL     1       3.605  -6.520  25.811  0.00  0.00    +0.000 C 
BRANCH  22  23
ATOM     23  C   UNL     1       4.489  -5.497  26.517  0.00  0.00    +0.000 C 
BRANCH  23  24
ATOM     24  C   UNL     1       5.624  -6.185  27.273  0.00  0.00    -0.000 C 
BRANCH  24  25
ATOM     25  C   UNL     1       6.903  -5.353  27.214  0.00  0.00    -0.000 C 
BRANCH  25  27
ATOM     26  C   UNL     1       7.453  -3.109  26.224  0.00  0.00    +0.004 C 
ATOM     27  C   UNL     1       6.961  -4.517  25.937  0.00  0.00    -0.003 C 
ENDBRANCH  25  27
ENDBRANCH  24  25
ENDBRANCH  23  24
ENDBRANCH  22  23
ENDBRANCH  21  22
ENDBRANCH  20  21
ENDBRANCH  18  20
ENDBRANCH  17  19
ENDBRANCH  16  17
ENDBRANCH  15  16
ENDBRANCH   1  15
TORSDOF 21
ENDMDL
