MODEL 1
REMARK VINA RESULT:      -7.2      0.000      0.000
REMARK  Name = 
REMARK  13 active torsions:
REMARK  status: ('A' for Active; 'I' for Inactive)
REMARK    1  A    between atoms: N_10  and  C_11
REMARK    2  A    between atoms: C_14  and  O_16
REMARK    3  A    between atoms: C_17  and  C_19
REMARK    4  A    between atoms: C_19  and  O_20
REMARK    5  A    between atoms: O_20  and  P_21
REMARK    6  A    between atoms: P_21  and  O_22
REMARK    7  A    between atoms: P_21  and  O_24
REMARK    8  A    between atoms: O_24  and  P_25
REMARK    9  A    between atoms: P_25  and  O_26
REMARK   10  A    between atoms: P_25  and  O_28
REMARK   11  A    between atoms: O_28  and  P_29
REMARK   12  A    between atoms: P_29  and  O_30
REMARK   13  A    between atoms: P_29  and  O_31
REMARK                            x       y       z     vdW  Elec       q    Type
REMARK                         _______ _______ _______ _____ _____    ______ ____
ROOT
ATOM      1  C   UNL     1       8.586  -2.577  24.853  0.00  0.00    +0.225 C 
ATOM      2  O   UNL     1       8.226  -2.884  26.220  0.00  0.00    -0.348 OA
ATOM      3  C   UNL     1       8.719  -4.210  26.526  0.00  0.00    +0.175 C 
ATOM      4  C   UNL     1       9.300  -4.777  25.232  0.00  0.00    +0.150 C 
ATOM      5  C   UNL     1       9.710  -3.529  24.496  0.00  0.00    +0.088 C 
ENDROOT
BRANCH   1  13
ATOM      6  N   UNL     1      10.250   2.899  22.918  0.00  0.00    -0.341 N 
ATOM      7  H   UNL     1      10.024   3.293  23.825  0.00  0.00    +0.144 HD
ATOM      8  H   UNL     1      10.064   3.462  22.099  0.00  0.00    +0.144 HD
ATOM      9  C   UNL     1       9.813   1.589  22.762  0.00  0.00    +0.147 A 
ATOM     10  C   UNL     1       9.526   0.737  23.838  0.00  0.00    +0.147 A 
ATOM     11  N   UNL     1       9.553   0.905  25.209  0.00  0.00    -0.231 NA
ATOM     12  C   UNL     1       9.201  -0.269  25.703  0.00  0.00    +0.203 A 
ATOM     13  N   UNL     1       8.951  -1.182  24.718  0.00  0.00    -0.288 N 
ATOM     14  C   UNL     1       9.118  -0.551  23.514  0.00  0.00    +0.167 A 
ATOM     15  N   UNL     1       8.951  -1.068  22.288  0.00  0.00    -0.216 NA
ATOM     16  C   UNL     1       9.241  -0.156  21.338  0.00  0.00    +0.225 A 
ATOM     17  N   UNL     1       9.649   1.123  21.503  0.00  0.00    -0.219 NA
ENDBRANCH   1  13
BRANCH   4  18
ATOM     18  O   UNL     1      10.401  -5.649  25.410  0.00  0.00    -0.389 OA
ATOM     19  H   UNL     1      10.970  -5.611  24.621  0.00  0.00    +0.210 HD
ENDBRANCH   4  18
BRANCH   3  20
ATOM     20  C   UNL     1       7.578  -5.057  27.086  0.00  0.00    +0.206 C 
BRANCH  20  21
ATOM     21  O   UNL     1       6.388  -4.293  27.238  0.00  0.00    -0.284 OA
BRANCH  21  22
ATOM     22  P   UNL     1       5.135  -4.794  26.155  0.00  0.00    +0.483 P 
ATOM     23  O   UNL     1       4.138  -4.291  27.190  0.00  0.00    -0.227 OA
BRANCH  22  24
ATOM     24  O   UNL     1       5.677  -6.304  26.368  0.00  0.00    -0.302 OA
ATOM     25  H   UNL     1       6.384  -6.356  27.055  0.00  0.00    +0.222 HD
ENDBRANCH  22  24
BRANCH  22  26
ATOM     26  O   UNL     1       3.883  -5.296  25.072  0.00  0.00    -0.186 OA
BRANCH  26  27
ATOM     27  P   UNL     1       4.153  -6.581  24.166  0.00  0.00    +0.492 P 
ATOM     28  O   UNL     1       4.037  -7.912  24.830  0.00  0.00    -0.226 OA
BRANCH  27  29
ATOM     29  O   UNL     1       3.141  -6.452  22.929  0.00  0.00    -0.302 OA
ATOM     30  H   UNL     1       3.536  -6.752  22.089  0.00  0.00    +0.222 HD
ENDBRANCH  27  29
BRANCH  27  31
ATOM     31  O   UNL     1       5.559  -6.224  23.550  0.00  0.00    -0.186 OA
BRANCH  31  32
ATOM     32  P   UNL     1       5.807  -5.701  21.921  0.00  0.00    +0.481 P 
ATOM     33  O   UNL     1       6.028  -5.230  20.462  0.00  0.00    -0.227 OA
BRANCH  32  34
ATOM     34  O   UNL     1       7.205  -5.038  22.466  0.00  0.00    -0.302 OA
ATOM     35  H   UNL     1       7.862  -5.718  22.699  0.00  0.00    +0.222 HD
ENDBRANCH  32  34
BRANCH  32  36
ATOM     36  O   UNL     1       4.926  -4.380  22.368  0.00  0.00    -0.302 OA
ATOM     37  H   UNL     1       5.192  -3.694  21.718  0.00  0.00    +0.222 HD
ENDBRANCH  32  36
ENDBRANCH  31  32
ENDBRANCH  27  31
ENDBRANCH  26  27
ENDBRANCH  22  26
ENDBRANCH  21  22
ENDBRANCH  20  21
ENDBRANCH   3  20
TORSDOF 13
ENDMDL
MODEL 2
REMARK VINA RESULT:      -7.2      1.499      1.926
REMARK  Name = 
REMARK  13 active torsions:
REMARK  status: ('A' for Active; 'I' for Inactive)
REMARK    1  A    between atoms: N_10  and  C_11
REMARK    2  A    between atoms: C_14  and  O_16
REMARK    3  A    between atoms: C_17  and  C_19
REMARK    4  A    between atoms: C_19  and  O_20
REMARK    5  A    between atoms: O_20  and  P_21
REMARK    6  A    between atoms: P_21  and  O_22
REMARK    7  A    between atoms: P_21  and  O_24
REMARK    8  A    between atoms: O_24  and  P_25
REMARK    9  A    between atoms: P_25  and  O_26
REMARK   10  A    between atoms: P_25  and  O_28
REMARK   11  A    between atoms: O_28  and  P_29
REMARK   12  A    between atoms: P_29  and  O_30
REMARK   13  A    between atoms: P_29  and  O_31
REMARK                            x       y       z     vdW  Elec       q    Type
REMARK                         _______ _______ _______ _____ _____    ______ ____
ROOT
ATOM      1  C   UNL     1       7.986  -3.039  24.324  0.00  0.00    +0.225 C 
ATOM      2  O   UNL     1       7.625  -2.714  25.686  0.00  0.00    -0.348 OA
ATOM      3  C   UNL     1       7.726  -3.922  26.478  0.00  0.00    +0.175 C 
ATOM      4  C   UNL     1       8.048  -5.060  25.510  0.00  0.00    +0.150 C 
ATOM      5  C   UNL     1       8.764  -4.338  24.400  0.00  0.00    +0.088 C 
ENDROOT
BRANCH   1  13
ATOM      6  N   UNL     1       9.813   1.996  21.528  0.00  0.00    -0.341 N 
ATOM      7  H   UNL     1      10.770   1.808  21.805  0.00  0.00    +0.144 HD
ATOM      8  H   UNL     1       9.508   2.960  21.506  0.00  0.00    +0.144 HD
ATOM      9  C   UNL     1       8.885   1.169  22.152  0.00  0.00    +0.147 A 
ATOM     10  C   UNL     1       9.215  -0.071  22.719  0.00  0.00    +0.147 A 
ATOM     11  N   UNL     1      10.402  -0.765  22.849  0.00  0.00    -0.231 NA
ATOM     12  C   UNL     1      10.073  -1.892  23.454  0.00  0.00    +0.203 A 
ATOM     13  N   UNL     1       8.734  -1.957  23.718  0.00  0.00    -0.288 N 
ATOM     14  C   UNL     1       8.168  -0.787  23.287  0.00  0.00    +0.167 A 
ATOM     15  N   UNL     1       6.881  -0.419  23.371  0.00  0.00    -0.216 NA
ATOM     16  C   UNL     1       6.689   0.791  22.809  0.00  0.00    +0.225 A 
ATOM     17  N   UNL     1       7.603   1.594  22.220  0.00  0.00    -0.219 NA
ENDBRANCH   1  13
BRANCH   4  18
ATOM     18  O   UNL     1       8.854  -6.088  26.053  0.00  0.00    -0.389 OA
ATOM     19  H   UNL     1       8.283  -6.760  26.464  0.00  0.00    +0.210 HD
ENDBRANCH   4  18
BRANCH   3  20
ATOM     20  C   UNL     1       6.418  -4.140  27.236  0.00  0.00    +0.206 C 
BRANCH  20  21
ATOM     21  O   UNL     1       6.360  -5.440  27.811  0.00  0.00    -0.284 OA
BRANCH  21  22
ATOM     22  P   UNL     1       5.082  -6.400  27.149  0.00  0.00    +0.483 P 
ATOM     23  O   UNL     1       4.142  -5.249  27.478  0.00  0.00    -0.227 OA
BRANCH  22  24
ATOM     24  O   UNL     1       5.368  -7.449  28.348  0.00  0.00    -0.302 OA
ATOM     25  H   UNL     1       6.216  -7.939  28.224  0.00  0.00    +0.222 HD
ENDBRANCH  22  24
BRANCH  22  26
ATOM     26  O   UNL     1       3.805  -7.361  26.487  0.00  0.00    -0.186 OA
BRANCH  26  27
ATOM     27  P   UNL     1       3.428  -7.144  24.951  0.00  0.00    +0.492 P 
ATOM     28  O   UNL     1       2.777  -8.287  24.248  0.00  0.00    -0.226 OA
BRANCH  27  29
ATOM     29  O   UNL     1       2.506  -5.833  24.919  0.00  0.00    -0.302 OA
ATOM     30  H   UNL     1       2.107  -5.635  25.788  0.00  0.00    +0.222 HD
ENDBRANCH  27  29
BRANCH  27  31
ATOM     31  O   UNL     1       4.809  -6.657  24.369  0.00  0.00    -0.186 OA
BRANCH  31  32
ATOM     32  P   UNL     1       4.978  -5.497  23.097  0.00  0.00    +0.481 P 
ATOM     33  O   UNL     1       5.129  -4.460  21.958  0.00  0.00    -0.227 OA
BRANCH  32  34
ATOM     34  O   UNL     1       3.661  -6.210  22.427  0.00  0.00    -0.302 OA
ATOM     35  H   UNL     1       3.899  -7.003  21.914  0.00  0.00    +0.222 HD
ENDBRANCH  32  34
BRANCH  32  36
ATOM     36  O   UNL     1       6.003  -6.602  22.427  0.00  0.00    -0.302 OA
ATOM     37  H   UNL     1       6.325  -6.154  21.614  0.00  0.00    +0.222 HD
ENDBRANCH  32  36
ENDBRANCH  31  32
ENDBRANCH  27  31
ENDBRANCH  26  27
ENDBRANCH  22  26
ENDBRANCH  21  22
ENDBRANCH  20  21
ENDBRANCH   3  20
TORSDOF 13
ENDMDL
MODEL 3
REMARK VINA RESULT:      -7.0      1.907      2.790
REMARK  Name = 
REMARK  13 active torsions:
REMARK  status: ('A' for Active; 'I' for Inactive)
REMARK    1  A    between atoms: N_10  and  C_11
REMARK    2  A    between atoms: C_14  and  O_16
REMARK    3  A    between atoms: C_17  and  C_19
REMARK    4  A    between atoms: C_19  and  O_20
REMARK    5  A    between atoms: O_20  and  P_21
REMARK    6  A    between atoms: P_21  and  O_22
REMARK    7  A    between atoms: P_21  and  O_24
REMARK    8  A    between atoms: O_24  and  P_25
REMARK    9  A    between atoms: P_25  and  O_26
REMARK   10  A    between atoms: P_25  and  O_28
REMARK   11  A    between atoms: O_28  and  P_29
REMARK   12  A    between atoms: P_29  and  O_30
REMARK   13  A    between atoms: P_29  and  O_31
REMARK                            x       y       z     vdW  Elec       q    Type
REMARK                         _______ _______ _______ _____ _____    ______ ____
ROOT
ATOM      1  C   UNL     1       8.692  -0.083  24.044  0.00  0.00    +0.225 C 
ATOM      2  O   UNL     1       8.618  -0.411  25.451  0.00  0.00    -0.348 OA
ATOM      3  C   UNL     1       8.978  -1.804  25.607  0.00  0.00    +0.175 C 
ATOM      4  C   UNL     1       9.161  -2.374  24.201  0.00  0.00    +0.150 C 
ATOM      5  C   UNL     1       9.561  -1.154  23.414  0.00  0.00    +0.088 C 
ENDROOT
BRANCH   1  13
ATOM      6  N   UNL     1       9.464   5.848  23.188  0.00  0.00    -0.341 N 
ATOM      7  H   UNL     1      10.455   5.751  23.381  0.00  0.00    +0.144 HD
ATOM      8  H   UNL     1       9.000   6.689  23.505  0.00  0.00    +0.144 HD
ATOM      9  C   UNL     1       8.731   4.704  23.483  0.00  0.00    +0.147 A 
ATOM     10  C   UNL     1       9.299   3.426  23.579  0.00  0.00    +0.147 A 
ATOM     11  N   UNL     1      10.592   2.955  23.457  0.00  0.00    -0.231 NA
ATOM     12  C   UNL     1      10.497   1.649  23.630  0.00  0.00    +0.203 A 
ATOM     13  N   UNL     1       9.207   1.257  23.855  0.00  0.00    -0.288 N 
ATOM     14  C   UNL     1       8.427   2.382  23.861  0.00  0.00    +0.167 A 
ATOM     15  N   UNL     1       7.104   2.460  24.070  0.00  0.00    -0.216 NA
ATOM     16  C   UNL     1       6.675   3.735  23.967  0.00  0.00    +0.225 A 
ATOM     17  N   UNL     1       7.402   4.842  23.696  0.00  0.00    -0.219 NA
ENDBRANCH   1  13
BRANCH   4  18
ATOM     18  O   UNL     1      10.141  -3.391  24.098  0.00  0.00    -0.389 OA
ATOM     19  H   UNL     1      10.975  -3.001  23.782  0.00  0.00    +0.210 HD
ENDBRANCH   4  18
BRANCH   3  20
ATOM     20  C   UNL     1       7.889  -2.522  26.401  0.00  0.00    +0.206 C 
BRANCH  20  21
ATOM     21  O   UNL     1       8.307  -3.822  26.800  0.00  0.00    -0.284 OA
BRANCH  21  22
ATOM     22  P   UNL     1       7.111  -5.030  26.479  0.00  0.00    +0.483 P 
ATOM     23  O   UNL     1       6.080  -4.052  27.024  0.00  0.00    -0.227 OA
BRANCH  22  24
ATOM     24  O   UNL     1       7.869  -5.947  27.576  0.00  0.00    -0.302 OA
ATOM     25  H   UNL     1       7.241  -6.384  28.200  0.00  0.00    +0.222 HD
ENDBRANCH  22  24
BRANCH  22  26
ATOM     26  O   UNL     1       5.915  -6.239  26.158  0.00  0.00    -0.186 OA
BRANCH  26  27
ATOM     27  P   UNL     1       5.084  -6.123  24.801  0.00  0.00    +0.492 P 
ATOM     28  O   UNL     1       4.474  -7.378  24.275  0.00  0.00    -0.226 OA
BRANCH  27  29
ATOM     29  O   UNL     1       3.974  -4.999  25.075  0.00  0.00    -0.302 OA
ATOM     30  H   UNL     1       3.082  -5.279  24.797  0.00  0.00    +0.222 HD
ENDBRANCH  27  29
BRANCH  27  31
ATOM     31  O   UNL     1       6.133  -5.408  23.867  0.00  0.00    -0.186 OA
BRANCH  31  32
ATOM     32  P   UNL     1       6.008  -5.325  22.144  0.00  0.00    +0.481 P 
ATOM     33  O   UNL     1       5.896  -5.252  20.602  0.00  0.00    -0.227 OA
BRANCH  32  34
ATOM     34  O   UNL     1       4.386  -5.417  22.371  0.00  0.00    -0.302 OA
ATOM     35  H   UNL     1       4.027  -6.273  22.078  0.00  0.00    +0.222 HD
ENDBRANCH  32  34
BRANCH  32  36
ATOM     36  O   UNL     1       6.179  -6.964  22.201  0.00  0.00    -0.302 OA
ATOM     37  H   UNL     1       7.070  -7.117  21.815  0.00  0.00    +0.222 HD
ENDBRANCH  32  36
ENDBRANCH  31  32
ENDBRANCH  27  31
ENDBRANCH  26  27
ENDBRANCH  22  26
ENDBRANCH  21  22
ENDBRANCH  20  21
ENDBRANCH   3  20
TORSDOF 13
ENDMDL
MODEL 4
REMARK VINA RESULT:      -6.9      4.524      7.506
REMARK  Name = 
REMARK  13 active torsions:
REMARK  status: ('A' for Active; 'I' for Inactive)
REMARK    1  A    between atoms: N_10  and  C_11
REMARK    2  A    between atoms: C_14  and  O_16
REMARK    3  A    between atoms: C_17  and  C_19
REMARK    4  A    between atoms: C_19  and  O_20
REMARK    5  A    between atoms: O_20  and  P_21
REMARK    6  A    between atoms: P_21  and  O_22
REMARK    7  A    between atoms: P_21  and  O_24
REMARK    8  A    between atoms: O_24  and  P_25
REMARK    9  A    between atoms: P_25  and  O_26
REMARK   10  A    between atoms: P_25  and  O_28
REMARK   11  A    between atoms: O_28  and  P_29
REMARK   12  A    between atoms: P_29  and  O_30
REMARK   13  A    between atoms: P_29  and  O_31
REMARK                            x       y       z     vdW  Elec       q    Type
REMARK                         _______ _______ _______ _____ _____    ______ ____
ROOT
ATOM      1  C   UNL     1       6.210  -5.515  23.795  0.00  0.00    +0.225 C 
ATOM      2  O   UNL     1       5.929  -4.111  23.595  0.00  0.00    -0.348 OA
ATOM      3  C   UNL     1       5.999  -3.837  22.175  0.00  0.00    +0.175 C 
ATOM      4  C   UNL     1       6.469  -5.124  21.499  0.00  0.00    +0.150 C 
ATOM      5  C   UNL     1       5.978  -6.180  22.453  0.00  0.00    +0.088 C 
ENDROOT
BRANCH   1  13
ATOM      6  N   UNL     1       3.930  -7.553  29.006  0.00  0.00    -0.341 N 
ATOM      7  H   UNL     1       3.008  -7.606  28.587  0.00  0.00    +0.144 HD
ATOM      8  H   UNL     1       3.993  -7.278  29.978  0.00  0.00    +0.144 HD
ATOM      9  C   UNL     1       4.859  -6.886  28.214  0.00  0.00    +0.147 A 
ATOM     10  C   UNL     1       4.713  -6.719  26.830  0.00  0.00    +0.147 A 
ATOM     11  N   UNL     1       3.729  -7.085  25.932  0.00  0.00    -0.231 NA
ATOM     12  C   UNL     1       4.169  -6.671  24.757  0.00  0.00    +0.203 A 
ATOM     13  N   UNL     1       5.386  -6.059  24.855  0.00  0.00    -0.288 N 
ATOM     14  C   UNL     1       5.740  -6.047  26.178  0.00  0.00    +0.167 A 
ATOM     15  N   UNL     1       6.846  -5.523  26.725  0.00  0.00    -0.216 NA
ATOM     16  C   UNL     1       6.869  -5.732  28.058  0.00  0.00    +0.225 A 
ATOM     17  N   UNL     1       5.950  -6.367  28.820  0.00  0.00    -0.219 NA
ENDBRANCH   1  13
BRANCH   4  18
ATOM     18  O   UNL     1       5.950  -5.332  20.198  0.00  0.00    -0.389 OA
ATOM     19  H   UNL     1       6.668  -5.238  19.548  0.00  0.00    +0.210 HD
ENDBRANCH   4  18
BRANCH   3  20
ATOM     20  C   UNL     1       6.943  -2.661  21.933  0.00  0.00    +0.206 C 
BRANCH  20  21
ATOM     21  O   UNL     1       8.295  -3.015  22.198  0.00  0.00    -0.284 OA
BRANCH  21  22
ATOM     22  P   UNL     1       9.012  -2.021  23.419  0.00  0.00    +0.483 P 
ATOM     23  O   UNL     1      10.306  -2.097  22.621  0.00  0.00    -0.227 OA
BRANCH  22  24
ATOM     24  O   UNL     1       8.739  -3.240  24.448  0.00  0.00    -0.302 OA
ATOM     25  H   UNL     1       9.428  -3.298  25.154  0.00  0.00    +0.222 HD
ENDBRANCH  22  24
BRANCH  22  26
ATOM     26  O   UNL     1       9.728  -1.027  24.641  0.00  0.00    -0.186 OA
BRANCH  26  27
ATOM     27  P   UNL     1       8.767  -0.397  25.748  0.00  0.00    +0.492 P 
ATOM     28  O   UNL     1       8.955  -0.865  27.151  0.00  0.00    -0.226 OA
BRANCH  27  29
ATOM     29  O   UNL     1       8.959   1.190  25.626  0.00  0.00    -0.302 OA
ATOM     30  H   UNL     1       8.838   1.648  26.480  0.00  0.00    +0.222 HD
ENDBRANCH  27  29
BRANCH  27  31
ATOM     31  O   UNL     1       7.353  -0.663  25.103  0.00  0.00    -0.186 OA
BRANCH  31  32
ATOM     32  P   UNL     1       5.917  -1.004  26.005  0.00  0.00    +0.481 P 
ATOM     33  O   UNL     1       4.632  -1.310  26.812  0.00  0.00    -0.227 OA
BRANCH  32  34
ATOM     34  O   UNL     1       6.484  -2.539  26.110  0.00  0.00    -0.302 OA
ATOM     35  H   UNL     1       6.932  -2.818  25.292  0.00  0.00    +0.222 HD
ENDBRANCH  32  34
BRANCH  32  36
ATOM     36  O   UNL     1       5.235  -1.283  24.531  0.00  0.00    -0.302 OA
ATOM     37  H   UNL     1       5.228  -2.263  24.461  0.00  0.00    +0.222 HD
ENDBRANCH  32  36
ENDBRANCH  31  32
ENDBRANCH  27  31
ENDBRANCH  26  27
ENDBRANCH  22  26
ENDBRANCH  21  22
ENDBRANCH  20  21
ENDBRANCH   3  20
TORSDOF 13
ENDMDL
MODEL 5
REMARK VINA RESULT:      -6.9      5.342      8.425
REMARK  Name = 
REMARK  13 active torsions:
REMARK  status: ('A' for Active; 'I' for Inactive)
REMARK    1  A    between atoms: N_10  and  C_11
REMARK    2  A    between atoms: C_14  and  O_16
REMARK    3  A    between atoms: C_17  and  C_19
REMARK    4  A    between atoms: C_19  and  O_20
REMARK    5  A    between atoms: O_20  and  P_21
REMARK    6  A    between atoms: P_21  and  O_22
REMARK    7  A    between atoms: P_21  and  O_24
REMARK    8  A    between atoms: O_24  and  P_25
REMARK    9  A    between atoms: P_25  and  O_26
REMARK   10  A    between atoms: P_25  and  O_28
REMARK   11  A    between atoms: O_28  and  P_29
REMARK   12  A    between atoms: P_29  and  O_30
REMARK   13  A    between atoms: P_29  and  O_31
REMARK                            x       y       z     vdW  Elec       q    Type
REMARK                         _______ _______ _______ _____ _____    ______ ____
ROOT
ATOM      1  C   UNL     1       6.873  -4.743  26.215  0.00  0.00    +0.225 C 
ATOM      2  O   UNL     1       6.759  -4.479  24.798  0.00  0.00    -0.348 OA
ATOM      3  C   UNL     1       8.088  -4.518  24.226  0.00  0.00    +0.175 C 
ATOM      4  C   UNL     1       9.065  -4.696  25.387  0.00  0.00    +0.150 C 
ATOM      5  C   UNL     1       8.219  -5.413  26.405  0.00  0.00    +0.088 C 
ENDROOT
BRANCH   1  13
ATOM      6  N   UNL     1       2.896  -7.984  29.407  0.00  0.00    -0.341 N 
ATOM      7  H   UNL     1       2.261  -7.992  28.616  0.00  0.00    +0.144 HD
ATOM      8  H   UNL     1       2.495  -7.925  30.334  0.00  0.00    +0.144 HD
ATOM      9  C   UNL     1       3.968  -7.114  29.244  0.00  0.00    +0.147 A 
ATOM     10  C   UNL     1       4.408  -6.657  27.994  0.00  0.00    +0.147 A 
ATOM     11  N   UNL     1       3.968  -6.867  26.702  0.00  0.00    -0.231 NA
ATOM     12  C   UNL     1       4.805  -6.185  25.941  0.00  0.00    +0.203 A 
ATOM     13  N   UNL     1       5.761  -5.547  26.680  0.00  0.00    -0.288 N 
ATOM     14  C   UNL     1       5.507  -5.806  28.000  0.00  0.00    +0.167 A 
ATOM     15  N   UNL     1       6.185  -5.359  29.068  0.00  0.00    -0.216 NA
ATOM     16  C   UNL     1       5.663  -5.852  30.210  0.00  0.00    +0.225 A 
ATOM     17  N   UNL     1       4.608  -6.684  30.356  0.00  0.00    -0.219 NA
ENDBRANCH   1  13
BRANCH   4  18
ATOM     18  O   UNL     1      10.227  -5.441  25.074  0.00  0.00    -0.389 OA
ATOM     19  H   UNL     1      10.162  -5.765  24.159  0.00  0.00    +0.210 HD
ENDBRANCH   4  18
BRANCH   3  20
ATOM     20  C   UNL     1       8.335  -3.237  23.433  0.00  0.00    +0.206 C 
BRANCH  20  21
ATOM     21  O   UNL     1       9.562  -2.621  23.806  0.00  0.00    -0.284 OA
BRANCH  21  22
ATOM     22  P   UNL     1       9.830  -1.125  22.981  0.00  0.00    +0.483 P 
ATOM     23  O   UNL     1      10.932  -1.832  22.205  0.00  0.00    -0.227 OA
BRANCH  22  24
ATOM     24  O   UNL     1      10.255  -0.511  24.417  0.00  0.00    -0.302 OA
ATOM     25  H   UNL     1       9.697  -0.858  25.154  0.00  0.00    +0.222 HD
ENDBRANCH  22  24
BRANCH  22  26
ATOM     26  O   UNL     1      10.098   0.373  22.158  0.00  0.00    -0.186 OA
BRANCH  26  27
ATOM     27  P   UNL     1       9.555   1.708  22.843  0.00  0.00    +0.492 P 
ATOM     28  O   UNL     1      10.470   2.397  23.797  0.00  0.00    -0.226 OA
BRANCH  27  29
ATOM     29  O   UNL     1       9.136   2.670  21.630  0.00  0.00    -0.302 OA
ATOM     30  H   UNL     1       8.217   2.990  21.707  0.00  0.00    +0.222 HD
ENDBRANCH  27  29
BRANCH  27  31
ATOM     31  O   UNL     1       8.179   1.207  23.428  0.00  0.00    -0.186 OA
BRANCH  31  32
ATOM     32  P   UNL     1       7.294   2.019  24.671  0.00  0.00    +0.481 P 
ATOM     33  O   UNL     1       6.502   2.747  25.785  0.00  0.00    -0.227 OA
BRANCH  32  34
ATOM     34  O   UNL     1       7.976   3.397  24.099  0.00  0.00    -0.302 OA
ATOM     35  H   UNL     1       8.840   3.573  24.513  0.00  0.00    +0.222 HD
ENDBRANCH  32  34
BRANCH  32  36
ATOM     36  O   UNL     1       8.602   1.682  25.617  0.00  0.00    -0.302 OA
ATOM     37  H   UNL     1       9.327   1.545  24.968  0.00  0.00    +0.222 HD
ENDBRANCH  32  36
ENDBRANCH  31  32
ENDBRANCH  27  31
ENDBRANCH  26  27
ENDBRANCH  22  26
ENDBRANCH  21  22
ENDBRANCH  20  21
ENDBRANCH   3  20
TORSDOF 13
ENDMDL
MODEL 6
REMARK VINA RESULT:      -6.9      5.690      8.107
REMARK  Name = 
REMARK  13 active torsions:
REMARK  status: ('A' for Active; 'I' for Inactive)
REMARK    1  A    between atoms: N_10  and  C_11
REMARK    2  A    between atoms: C_14  and  O_16
REMARK    3  A    between atoms: C_17  and  C_19
REMARK    4  A    between atoms: C_19  and  O_20
REMARK    5  A    between atoms: O_20  and  P_21
REMARK    6  A    between atoms: P_21  and  O_22
REMARK    7  A    between atoms: P_21  and  O_24
REMARK    8  A    between atoms: O_24  and  P_25
REMARK    9  A    between atoms: P_25  and  O_26
REMARK   10  A    between atoms: P_25  and  O_28
REMARK   11  A    between atoms: O_28  and  P_29
REMARK   12  A    between atoms: P_29  and  O_30
REMARK   13  A    between atoms: P_29  and  O_31
REMARK                            x       y       z     vdW  Elec       q    Type
REMARK                         _______ _______ _______ _____ _____    ______ ____
ROOT
ATOM      1  C   UNL     1       8.050  -2.629  24.909  0.00  0.00    +0.225 C 
ATOM      2  O   UNL     1       9.145  -2.865  23.994  0.00  0.00    -0.348 OA
ATOM      3  C   UNL     1       9.999  -1.697  24.005  0.00  0.00    +0.175 C 
ATOM      4  C   UNL     1       9.312  -0.654  24.884  0.00  0.00    +0.150 C 
ATOM      5  C   UNL     1       8.510  -1.513  25.826  0.00  0.00    +0.088 C 
ENDROOT
BRANCH   1  13
ATOM      6  N   UNL     1       5.256  -7.266  27.590  0.00  0.00    -0.341 N 
ATOM      7  H   UNL     1       6.143  -7.748  27.691  0.00  0.00    +0.144 HD
ATOM      8  H   UNL     1       4.435  -7.824  27.396  0.00  0.00    +0.144 HD
ATOM      9  C   UNL     1       5.329  -6.142  26.776  0.00  0.00    +0.147 A 
ATOM     10  C   UNL     1       6.525  -5.462  26.503  0.00  0.00    +0.147 A 
ATOM     11  N   UNL     1       7.837  -5.672  26.878  0.00  0.00    -0.231 NA
ATOM     12  C   UNL     1       8.512  -4.680  26.325  0.00  0.00    +0.203 A 
ATOM     13  N   UNL     1       7.698  -3.843  25.616  0.00  0.00    -0.288 N 
ATOM     14  C   UNL     1       6.426  -4.343  25.686  0.00  0.00    +0.167 A 
ATOM     15  N   UNL     1       5.319  -3.848  25.113  0.00  0.00    -0.216 NA
ATOM     16  C   UNL     1       4.239  -4.590  25.433  0.00  0.00    +0.225 A 
ATOM     17  N   UNL     1       4.184  -5.693  26.213  0.00  0.00    -0.219 NA
ENDBRANCH   1  13
BRANCH   4  18
ATOM     18  O   UNL     1      10.195   0.194  25.595  0.00  0.00    -0.389 OA
ATOM     19  H   UNL     1      10.973   0.383  25.042  0.00  0.00    +0.210 HD
ENDBRANCH   4  18
BRANCH   3  20
ATOM     20  C   UNL     1      10.216  -1.216  22.571  0.00  0.00    +0.206 C 
BRANCH  20  21
ATOM     21  O   UNL     1      10.439   0.189  22.522  0.00  0.00    -0.284 OA
BRANCH  21  22
ATOM     22  P   UNL     1       9.044   1.063  21.992  0.00  0.00    +0.483 P 
ATOM     23  O   UNL     1       8.893   0.018  20.895  0.00  0.00    -0.227 OA
BRANCH  22  24
ATOM     24  O   UNL     1      10.045   2.292  21.669  0.00  0.00    -0.302 OA
ATOM     25  H   UNL     1      10.325   2.773  22.485  0.00  0.00    +0.222 HD
ENDBRANCH  22  24
BRANCH  22  26
ATOM     26  O   UNL     1       7.648   1.938  21.463  0.00  0.00    -0.186 OA
BRANCH  26  27
ATOM     27  P   UNL     1       6.654   2.501  22.578  0.00  0.00    +0.492 P 
ATOM     28  O   UNL     1       5.502   3.319  22.103  0.00  0.00    -0.226 OA
BRANCH  27  29
ATOM     29  O   UNL     1       6.163   1.215  23.399  0.00  0.00    -0.302 OA
ATOM     30  H   UNL     1       6.360   1.283  24.353  0.00  0.00    +0.222 HD
ENDBRANCH  27  29
BRANCH  27  31
ATOM     31  O   UNL     1       7.668   3.214  23.551  0.00  0.00    -0.186 OA
BRANCH  31  32
ATOM     32  P   UNL     1       8.065   4.896  23.485  0.00  0.00    +0.481 P 
ATOM     33  O   UNL     1       8.421   6.402  23.424  0.00  0.00    -0.227 OA
BRANCH  32  34
ATOM     34  O   UNL     1       7.903   4.754  21.858  0.00  0.00    -0.302 OA
ATOM     35  H   UNL     1       7.159   4.173  21.617  0.00  0.00    +0.222 HD
ENDBRANCH  32  34
BRANCH  32  36
ATOM     36  O   UNL     1       9.629   4.374  23.444  0.00  0.00    -0.302 OA
ATOM     37  H   UNL     1       9.934   4.488  24.370  0.00  0.00    +0.222 HD
ENDBRANCH  32  36
ENDBRANCH  31  32
ENDBRANCH  27  31
ENDBRANCH  26  27
ENDBRANCH  22  26
ENDBRANCH  21  22
ENDBRANCH  20  21
ENDBRANCH   3  20
TORSDOF 13
ENDMDL
MODEL 7
REMARK VINA RESULT:      -6.8      1.607      2.893
REMARK  Name = 
REMARK  13 active torsions:
REMARK  status: ('A' for Active; 'I' for Inactive)
REMARK    1  A    between atoms: N_10  and  C_11
REMARK    2  A    between atoms: C_14  and  O_16
REMARK    3  A    between atoms: C_17  and  C_19
REMARK    4  A    between atoms: C_19  and  O_20
REMARK    5  A    between atoms: O_20  and  P_21
REMARK    6  A    between atoms: P_21  and  O_22
REMARK    7  A    between atoms: P_21  and  O_24
REMARK    8  A    between atoms: O_24  and  P_25
REMARK    9  A    between atoms: P_25  and  O_26
REMARK   10  A    between atoms: P_25  and  O_28
REMARK   11  A    between atoms: O_28  and  P_29
REMARK   12  A    between atoms: P_29  and  O_30
REMARK   13  A    between atoms: P_29  and  O_31
REMARK                            x       y       z     vdW  Elec       q    Type
REMARK                         _______ _______ _______ _____ _____    ______ ____
ROOT
ATOM      1  C   UNL     1       8.596  -1.985  24.641  0.00  0.00    +0.225 C 
ATOM      2  O   UNL     1       8.369  -2.290  26.035  0.00  0.00    -0.348 OA
ATOM      3  C   UNL     1       8.759  -3.665  26.263  0.00  0.00    +0.175 C 
ATOM      4  C   UNL     1       9.127  -4.253  24.901  0.00  0.00    +0.150 C 
ATOM      5  C   UNL     1       9.571  -3.032  24.140  0.00  0.00    +0.088 C 
ENDROOT
BRANCH   1  13
ATOM      6  N   UNL     1       9.575   3.753  23.021  0.00  0.00    -0.341 N 
ATOM      7  H   UNL     1      10.229   3.863  23.788  0.00  0.00    +0.144 HD
ATOM      8  H   UNL     1       8.993   4.545  22.780  0.00  0.00    +0.144 HD
ATOM      9  C   UNL     1       8.849   2.569  23.080  0.00  0.00    +0.147 A 
ATOM     10  C   UNL     1       9.267   1.443  23.805  0.00  0.00    +0.147 A 
ATOM     11  N   UNL     1      10.363   1.188  24.605  0.00  0.00    -0.231 NA
ATOM     12  C   UNL     1      10.216  -0.066  24.994  0.00  0.00    +0.203 A 
ATOM     13  N   UNL     1       9.081  -0.629  24.483  0.00  0.00    -0.288 N 
ATOM     14  C   UNL     1       8.438   0.330  23.746  0.00  0.00    +0.167 A 
ATOM     15  N   UNL     1       7.274   0.214  23.089  0.00  0.00    -0.216 NA
ATOM     16  C   UNL     1       6.970   1.360  22.445  0.00  0.00    +0.225 A 
ATOM     17  N   UNL     1       7.677   2.512  22.409  0.00  0.00    -0.219 NA
ENDBRANCH   1  13
BRANCH   4  18
ATOM     18  O   UNL     1      10.148  -5.232  24.936  0.00  0.00    -0.389 OA
ATOM     19  H   UNL     1      11.012  -4.791  25.013  0.00  0.00    +0.210 HD
ENDBRANCH   4  18
BRANCH   3  20
ATOM     20  C   UNL     1       7.611  -4.411  26.941  0.00  0.00    +0.206 C 
BRANCH  20  21
ATOM     21  O   UNL     1       7.243  -5.575  26.211  0.00  0.00    -0.284 OA
BRANCH  21  22
ATOM     22  P   UNL     1       5.575  -5.569  25.752  0.00  0.00    +0.483 P 
ATOM     23  O   UNL     1       5.441  -4.264  26.524  0.00  0.00    -0.227 OA
BRANCH  22  24
ATOM     24  O   UNL     1       5.423  -6.927  26.620  0.00  0.00    -0.302 OA
ATOM     25  H   UNL     1       4.852  -6.801  27.416  0.00  0.00    +0.222 HD
ENDBRANCH  22  24
BRANCH  22  26
ATOM     26  O   UNL     1       3.907  -5.565  25.293  0.00  0.00    -0.186 OA
BRANCH  26  27
ATOM     27  P   UNL     1       3.521  -6.192  23.878  0.00  0.00    +0.492 P 
ATOM     28  O   UNL     1       3.533  -5.270  22.705  0.00  0.00    -0.226 OA
BRANCH  27  29
ATOM     29  O   UNL     1       4.527  -7.422  23.668  0.00  0.00    -0.302 OA
ATOM     30  H   UNL     1       4.170  -8.261  24.017  0.00  0.00    +0.222 HD
ENDBRANCH  27  29
BRANCH  27  31
ATOM     31  O   UNL     1       2.143  -6.877  24.219  0.00  0.00    -0.186 OA
BRANCH  31  32
ATOM     32  P   UNL     1       1.957  -8.547  24.626  0.00  0.00    +0.481 P 
ATOM     33  O   UNL     1       1.791 -10.042  24.991  0.00  0.00    -0.227 OA
BRANCH  32  34
ATOM     34  O   UNL     1       0.622  -8.079  25.456  0.00  0.00    -0.302 OA
ATOM     35  H   UNL     1      -0.167  -8.582  25.188  0.00  0.00    +0.222 HD
ENDBRANCH  32  34
BRANCH  32  36
ATOM     36  O   UNL     1       2.953  -8.196  25.893  0.00  0.00    -0.302 OA
ATOM     37  H   UNL     1       3.723  -7.760  25.467  0.00  0.00    +0.222 HD
ENDBRANCH  32  36
ENDBRANCH  31  32
ENDBRANCH  27  31
ENDBRANCH  26  27
ENDBRANCH  22  26
ENDBRANCH  21  22
ENDBRANCH  20  21
ENDBRANCH   3  20
TORSDOF 13
ENDMDL
MODEL 8
REMARK VINA RESULT:      -6.8      1.920      3.617
REMARK  Name = 
REMARK  13 active torsions:
REMARK  status: ('A' for Active; 'I' for Inactive)
REMARK    1  A    between atoms: N_10  and  C_11
REMARK    2  A    between atoms: C_14  and  O_16
REMARK    3  A    between atoms: C_17  and  C_19
REMARK    4  A    between atoms: C_19  and  O_20
REMARK    5  A    between atoms: O_20  and  P_21
REMARK    6  A    between atoms: P_21  and  O_22
REMARK    7  A    between atoms: P_21  and  O_24
REMARK    8  A    between atoms: O_24  and  P_25
REMARK    9  A    between atoms: P_25  and  O_26
REMARK   10  A    between atoms: P_25  and  O_28
REMARK   11  A    between atoms: O_28  and  P_29
REMARK   12  A    between atoms: P_29  and  O_30
REMARK   13  A    between atoms: P_29  and  O_31
REMARK                            x       y       z     vdW  Elec       q    Type
REMARK                         _______ _______ _______ _____ _____    ______ ____
ROOT
ATOM      1  C   UNL     1       7.858  -1.420  23.561  0.00  0.00    +0.225 C 
ATOM      2  O   UNL     1       8.586  -2.654  23.368  0.00  0.00    -0.348 OA
ATOM      3  C   UNL     1       7.662  -3.645  22.857  0.00  0.00    +0.175 C 
ATOM      4  C   UNL     1       6.276  -3.001  22.860  0.00  0.00    +0.150 C 
ATOM      5  C   UNL     1       6.606  -1.539  22.714  0.00  0.00    +0.088 C 
ENDROOT
BRANCH   1  13
ATOM      6  N   UNL     1      10.448   4.014  23.041  0.00  0.00    -0.341 N 
ATOM      7  H   UNL     1      11.198   3.609  22.491  0.00  0.00    +0.144 HD
ATOM      8  H   UNL     1      10.681   4.767  23.676  0.00  0.00    +0.144 HD
ATOM      9  C   UNL     1       9.625   3.064  23.635  0.00  0.00    +0.147 A 
ATOM     10  C   UNL     1       9.518   1.742  23.180  0.00  0.00    +0.147 A 
ATOM     11  N   UNL     1      10.128   1.043  22.157  0.00  0.00    -0.231 NA
ATOM     12  C   UNL     1       9.599  -0.166  22.209  0.00  0.00    +0.203 A 
ATOM     13  N   UNL     1       8.679  -0.278  23.213  0.00  0.00    -0.288 N 
ATOM     14  C   UNL     1       8.635   0.922  23.871  0.00  0.00    +0.167 A 
ATOM     15  N   UNL     1       7.886   1.245  24.936  0.00  0.00    -0.216 NA
ATOM     16  C   UNL     1       8.083   2.531  25.290  0.00  0.00    +0.225 A 
ATOM     17  N   UNL     1       8.901   3.441  24.714  0.00  0.00    -0.219 NA
ENDBRANCH   1  13
BRANCH   4  18
ATOM     18  O   UNL     1       5.419  -3.436  21.821  0.00  0.00    -0.389 OA
ATOM     19  H   UNL     1       4.495  -3.356  22.113  0.00  0.00    +0.210 HD
ENDBRANCH   4  18
BRANCH   3  20
ATOM     20  C   UNL     1       7.735  -4.899  23.725  0.00  0.00    +0.206 C 
BRANCH  20  21
ATOM     21  O   UNL     1       8.228  -4.604  25.027  0.00  0.00    -0.284 OA
BRANCH  21  22
ATOM     22  P   UNL     1       7.031  -4.833  26.256  0.00  0.00    +0.483 P 
ATOM     23  O   UNL     1       7.366  -3.431  26.743  0.00  0.00    -0.227 OA
BRANCH  22  24
ATOM     24  O   UNL     1       7.969  -6.025  26.822  0.00  0.00    -0.302 OA
ATOM     25  H   UNL     1       8.676  -6.282  26.183  0.00  0.00    +0.222 HD
ENDBRANCH  22  24
BRANCH  22  26
ATOM     26  O   UNL     1       5.835  -5.064  27.484  0.00  0.00    -0.186 OA
BRANCH  26  27
ATOM     27  P   UNL     1       5.036  -6.445  27.496  0.00  0.00    +0.492 P 
ATOM     28  O   UNL     1       5.537  -7.507  28.416  0.00  0.00    -0.226 OA
BRANCH  27  29
ATOM     29  O   UNL     1       3.515  -6.055  27.822  0.00  0.00    -0.302 OA
ATOM     30  H   UNL     1       2.935  -6.130  27.041  0.00  0.00    +0.222 HD
ENDBRANCH  27  29
BRANCH  27  31
ATOM     31  O   UNL     1       5.022  -6.797  25.959  0.00  0.00    -0.186 OA
BRANCH  31  32
ATOM     32  P   UNL     1       3.598  -6.825  24.978  0.00  0.00    +0.481 P 
ATOM     33  O   UNL     1       2.324  -6.852  24.099  0.00  0.00    -0.227 OA
BRANCH  32  34
ATOM     34  O   UNL     1       3.283  -8.276  25.677  0.00  0.00    -0.302 OA
ATOM     35  H   UNL     1       3.157  -8.196  26.639  0.00  0.00    +0.222 HD
ENDBRANCH  32  34
BRANCH  32  36
ATOM     36  O   UNL     1       4.576  -7.508  23.840  0.00  0.00    -0.302 OA
ATOM     37  H   UNL     1       5.289  -7.928  24.369  0.00  0.00    +0.222 HD
ENDBRANCH  32  36
ENDBRANCH  31  32
ENDBRANCH  27  31
ENDBRANCH  26  27
ENDBRANCH  22  26
ENDBRANCH  21  22
ENDBRANCH  20  21
ENDBRANCH   3  20
TORSDOF 13
ENDMDL
MODEL 9
REMARK VINA RESULT:      -6.7      5.161      8.004
REMARK  Name = 
REMARK  13 active torsions:
REMARK  status: ('A' for Active; 'I' for Inactive)
REMARK    1  A    between atoms: N_10  and  C_11
REMARK    2  A    between atoms: C_14  and  O_16
REMARK    3  A    between atoms: C_17  and  C_19
REMARK    4  A    between atoms: C_19  and  O_20
REMARK    5  A    between atoms: O_20  and  P_21
REMARK    6  A    between atoms: P_21  and  O_22
REMARK    7  A    between atoms: P_21  and  O_24
REMARK    8  A    between atoms: O_24  and  P_25
REMARK    9  A    between atoms: P_25  and  O_26
REMARK   10  A    between atoms: P_25  and  O_28
REMARK   11  A    between atoms: O_28  and  P_29
REMARK   12  A    between atoms: P_29  and  O_30
REMARK   13  A    between atoms: P_29  and  O_31
REMARK                            x       y       z     vdW  Elec       q    Type
REMARK                         _______ _______ _______ _____ _____    ______ ____
ROOT
ATOM      1  C   UNL     1       6.023  -5.481  24.138  0.00  0.00    +0.225 C 
ATOM      2  O   UNL     1       5.776  -4.076  23.901  0.00  0.00    -0.348 OA
ATOM      3  C   UNL     1       5.909  -3.830  22.481  0.00  0.00    +0.175 C 
ATOM      4  C   UNL     1       6.381  -5.138  21.848  0.00  0.00    +0.150 C 
ATOM      5  C   UNL     1       5.832  -6.167  22.800  0.00  0.00    +0.088 C 
ENDROOT
BRANCH   1  13
ATOM      6  N   UNL     1       3.558  -7.609  29.228  0.00  0.00    -0.341 N 
ATOM      7  H   UNL     1       2.631  -7.495  28.832  0.00  0.00    +0.144 HD
ATOM      8  H   UNL     1       3.676  -7.429  30.217  0.00  0.00    +0.144 HD
ATOM      9  C   UNL     1       4.560  -7.017  28.467  0.00  0.00    +0.147 A 
ATOM     10  C   UNL     1       4.417  -6.714  27.105  0.00  0.00    +0.147 A 
ATOM     11  N   UNL     1       3.376  -6.858  26.209  0.00  0.00    -0.231 NA
ATOM     12  C   UNL     1       3.852  -6.412  25.060  0.00  0.00    +0.203 A 
ATOM     13  N   UNL     1       5.147  -5.991  25.173  0.00  0.00    -0.288 N 
ATOM     14  C   UNL     1       5.520  -6.141  26.482  0.00  0.00    +0.167 A 
ATOM     15  N   UNL     1       6.699  -5.829  27.038  0.00  0.00    -0.216 NA
ATOM     16  C   UNL     1       6.713  -6.151  28.348  0.00  0.00    +0.225 A 
ATOM     17  N   UNL     1       5.725  -6.711  29.082  0.00  0.00    -0.219 NA
ENDBRANCH   1  13
BRANCH   4  18
ATOM     18  O   UNL     1       5.912  -5.360  20.531  0.00  0.00    -0.389 OA
ATOM     19  H   UNL     1       6.299  -4.694  19.936  0.00  0.00    +0.210 HD
ENDBRANCH   4  18
BRANCH   3  20
ATOM     20  C   UNL     1       6.884  -2.676  22.257  0.00  0.00    +0.206 C 
BRANCH  20  21
ATOM     21  O   UNL     1       8.236  -3.114  22.332  0.00  0.00    -0.284 OA
BRANCH  21  22
ATOM     22  P   UNL     1       9.212  -2.083  23.320  0.00  0.00    +0.483 P 
ATOM     23  O   UNL     1       9.814  -3.346  23.920  0.00  0.00    -0.227 OA
BRANCH  22  24
ATOM     24  O   UNL     1       7.833  -1.566  23.990  0.00  0.00    -0.302 OA
ATOM     25  H   UNL     1       7.847  -0.597  24.180  0.00  0.00    +0.222 HD
ENDBRANCH  22  24
BRANCH  22  26
ATOM     26  O   UNL     1      10.188  -1.051  24.308  0.00  0.00    -0.186 OA
BRANCH  26  27
ATOM     27  P   UNL     1       9.831   0.504  24.341  0.00  0.00    +0.492 P 
ATOM     28  O   UNL     1       8.808   0.941  25.334  0.00  0.00    -0.226 OA
BRANCH  27  29
ATOM     29  O   UNL     1      11.228   1.258  24.566  0.00  0.00    -0.302 OA
ATOM     30  H   UNL     1      11.423   1.411  25.510  0.00  0.00    +0.222 HD
ENDBRANCH  27  29
BRANCH  27  31
ATOM     31  O   UNL     1       9.493   0.766  22.824  0.00  0.00    -0.186 OA
BRANCH  31  32
ATOM     32  P   UNL     1       8.419   2.001  22.263  0.00  0.00    +0.481 P 
ATOM     33  O   UNL     1       7.458   3.105  21.759  0.00  0.00    -0.227 OA
BRANCH  32  34
ATOM     34  O   UNL     1       7.208   0.968  22.658  0.00  0.00    -0.302 OA
ATOM     35  H   UNL     1       6.933   1.069  23.587  0.00  0.00    +0.222 HD
ENDBRANCH  32  34
BRANCH  32  36
ATOM     36  O   UNL     1       8.626   1.301  20.784  0.00  0.00    -0.302 OA
ATOM     37  H   UNL     1       9.599   1.183  20.718  0.00  0.00    +0.222 HD
ENDBRANCH  32  36
ENDBRANCH  31  32
ENDBRANCH  27  31
ENDBRANCH  26  27
ENDBRANCH  22  26
ENDBRANCH  21  22
ENDBRANCH  20  21
ENDBRANCH   3  20
TORSDOF 13
ENDMDL
