MODEL 1
REMARK VINA RESULT:      -7.6      0.000      0.000
REMARK  Name = 
REMARK  9 active torsions:
REMARK  status: ('A' for Active; 'I' for Inactive)
REMARK    1  A    between atoms: O_1  and  C_2
REMARK    2  A    between atoms: C_2  and  C_4
REMARK    3  A    between atoms: C_4  and  C_6
REMARK    4  A    between atoms: C_4  and  N_13
REMARK    5  A    between atoms: C_6  and  C_7
REMARK    6  A    between atoms: N_13  and  C_14
REMARK    7  A    between atoms: C_14  and  C_15
REMARK    8  A    between atoms: C_18  and  C_20
REMARK    9  A    between atoms: C_29  and  C_31
REMARK                            x       y       z     vdW  Elec       q    Type
REMARK                         _______ _______ _______ _____ _____    ______ ____
ROOT
ATOM      1  N   UNL     1       7.267  -3.566  25.330  0.00  0.00    -0.279 N 
ATOM      2  C   UNL     1       6.709  -4.611  24.539  0.00  0.00    +0.249 C 
ATOM      3  O   UNL     1       7.421  -5.309  23.822  0.00  0.00    -0.270 OA
ENDROOT
BRANCH   2   4
ATOM      4  C   UNL     1       5.238  -4.932  24.559  0.00  0.00    +0.055 A 
ATOM      5  C   UNL     1       4.650  -5.616  25.643  0.00  0.00    +0.054 A 
ATOM      6 CL   UNL     1       5.528  -6.207  27.013  0.00  0.00    -0.083 Cl
ATOM      7  C   UNL     1       3.272  -5.885  25.654  0.00  0.00    +0.040 A 
ATOM      8  C   UNL     1       2.477  -5.510  24.579  0.00  0.00    +0.042 A 
ATOM      9 CL   UNL     1       0.799  -5.885  24.578  0.00  0.00    -0.083 Cl
ATOM     10  C   UNL     1       3.032  -4.818  23.510  0.00  0.00    +0.021 A 
ATOM     11  C   UNL     1       4.392  -4.486  23.528  0.00  0.00    +0.016 A 
ENDBRANCH   2   4
BRANCH   1  12
ATOM     12  C   UNL     1       8.772  -3.444  25.259  0.00  0.00    +0.189 C 
BRANCH  12  13
ATOM     13  C   UNL     1       9.656  -4.595  25.763  0.00  0.00    +0.326 C 
ATOM     14  O   UNL     1      10.479  -5.223  25.111  0.00  0.00    -0.249 OA
BRANCH  13  15
ATOM     15  O   UNL     1       9.426  -4.907  27.058  0.00  0.00    -0.479 OA
ATOM     16  H   UNL     1       8.964  -4.123  27.422  0.00  0.00    +0.295 HD
ENDBRANCH  13  15
ENDBRANCH  12  13
BRANCH  12  17
ATOM     17  C   UNL     1       9.278  -3.236  23.793  0.00  0.00    +0.069 C 
BRANCH  17  18
ATOM     18  C   UNL     1       9.633  -1.802  23.451  0.00  0.00    -0.045 A 
ATOM     19  C   UNL     1      10.050  -0.910  24.448  0.00  0.00    +0.004 A 
ATOM     20  C   UNL     1      10.361   0.413  24.128  0.00  0.00    +0.000 A 
ATOM     21  C   UNL     1      10.244   0.861  22.814  0.00  0.00    +0.000 A 
ATOM     22  C   UNL     1       9.817  -0.015  21.817  0.00  0.00    +0.000 A 
ATOM     23  C   UNL     1       9.516  -1.341  22.133  0.00  0.00    +0.004 A 
ENDBRANCH  17  18
ENDBRANCH  12  17
ENDBRANCH   1  12
BRANCH   1  24
ATOM     24  C   UNL     1       6.381  -2.473  25.764  0.00  0.00    +0.151 C 
BRANCH  24  25
ATOM     25  C   UNL     1       6.361  -1.177  25.040  0.00  0.00    +0.008 A 
ATOM     26  S   UNL     1       6.780   0.261  25.855  0.00  0.00    -0.089 S 
ATOM     27  C   UNL     1       6.813   1.162  24.400  0.00  0.00    +0.055 A 
ATOM     28  C   UNL     1       6.431   0.392  23.318  0.00  0.00    +0.019 A 
ATOM     29  C   UNL     1       6.196  -0.963  23.685  0.00  0.00    +0.013 A 
BRANCH  27  30
ATOM     30  C   UNL     1       7.263   2.522  24.369  0.00  0.00    +0.143 A 
ATOM     31  O   UNL     1       6.939   3.384  23.350  0.00  0.00    -0.454 OA
ATOM     32  C   UNL     1       7.632   4.541  23.548  0.00  0.00    +0.136 A 
ATOM     33  C   UNL     1       7.617   5.651  22.712  0.00  0.00    +0.047 A 
ATOM     34  C   UNL     1       8.439   6.719  23.087  0.00  0.00    +0.004 A 
ATOM     35  C   UNL     1       9.217   6.663  24.247  0.00  0.00    +0.001 A 
ATOM     36  C   UNL     1       9.190   5.540  25.080  0.00  0.00    +0.011 A 
ATOM     37  C   UNL     1       8.379   4.455  24.716  0.00  0.00    +0.021 A 
ATOM     38  C   UNL     1       8.112   3.175  25.250  0.00  0.00    +0.059 A 
ENDBRANCH  27  30
ENDBRANCH  24  25
ENDBRANCH   1  24
TORSDOF 9
ENDMDL
MODEL 2
REMARK VINA RESULT:      -7.6      3.759      8.193
REMARK  Name = 
REMARK  9 active torsions:
REMARK  status: ('A' for Active; 'I' for Inactive)
REMARK    1  A    between atoms: O_1  and  C_2
REMARK    2  A    between atoms: C_2  and  C_4
REMARK    3  A    between atoms: C_4  and  C_6
REMARK    4  A    between atoms: C_4  and  N_13
REMARK    5  A    between atoms: C_6  and  C_7
REMARK    6  A    between atoms: N_13  and  C_14
REMARK    7  A    between atoms: C_14  and  C_15
REMARK    8  A    between atoms: C_18  and  C_20
REMARK    9  A    between atoms: C_29  and  C_31
REMARK                            x       y       z     vdW  Elec       q    Type
REMARK                         _______ _______ _______ _____ _____    ______ ____
ROOT
ATOM      1  N   UNL     1       7.980   3.773  23.674  0.00  0.00    -0.279 N 
ATOM      2  C   UNL     1       7.048   4.573  22.952  0.00  0.00    +0.249 C 
ATOM      3  O   UNL     1       7.431   5.407  22.136  0.00  0.00    -0.270 OA
ENDROOT
BRANCH   2   4
ATOM      4  C   UNL     1       5.561   4.422  23.129  0.00  0.00    +0.055 A 
ATOM      5  C   UNL     1       4.847   5.209  24.057  0.00  0.00    +0.054 A 
ATOM      6 CL   UNL     1       5.578   6.366  25.117  0.00  0.00    -0.083 Cl
ATOM      7  C   UNL     1       3.457   5.070  24.190  0.00  0.00    +0.040 A 
ATOM      8  C   UNL     1       2.771   4.129  23.432  0.00  0.00    +0.042 A 
ATOM      9 CL   UNL     1       1.075   3.933  23.634  0.00  0.00    -0.083 Cl
ATOM     10  C   UNL     1       3.451   3.358  22.498  0.00  0.00    +0.021 A 
ATOM     11  C   UNL     1       4.826   3.543  22.313  0.00  0.00    +0.016 A 
ENDBRANCH   2   4
BRANCH   1  12
ATOM     12  C   UNL     1       9.431   3.992  23.305  0.00  0.00    +0.189 C 
BRANCH  12  13
ATOM     13  C   UNL     1      10.154   5.263  23.774  0.00  0.00    +0.326 C 
ATOM     14  O   UNL     1       9.854   5.963  24.731  0.00  0.00    -0.249 OA
BRANCH  13  15
ATOM     15  O   UNL     1      11.201   5.594  22.985  0.00  0.00    -0.479 OA
ATOM     16  H   UNL     1      11.894   4.937  23.207  0.00  0.00    +0.295 HD
ENDBRANCH  13  15
ENDBRANCH  12  13
BRANCH  12  17
ATOM     17  C   UNL     1      10.355   2.849  23.845  0.00  0.00    +0.069 C 
BRANCH  17  18
ATOM     18  C   UNL     1      10.183   1.519  23.139  0.00  0.00    -0.045 A 
ATOM     19  C   UNL     1       9.611   1.455  21.861  0.00  0.00    +0.004 A 
ATOM     20  C   UNL     1       9.443   0.225  21.223  0.00  0.00    +0.000 A 
ATOM     21  C   UNL     1       9.830  -0.953  21.860  0.00  0.00    +0.000 A 
ATOM     22  C   UNL     1      10.388  -0.901  23.136  0.00  0.00    +0.000 A 
ATOM     23  C   UNL     1      10.567   0.329  23.771  0.00  0.00    +0.004 A 
ENDBRANCH  17  18
ENDBRANCH  12  17
ENDBRANCH   1  12
BRANCH   1  24
ATOM     24  C   UNL     1       7.545   3.174  24.947  0.00  0.00    +0.151 C 
BRANCH  24  25
ATOM     25  C   UNL     1       7.346   1.708  25.068  0.00  0.00    +0.008 A 
ATOM     26  S   UNL     1       6.678   0.829  23.768  0.00  0.00    -0.089 S 
ATOM     27  C   UNL     1       7.037  -0.674  24.505  0.00  0.00    +0.055 A 
ATOM     28  C   UNL     1       7.586  -0.504  25.761  0.00  0.00    +0.019 A 
ATOM     29  C   UNL     1       7.788   0.869  26.073  0.00  0.00    +0.013 A 
BRANCH  27  30
ATOM     30  C   UNL     1       6.835  -1.915  23.817  0.00  0.00    +0.143 A 
ATOM     31  O   UNL     1       7.400  -3.094  24.238  0.00  0.00    -0.454 OA
ATOM     32  C   UNL     1       7.132  -4.043  23.299  0.00  0.00    +0.136 A 
ATOM     33  C   UNL     1       7.567  -5.363  23.328  0.00  0.00    +0.047 A 
ATOM     34  C   UNL     1       7.208  -6.157  22.234  0.00  0.00    +0.004 A 
ATOM     35  C   UNL     1       6.443  -5.642  21.183  0.00  0.00    +0.001 A 
ATOM     36  C   UNL     1       6.000  -4.315  21.196  0.00  0.00    +0.011 A 
ATOM     37  C   UNL     1       6.358  -3.500  22.280  0.00  0.00    +0.021 A 
ATOM     38  C   UNL     1       6.147  -2.150  22.635  0.00  0.00    +0.059 A 
ENDBRANCH  27  30
ENDBRANCH  24  25
ENDBRANCH   1  24
TORSDOF 9
ENDMDL
MODEL 3
REMARK VINA RESULT:      -7.5      1.178      1.446
REMARK  Name = 
REMARK  9 active torsions:
REMARK  status: ('A' for Active; 'I' for Inactive)
REMARK    1  A    between atoms: O_1  and  C_2
REMARK    2  A    between atoms: C_2  and  C_4
REMARK    3  A    between atoms: C_4  and  C_6
REMARK    4  A    between atoms: C_4  and  N_13
REMARK    5  A    between atoms: C_6  and  C_7
REMARK    6  A    between atoms: N_13  and  C_14
REMARK    7  A    between atoms: C_14  and  C_15
REMARK    8  A    between atoms: C_18  and  C_20
REMARK    9  A    between atoms: C_29  and  C_31
REMARK                            x       y       z     vdW  Elec       q    Type
REMARK                         _______ _______ _______ _____ _____    ______ ____
ROOT
ATOM      1  N   UNL     1       7.149  -3.296  25.758  0.00  0.00    -0.279 N 
ATOM      2  C   UNL     1       6.297  -4.225  25.095  0.00  0.00    +0.249 C 
ATOM      3  O   UNL     1       6.732  -4.961  24.214  0.00  0.00    -0.270 OA
ENDROOT
BRANCH   2   4
ATOM      4  C   UNL     1       4.842  -4.371  25.452  0.00  0.00    +0.055 A 
ATOM      5  C   UNL     1       4.421  -5.251  26.471  0.00  0.00    +0.054 A 
ATOM      6 CL   UNL     1       5.484  -6.282  27.368  0.00  0.00    -0.083 Cl
ATOM      7  C   UNL     1       3.061  -5.357  26.805  0.00  0.00    +0.040 A 
ATOM      8  C   UNL     1       2.110  -4.620  26.110  0.00  0.00    +0.042 A 
ATOM      9 CL   UNL     1       0.443  -4.790  26.494  0.00  0.00    -0.083 Cl
ATOM     10  C   UNL     1       2.506  -3.734  25.117  0.00  0.00    +0.021 A 
ATOM     11  C   UNL     1       3.865  -3.574  24.829  0.00  0.00    +0.016 A 
ENDBRANCH   2   4
BRANCH   1  12
ATOM     12  C   UNL     1       8.601  -3.346  25.339  0.00  0.00    +0.189 C 
BRANCH  12  13
ATOM     13  C   UNL     1       9.457  -4.569  25.701  0.00  0.00    +0.326 C 
ATOM     14  O   UNL     1      10.120  -5.251  24.931  0.00  0.00    -0.249 OA
BRANCH  13  15
ATOM     15  O   UNL     1       9.404  -4.878  27.016  0.00  0.00    -0.479 OA
ATOM     16  H   UNL     1       9.848  -4.129  27.464  0.00  0.00    +0.295 HD
ENDBRANCH  13  15
ENDBRANCH  12  13
BRANCH  12  17
ATOM     17  C   UNL     1       8.770  -3.254  23.786  0.00  0.00    +0.069 C 
BRANCH  17  18
ATOM     18  C   UNL     1       9.223  -1.896  23.285  0.00  0.00    -0.045 A 
ATOM     19  C   UNL     1       8.982  -1.504  21.961  0.00  0.00    +0.004 A 
ATOM     20  C   UNL     1       9.414  -0.259  21.503  0.00  0.00    +0.000 A 
ATOM     21  C   UNL     1      10.104   0.599  22.357  0.00  0.00    +0.000 A 
ATOM     22  C   UNL     1      10.360   0.214  23.671  0.00  0.00    +0.000 A 
ATOM     23  C   UNL     1       9.919  -1.027  24.134  0.00  0.00    +0.004 A 
ENDBRANCH  17  18
ENDBRANCH  12  17
ENDBRANCH   1  12
BRANCH   1  24
ATOM     24  C   UNL     1       6.532  -2.131  26.415  0.00  0.00    +0.151 C 
BRANCH  24  25
ATOM     25  C   UNL     1       6.535  -0.799  25.759  0.00  0.00    +0.008 A 
ATOM     26  S   UNL     1       7.270   0.530  26.534  0.00  0.00    -0.089 S 
ATOM     27  C   UNL     1       7.140   1.510  25.137  0.00  0.00    +0.055 A 
ATOM     28  C   UNL     1       6.472   0.856  24.119  0.00  0.00    +0.019 A 
ATOM     29  C   UNL     1       6.147  -0.484  24.470  0.00  0.00    +0.013 A 
BRANCH  27  30
ATOM     30  C   UNL     1       7.738   2.811  25.073  0.00  0.00    +0.143 A 
ATOM     31  O   UNL     1       8.711   3.133  24.160  0.00  0.00    -0.454 OA
ATOM     32  C   UNL     1       9.161   4.385  24.455  0.00  0.00    +0.136 A 
ATOM     33  C   UNL     1      10.180   5.061  23.793  0.00  0.00    +0.047 A 
ATOM     34  C   UNL     1      10.509   6.326  24.291  0.00  0.00    +0.004 A 
ATOM     35  C   UNL     1       9.833   6.873  25.387  0.00  0.00    +0.001 A 
ATOM     36  C   UNL     1       8.795   6.176  26.015  0.00  0.00    +0.011 A 
ATOM     37  C   UNL     1       8.457   4.902  25.535  0.00  0.00    +0.021 A 
ATOM     38  C   UNL     1       7.529   3.903  25.903  0.00  0.00    +0.059 A 
ENDBRANCH  27  30
ENDBRANCH  24  25
ENDBRANCH   1  24
TORSDOF 9
ENDMDL
MODEL 4
REMARK VINA RESULT:      -7.3      2.449      5.423
REMARK  Name = 
REMARK  9 active torsions:
REMARK  status: ('A' for Active; 'I' for Inactive)
REMARK    1  A    between atoms: O_1  and  C_2
REMARK    2  A    between atoms: C_2  and  C_4
REMARK    3  A    between atoms: C_4  and  C_6
REMARK    4  A    between atoms: C_4  and  N_13
REMARK    5  A    between atoms: C_6  and  C_7
REMARK    6  A    between atoms: N_13  and  C_14
REMARK    7  A    between atoms: C_14  and  C_15
REMARK    8  A    between atoms: C_18  and  C_20
REMARK    9  A    between atoms: C_29  and  C_31
REMARK                            x       y       z     vdW  Elec       q    Type
REMARK                         _______ _______ _______ _____ _____    ______ ____
ROOT
ATOM      1  N   UNL     1       6.778  -4.249  26.008  0.00  0.00    -0.279 N 
ATOM      2  C   UNL     1       7.311  -4.483  24.708  0.00  0.00    +0.249 C 
ATOM      3  O   UNL     1       7.201  -5.582  24.170  0.00  0.00    -0.270 OA
ENDROOT
BRANCH   2   4
ATOM      4  C   UNL     1       8.006  -3.404  23.921  0.00  0.00    +0.055 A 
ATOM      5  C   UNL     1       7.305  -2.605  22.993  0.00  0.00    +0.054 A 
ATOM      6 CL   UNL     1       5.628  -2.799  22.613  0.00  0.00    -0.083 Cl
ATOM      7  C   UNL     1       7.966  -1.588  22.286  0.00  0.00    +0.040 A 
ATOM      8  C   UNL     1       9.328  -1.380  22.467  0.00  0.00    +0.042 A 
ATOM      9 CL   UNL     1      10.139  -0.164  21.563  0.00  0.00    -0.083 Cl
ATOM     10  C   UNL     1      10.032  -2.143  23.389  0.00  0.00    +0.021 A 
ATOM     11  C   UNL     1       9.362  -3.110  24.147  0.00  0.00    +0.016 A 
ENDBRANCH   2   4
BRANCH   1  12
ATOM     12  C   UNL     1       6.032  -5.416  26.614  0.00  0.00    +0.189 C 
BRANCH  12  13
ATOM     13  C   UNL     1       6.330  -5.844  28.058  0.00  0.00    +0.326 C 
ATOM     14  O   UNL     1       5.601  -5.695  29.029  0.00  0.00    -0.249 OA
BRANCH  13  15
ATOM     15  O   UNL     1       7.549  -6.412  28.198  0.00  0.00    -0.479 OA
ATOM     16  H   UNL     1       7.566  -6.734  29.123  0.00  0.00    +0.295 HD
ENDBRANCH  13  15
ENDBRANCH  12  13
BRANCH  12  17
ATOM     17  C   UNL     1       4.485  -5.179  26.635  0.00  0.00    +0.069 C 
BRANCH  17  18
ATOM     18  C   UNL     1       3.758  -5.678  25.402  0.00  0.00    -0.045 A 
ATOM     19  C   UNL     1       3.224  -4.777  24.471  0.00  0.00    +0.004 A 
ATOM     20  C   UNL     1       2.544  -5.244  23.345  0.00  0.00    +0.000 A 
ATOM     21  C   UNL     1       2.377  -6.613  23.147  0.00  0.00    +0.000 A 
ATOM     22  C   UNL     1       2.892  -7.518  24.074  0.00  0.00    +0.000 A 
ATOM     23  C   UNL     1       3.582  -7.052  25.194  0.00  0.00    +0.004 A 
ENDBRANCH  17  18
ENDBRANCH  12  17
ENDBRANCH   1  12
BRANCH   1  24
ATOM     24  C   UNL     1       7.338  -3.141  26.800  0.00  0.00    +0.151 C 
BRANCH  24  25
ATOM     25  C   UNL     1       7.117  -1.729  26.395  0.00  0.00    +0.008 A 
ATOM     26  S   UNL     1       8.422  -0.632  26.381  0.00  0.00    -0.089 S 
ATOM     27  C   UNL     1       7.500   0.568  25.581  0.00  0.00    +0.055 A 
ATOM     28  C   UNL     1       6.192   0.164  25.399  0.00  0.00    +0.019 A 
ATOM     29  C   UNL     1       5.979  -1.170  25.845  0.00  0.00    +0.013 A 
BRANCH  27  30
ATOM     30  C   UNL     1       8.094   1.787  25.118  0.00  0.00    +0.143 A 
ATOM     31  O   UNL     1       9.228   1.809  24.343  0.00  0.00    -0.454 OA
ATOM     32  C   UNL     1       9.606   3.110  24.196  0.00  0.00    +0.136 A 
ATOM     33  C   UNL     1      10.733   3.558  23.517  0.00  0.00    +0.047 A 
ATOM     34  C   UNL     1      10.952   4.939  23.526  0.00  0.00    +0.004 A 
ATOM     35  C   UNL     1      10.072   5.810  24.175  0.00  0.00    +0.001 A 
ATOM     36  C   UNL     1       8.932   5.328  24.829  0.00  0.00    +0.011 A 
ATOM     37  C   UNL     1       8.701   3.945  24.839  0.00  0.00    +0.021 A 
ATOM     38  C   UNL     1       7.722   3.094  25.398  0.00  0.00    +0.059 A 
ENDBRANCH  27  30
ENDBRANCH  24  25
ENDBRANCH   1  24
TORSDOF 9
ENDMDL
MODEL 5
REMARK VINA RESULT:      -7.2      2.796      7.809
REMARK  Name = 
REMARK  9 active torsions:
REMARK  status: ('A' for Active; 'I' for Inactive)
REMARK    1  A    between atoms: O_1  and  C_2
REMARK    2  A    between atoms: C_2  and  C_4
REMARK    3  A    between atoms: C_4  and  C_6
REMARK    4  A    between atoms: C_4  and  N_13
REMARK    5  A    between atoms: C_6  and  C_7
REMARK    6  A    between atoms: N_13  and  C_14
REMARK    7  A    between atoms: C_14  and  C_15
REMARK    8  A    between atoms: C_18  and  C_20
REMARK    9  A    between atoms: C_29  and  C_31
REMARK                            x       y       z     vdW  Elec       q    Type
REMARK                         _______ _______ _______ _____ _____    ______ ____
ROOT
ATOM      1  N   UNL     1       8.200  -0.365  23.777  0.00  0.00    -0.279 N 
ATOM      2  C   UNL     1       8.141  -0.247  25.196  0.00  0.00    +0.249 C 
ATOM      3  O   UNL     1       9.167  -0.147  25.863  0.00  0.00    -0.270 OA
ENDROOT
BRANCH   2   4
ATOM      4  C   UNL     1       6.835  -0.212  25.942  0.00  0.00    +0.055 A 
ATOM      5  C   UNL     1       6.404  -1.306  26.721  0.00  0.00    +0.054 A 
ATOM      6 CL   UNL     1       7.267  -2.800  26.864  0.00  0.00    -0.083 Cl
ATOM      7  C   UNL     1       5.193  -1.245  27.429  0.00  0.00    +0.040 A 
ATOM      8  C   UNL     1       4.387  -0.117  27.342  0.00  0.00    +0.042 A 
ATOM      9 CL   UNL     1       2.883  -0.069  28.174  0.00  0.00    -0.083 Cl
ATOM     10  C   UNL     1       4.802   0.978  26.596  0.00  0.00    +0.021 A 
ATOM     11  C   UNL     1       6.040   0.949  25.945  0.00  0.00    +0.016 A 
ENDBRANCH   2   4
BRANCH   1  12
ATOM     12  C   UNL     1       9.590  -0.290  23.185  0.00  0.00    +0.189 C 
BRANCH  12  13
ATOM     13  C   UNL     1      10.188  -1.520  22.487  0.00  0.00    +0.326 C 
ATOM     14  O   UNL     1      10.810  -2.430  23.017  0.00  0.00    -0.249 OA
BRANCH  13  15
ATOM     15  O   UNL     1       9.991  -1.513  21.149  0.00  0.00    -0.479 OA
ATOM     16  H   UNL     1      10.886  -1.398  20.769  0.00  0.00    +0.295 HD
ENDBRANCH  13  15
ENDBRANCH  12  13
BRANCH  12  17
ATOM     17  C   UNL     1       9.704   0.821  22.089  0.00  0.00    +0.069 C 
BRANCH  17  18
ATOM     18  C   UNL     1       9.109   2.157  22.487  0.00  0.00    -0.045 A 
ATOM     19  C   UNL     1       9.715   2.945  23.476  0.00  0.00    +0.004 A 
ATOM     20  C   UNL     1       9.154   4.167  23.848  0.00  0.00    +0.000 A 
ATOM     21  C   UNL     1       7.976   4.608  23.248  0.00  0.00    +0.000 A 
ATOM     22  C   UNL     1       7.359   3.827  22.273  0.00  0.00    +0.000 A 
ATOM     23  C   UNL     1       7.925   2.609  21.892  0.00  0.00    +0.004 A 
ENDBRANCH  17  18
ENDBRANCH  12  17
ENDBRANCH   1  12
BRANCH   1  24
ATOM     24  C   UNL     1       7.050  -0.966  23.081  0.00  0.00    +0.151 C 
BRANCH  24  25
ATOM     25  C   UNL     1       6.760  -2.417  23.204  0.00  0.00    +0.008 A 
ATOM     26  S   UNL     1       5.249  -2.936  23.801  0.00  0.00    -0.089 S 
ATOM     27  C   UNL     1       5.558  -4.565  23.376  0.00  0.00    +0.055 A 
ATOM     28  C   UNL     1       6.829  -4.721  22.858  0.00  0.00    +0.019 A 
ATOM     29  C   UNL     1       7.511  -3.478  22.735  0.00  0.00    +0.013 A 
BRANCH  27  30
ATOM     30  C   UNL     1       4.551  -5.577  23.500  0.00  0.00    +0.143 A 
ATOM     31  O   UNL     1       3.455  -5.634  22.674  0.00  0.00    -0.454 OA
ATOM     32  C   UNL     1       2.633  -6.615  23.141  0.00  0.00    +0.136 A 
ATOM     33  C   UNL     1       1.395  -6.960  22.611  0.00  0.00    +0.047 A 
ATOM     34  C   UNL     1       0.699  -7.974  23.275  0.00  0.00    +0.004 A 
ATOM     35  C   UNL     1       1.236  -8.606  24.402  0.00  0.00    +0.001 A 
ATOM     36  C   UNL     1       2.496  -8.252  24.895  0.00  0.00    +0.011 A 
ATOM     37  C   UNL     1       3.206  -7.230  24.247  0.00  0.00    +0.021 A 
ATOM     38  C   UNL     1       4.444  -6.582  24.450  0.00  0.00    +0.059 A 
ENDBRANCH  27  30
ENDBRANCH  24  25
ENDBRANCH   1  24
TORSDOF 9
ENDMDL
MODEL 6
REMARK VINA RESULT:      -7.1      2.692      8.046
REMARK  Name = 
REMARK  9 active torsions:
REMARK  status: ('A' for Active; 'I' for Inactive)
REMARK    1  A    between atoms: O_1  and  C_2
REMARK    2  A    between atoms: C_2  and  C_4
REMARK    3  A    between atoms: C_4  and  C_6
REMARK    4  A    between atoms: C_4  and  N_13
REMARK    5  A    between atoms: C_6  and  C_7
REMARK    6  A    between atoms: N_13  and  C_14
REMARK    7  A    between atoms: C_14  and  C_15
REMARK    8  A    between atoms: C_18  and  C_20
REMARK    9  A    between atoms: C_29  and  C_31
REMARK                            x       y       z     vdW  Elec       q    Type
REMARK                         _______ _______ _______ _____ _____    ______ ____
ROOT
ATOM      1  N   UNL     1       8.688   0.741  23.751  0.00  0.00    -0.279 N 
ATOM      2  C   UNL     1       9.578   0.034  24.609  0.00  0.00    +0.249 C 
ATOM      3  O   UNL     1      10.566   0.587  25.086  0.00  0.00    -0.270 OA
ENDROOT
BRANCH   2   4
ATOM      4  C   UNL     1       9.346  -1.401  24.996  0.00  0.00    +0.055 A 
ATOM      5  C   UNL     1       8.658  -1.742  26.180  0.00  0.00    +0.054 A 
ATOM      6 CL   UNL     1       8.069  -0.588  27.328  0.00  0.00    -0.083 Cl
ATOM      7  C   UNL     1       8.431  -3.087  26.511  0.00  0.00    +0.040 A 
ATOM      8  C   UNL     1       8.912  -4.101  25.692  0.00  0.00    +0.042 A 
ATOM      9 CL   UNL     1       8.670  -5.746  26.130  0.00  0.00    -0.083 Cl
ATOM     10  C   UNL     1       9.574  -3.787  24.512  0.00  0.00    +0.021 A 
ATOM     11  C   UNL     1       9.741  -2.448  24.143  0.00  0.00    +0.016 A 
ENDBRANCH   2   4
BRANCH   1  12
ATOM     12  C   UNL     1       9.023   2.201  23.543  0.00  0.00    +0.189 C 
BRANCH  12  13
ATOM     13  C   UNL     1      10.304   2.590  22.791  0.00  0.00    +0.326 C 
ATOM     14  O   UNL     1      11.254   3.215  23.241  0.00  0.00    -0.249 OA
BRANCH  13  15
ATOM     15  O   UNL     1      10.298   2.191  21.499  0.00  0.00    -0.479 OA
ATOM     16  H   UNL     1       9.350   2.162  21.254  0.00  0.00    +0.295 HD
ENDBRANCH  13  15
ENDBRANCH  12  13
BRANCH  12  17
ATOM     17  C   UNL     1       7.909   2.953  22.741  0.00  0.00    +0.069 C 
BRANCH  17  18
ATOM     18  C   UNL     1       7.743   4.412  23.117  0.00  0.00    -0.045 A 
ATOM     19  C   UNL     1       7.945   4.839  24.437  0.00  0.00    +0.004 A 
ATOM     20  C   UNL     1       7.776   6.182  24.779  0.00  0.00    +0.000 A 
ATOM     21  C   UNL     1       7.389   7.107  23.811  0.00  0.00    +0.000 A 
ATOM     22  C   UNL     1       7.173   6.690  22.499  0.00  0.00    +0.000 A 
ATOM     23  C   UNL     1       7.352   5.350  22.153  0.00  0.00    +0.004 A 
ENDBRANCH  17  18
ENDBRANCH  12  17
ENDBRANCH   1  12
BRANCH   1  24
ATOM     24  C   UNL     1       7.841  -0.039  22.832  0.00  0.00    +0.151 C 
BRANCH  24  25
ATOM     25  C   UNL     1       6.725  -0.870  23.348  0.00  0.00    +0.008 A 
ATOM     26  S   UNL     1       6.393  -2.386  22.640  0.00  0.00    -0.089 S 
ATOM     27  C   UNL     1       5.288  -2.805  23.878  0.00  0.00    +0.055 A 
ATOM     28  C   UNL     1       5.117  -1.769  24.776  0.00  0.00    +0.019 A 
ATOM     29  C   UNL     1       5.965  -0.665  24.485  0.00  0.00    +0.013 A 
BRANCH  27  30
ATOM     30  C   UNL     1       4.706  -4.112  23.955  0.00  0.00    +0.143 A 
ATOM     31  O   UNL     1       3.736  -4.542  23.084  0.00  0.00    -0.454 OA
ATOM     32  C   UNL     1       3.302  -5.760  23.512  0.00  0.00    +0.136 A 
ATOM     33  C   UNL     1       2.290  -6.515  22.929  0.00  0.00    +0.047 A 
ATOM     34  C   UNL     1       1.978  -7.723  23.560  0.00  0.00    +0.004 A 
ATOM     35  C   UNL     1       2.661  -8.142  24.706  0.00  0.00    +0.001 A 
ATOM     36  C   UNL     1       3.691  -7.369  25.253  0.00  0.00    +0.011 A 
ATOM     37  C   UNL     1       4.013  -6.150  24.640  0.00  0.00    +0.021 A 
ATOM     38  C   UNL     1       4.929  -5.106  24.897  0.00  0.00    +0.059 A 
ENDBRANCH  27  30
ENDBRANCH  24  25
ENDBRANCH   1  24
TORSDOF 9
ENDMDL
MODEL 7
REMARK VINA RESULT:      -7.1      3.003      5.459
REMARK  Name = 
REMARK  9 active torsions:
REMARK  status: ('A' for Active; 'I' for Inactive)
REMARK    1  A    between atoms: O_1  and  C_2
REMARK    2  A    between atoms: C_2  and  C_4
REMARK    3  A    between atoms: C_4  and  C_6
REMARK    4  A    between atoms: C_4  and  N_13
REMARK    5  A    between atoms: C_6  and  C_7
REMARK    6  A    between atoms: N_13  and  C_14
REMARK    7  A    between atoms: C_14  and  C_15
REMARK    8  A    between atoms: C_18  and  C_20
REMARK    9  A    between atoms: C_29  and  C_31
REMARK                            x       y       z     vdW  Elec       q    Type
REMARK                         _______ _______ _______ _____ _____    ______ ____
ROOT
ATOM      1  N   UNL     1       4.357  -6.014  26.785  0.00  0.00    -0.279 N 
ATOM      2  C   UNL     1       2.986  -6.369  26.632  0.00  0.00    +0.249 C 
ATOM      3  O   UNL     1       2.237  -6.429  27.603  0.00  0.00    -0.270 OA
ENDROOT
BRANCH   2   4
ATOM      4  C   UNL     1       2.382  -6.661  25.284  0.00  0.00    +0.055 A 
ATOM      5  C   UNL     1       2.002  -5.622  24.409  0.00  0.00    +0.054 A 
ATOM      6 CL   UNL     1       2.123  -3.937  24.788  0.00  0.00    -0.083 Cl
ATOM      7  C   UNL     1       1.461  -5.914  23.147  0.00  0.00    +0.040 A 
ATOM      8  C   UNL     1       1.262  -7.233  22.759  0.00  0.00    +0.042 A 
ATOM      9 CL   UNL     1       0.555  -7.581  21.231  0.00  0.00    -0.083 Cl
ATOM     10  C   UNL     1       1.647  -8.271  23.597  0.00  0.00    +0.021 A 
ATOM     11  C   UNL     1       2.251  -7.984  24.827  0.00  0.00    +0.016 A 
ENDBRANCH   2   4
BRANCH   1  12
ATOM     12  C   UNL     1       4.773  -5.664  28.197  0.00  0.00    +0.189 C 
BRANCH  12  13
ATOM     13  C   UNL     1       5.727  -6.593  28.963  0.00  0.00    +0.326 C 
ATOM     14  O   UNL     1       6.516  -6.268  29.840  0.00  0.00    -0.249 OA
BRANCH  13  15
ATOM     15  O   UNL     1       5.648  -7.880  28.556  0.00  0.00    -0.479 OA
ATOM     16  H   UNL     1       6.530  -8.256  28.755  0.00  0.00    +0.295 HD
ENDBRANCH  13  15
ENDBRANCH  12  13
BRANCH  12  17
ATOM     17  C   UNL     1       5.504  -4.282  28.270  0.00  0.00    +0.069 C 
BRANCH  17  18
ATOM     18  C   UNL     1       4.650  -3.100  27.854  0.00  0.00    -0.045 A 
ATOM     19  C   UNL     1       5.169  -2.100  27.020  0.00  0.00    +0.004 A 
ATOM     20  C   UNL     1       4.382  -1.007  26.653  0.00  0.00    +0.000 A 
ATOM     21  C   UNL     1       3.076  -0.895  27.128  0.00  0.00    +0.000 A 
ATOM     22  C   UNL     1       2.555  -1.877  27.968  0.00  0.00    +0.000 A 
ATOM     23  C   UNL     1       3.338  -2.976  28.327  0.00  0.00    +0.004 A 
ENDBRANCH  17  18
ENDBRANCH  12  17
ENDBRANCH   1  12
BRANCH   1  24
ATOM     24  C   UNL     1       5.305  -6.425  25.735  0.00  0.00    +0.151 C 
BRANCH  24  25
ATOM     25  C   UNL     1       6.304  -5.468  25.197  0.00  0.00    +0.008 A 
ATOM     26  S   UNL     1       5.830  -4.293  24.055  0.00  0.00    -0.089 S 
ATOM     27  C   UNL     1       7.328  -3.474  24.169  0.00  0.00    +0.055 A 
ATOM     28  C   UNL     1       8.206  -4.134  25.007  0.00  0.00    +0.019 A 
ATOM     29  C   UNL     1       7.605  -5.269  25.619  0.00  0.00    +0.013 A 
BRANCH  27  30
ATOM     30  C   UNL     1       7.551  -2.222  23.508  0.00  0.00    +0.143 A 
ATOM     31  O   UNL     1       8.752  -1.897  22.925  0.00  0.00    -0.454 OA
ATOM     32  C   UNL     1       8.679  -0.600  22.515  0.00  0.00    +0.136 A 
ATOM     33  C   UNL     1       9.704   0.124  21.917  0.00  0.00    +0.047 A 
ATOM     34  C   UNL     1       9.422   1.459  21.613  0.00  0.00    +0.004 A 
ATOM     35  C   UNL     1       8.171   2.019  21.890  0.00  0.00    +0.001 A 
ATOM     36  C   UNL     1       7.152   1.255  22.471  0.00  0.00    +0.011 A 
ATOM     37  C   UNL     1       7.419  -0.084  22.791  0.00  0.00    +0.021 A 
ATOM     38  C   UNL     1       6.696  -1.135  23.396  0.00  0.00    +0.059 A 
ENDBRANCH  27  30
ENDBRANCH  24  25
ENDBRANCH   1  24
TORSDOF 9
ENDMDL
MODEL 8
REMARK VINA RESULT:      -7.1      2.802      8.188
REMARK  Name = 
REMARK  9 active torsions:
REMARK  status: ('A' for Active; 'I' for Inactive)
REMARK    1  A    between atoms: O_1  and  C_2
REMARK    2  A    between atoms: C_2  and  C_4
REMARK    3  A    between atoms: C_4  and  C_6
REMARK    4  A    between atoms: C_4  and  N_13
REMARK    5  A    between atoms: C_6  and  C_7
REMARK    6  A    between atoms: N_13  and  C_14
REMARK    7  A    between atoms: C_14  and  C_15
REMARK    8  A    between atoms: C_18  and  C_20
REMARK    9  A    between atoms: C_29  and  C_31
REMARK                            x       y       z     vdW  Elec       q    Type
REMARK                         _______ _______ _______ _____ _____    ______ ____
ROOT
ATOM      1  N   UNL     1       8.240  -2.255  24.025  0.00  0.00    -0.279 N 
ATOM      2  C   UNL     1       8.374  -2.357  25.439  0.00  0.00    +0.249 C 
ATOM      3  O   UNL     1       9.078  -1.569  26.064  0.00  0.00    -0.270 OA
ENDROOT
BRANCH   2   4
ATOM      4  C   UNL     1       7.649  -3.407  26.237  0.00  0.00    +0.055 A 
ATOM      5  C   UNL     1       8.227  -4.670  26.488  0.00  0.00    +0.054 A 
ATOM      6 CL   UNL     1       9.766  -5.174  25.877  0.00  0.00    -0.083 Cl
ATOM      7  C   UNL     1       7.544  -5.627  27.255  0.00  0.00    +0.040 A 
ATOM      8  C   UNL     1       6.274  -5.354  27.747  0.00  0.00    +0.042 A 
ATOM      9 CL   UNL     1       5.426  -6.549  28.645  0.00  0.00    -0.083 Cl
ATOM     10  C   UNL     1       5.696  -4.111  27.528  0.00  0.00    +0.021 A 
ATOM     11  C   UNL     1       6.401  -3.129  26.824  0.00  0.00    +0.016 A 
ENDBRANCH   2   4
BRANCH   1  12
ATOM     12  C   UNL     1       8.964  -1.085  23.396  0.00  0.00    +0.189 C 
BRANCH  12  13
ATOM     13  C   UNL     1       9.903  -1.322  22.204  0.00  0.00    +0.326 C 
ATOM     14  O   UNL     1      10.980  -1.903  22.226  0.00  0.00    -0.249 OA
BRANCH  13  15
ATOM     15  O   UNL     1       9.440  -0.784  21.053  0.00  0.00    -0.479 OA
ATOM     16  H   UNL     1       8.504  -0.565  21.243  0.00  0.00    +0.295 HD
ENDBRANCH  13  15
ENDBRANCH  12  13
BRANCH  12  17
ATOM     17  C   UNL     1       7.973  -0.005  22.846  0.00  0.00    +0.069 C 
BRANCH  17  18
ATOM     18  C   UNL     1       8.103   1.355  23.504  0.00  0.00    -0.045 A 
ATOM     19  C   UNL     1       7.838   1.518  24.871  0.00  0.00    +0.004 A 
ATOM     20  C   UNL     1       7.945   2.775  25.466  0.00  0.00    +0.000 A 
ATOM     21  C   UNL     1       8.302   3.884  24.701  0.00  0.00    +0.000 A 
ATOM     22  C   UNL     1       8.555   3.735  23.338  0.00  0.00    +0.000 A 
ATOM     23  C   UNL     1       8.459   2.476  22.743  0.00  0.00    +0.004 A 
ENDBRANCH  17  18
ENDBRANCH  12  17
ENDBRANCH   1  12
BRANCH   1  24
ATOM     24  C   UNL     1       7.825  -3.453  23.276  0.00  0.00    +0.151 C 
BRANCH  24  25
ATOM     25  C   UNL     1       6.394  -3.844  23.198  0.00  0.00    +0.008 A 
ATOM     26  S   UNL     1       5.962  -5.493  23.170  0.00  0.00    -0.089 S 
ATOM     27  C   UNL     1       4.300  -5.136  23.375  0.00  0.00    +0.055 A 
ATOM     28  C   UNL     1       4.072  -3.773  23.385  0.00  0.00    +0.019 A 
ATOM     29  C   UNL     1       5.283  -3.030  23.309  0.00  0.00    +0.013 A 
BRANCH  27  30
ATOM     30  C   UNL     1       3.329  -6.170  23.580  0.00  0.00    +0.143 A 
ATOM     31  O   UNL     1       3.306  -6.948  24.711  0.00  0.00    -0.454 OA
ATOM     32  C   UNL     1       2.363  -7.915  24.532  0.00  0.00    +0.136 A 
ATOM     33  C   UNL     1       2.061  -8.934  25.428  0.00  0.00    +0.047 A 
ATOM     34  C   UNL     1       1.082  -9.846  25.021  0.00  0.00    +0.004 A 
ATOM     35  C   UNL     1       0.443  -9.721  23.784  0.00  0.00    +0.001 A 
ATOM     36  C   UNL     1       0.754  -8.669  22.915  0.00  0.00    +0.011 A 
ATOM     37  C   UNL     1       1.739  -7.750  23.301  0.00  0.00    +0.021 A 
ATOM     38  C   UNL     1       2.341  -6.615  22.715  0.00  0.00    +0.059 A 
ENDBRANCH  27  30
ENDBRANCH  24  25
ENDBRANCH   1  24
TORSDOF 9
ENDMDL
MODEL 9
REMARK VINA RESULT:      -7.0      2.767      7.977
REMARK  Name = 
REMARK  9 active torsions:
REMARK  status: ('A' for Active; 'I' for Inactive)
REMARK    1  A    between atoms: O_1  and  C_2
REMARK    2  A    between atoms: C_2  and  C_4
REMARK    3  A    between atoms: C_4  and  C_6
REMARK    4  A    between atoms: C_4  and  N_13
REMARK    5  A    between atoms: C_6  and  C_7
REMARK    6  A    between atoms: N_13  and  C_14
REMARK    7  A    between atoms: C_14  and  C_15
REMARK    8  A    between atoms: C_18  and  C_20
REMARK    9  A    between atoms: C_29  and  C_31
REMARK                            x       y       z     vdW  Elec       q    Type
REMARK                         _______ _______ _______ _____ _____    ______ ____
ROOT
ATOM      1  N   UNL     1       8.900   1.124  24.129  0.00  0.00    -0.279 N 
ATOM      2  C   UNL     1       9.796   0.230  24.781  0.00  0.00    +0.249 C 
ATOM      3  O   UNL     1      10.882   0.620  25.202  0.00  0.00    -0.270 OA
ENDROOT
BRANCH   2   4
ATOM      4  C   UNL     1       9.454  -1.218  25.012  0.00  0.00    +0.055 A 
ATOM      5  C   UNL     1       9.808  -2.215  24.079  0.00  0.00    +0.054 A 
ATOM      6 CL   UNL     1      10.601  -1.900  22.572  0.00  0.00    -0.083 Cl
ATOM      7  C   UNL     1       9.501  -3.563  24.324  0.00  0.00    +0.040 A 
ATOM      8  C   UNL     1       8.813  -3.926  25.474  0.00  0.00    +0.042 A 
ATOM      9 CL   UNL     1       8.399  -5.573  25.743  0.00  0.00    -0.083 Cl
ATOM     10  C   UNL     1       8.472  -2.963  26.415  0.00  0.00    +0.021 A 
ATOM     11  C   UNL     1       8.838  -1.628  26.208  0.00  0.00    +0.016 A 
ENDBRANCH   2   4
BRANCH   1  12
ATOM     12  C   UNL     1       9.365   2.562  24.065  0.00  0.00    +0.189 C 
BRANCH  12  13
ATOM     13  C   UNL     1      10.449   2.969  23.056  0.00  0.00    +0.326 C 
ATOM     14  O   UNL     1      11.409   3.697  23.268  0.00  0.00    -0.249 OA
BRANCH  13  15
ATOM     15  O   UNL     1      10.241   2.454  21.823  0.00  0.00    -0.479 OA
ATOM     16  H   UNL     1      10.230   3.232  21.229  0.00  0.00    +0.295 HD
ENDBRANCH  13  15
ENDBRANCH  12  13
BRANCH  12  17
ATOM     17  C   UNL     1       8.194   3.545  23.730  0.00  0.00    +0.069 C 
BRANCH  17  18
ATOM     18  C   UNL     1       7.137   3.651  24.812  0.00  0.00    -0.045 A 
ATOM     19  C   UNL     1       5.776   3.529  24.498  0.00  0.00    +0.004 A 
ATOM     20  C   UNL     1       4.808   3.641  25.497  0.00  0.00    +0.000 A 
ATOM     21  C   UNL     1       5.187   3.892  26.814  0.00  0.00    +0.000 A 
ATOM     22  C   UNL     1       6.537   4.028  27.134  0.00  0.00    +0.000 A 
ATOM     23  C   UNL     1       7.507   3.905  26.138  0.00  0.00    +0.004 A 
ENDBRANCH  17  18
ENDBRANCH  12  17
ENDBRANCH   1  12
BRANCH   1  24
ATOM     24  C   UNL     1       7.883   0.557  23.228  0.00  0.00    +0.151 C 
BRANCH  24  25
ATOM     25  C   UNL     1       6.800  -0.312  23.755  0.00  0.00    +0.008 A 
ATOM     26  S   UNL     1       6.492  -1.824  23.030  0.00  0.00    -0.089 S 
ATOM     27  C   UNL     1       5.426  -2.291  24.286  0.00  0.00    +0.055 A 
ATOM     28  C   UNL     1       5.248  -1.273  25.203  0.00  0.00    +0.019 A 
ATOM     29  C   UNL     1       6.060  -0.143  24.910  0.00  0.00    +0.013 A 
BRANCH  27  30
ATOM     30  C   UNL     1       4.880  -3.614  24.355  0.00  0.00    +0.143 A 
ATOM     31  O   UNL     1       4.067  -4.130  23.376  0.00  0.00    -0.454 OA
ATOM     32  C   UNL     1       3.611  -5.339  23.808  0.00  0.00    +0.136 A 
ATOM     33  C   UNL     1       2.723  -6.165  23.128  0.00  0.00    +0.047 A 
ATOM     34  C   UNL     1       2.356  -7.347  23.778  0.00  0.00    +0.004 A 
ATOM     35  C   UNL     1       2.871  -7.673  25.037  0.00  0.00    +0.001 A 
ATOM     36  C   UNL     1       3.781  -6.831  25.684  0.00  0.00    +0.011 A 
ATOM     37  C   UNL     1       4.154  -5.636  25.052  0.00  0.00    +0.021 A 
ATOM     38  C   UNL     1       4.988  -4.544  25.378  0.00  0.00    +0.059 A 
ENDBRANCH  27  30
ENDBRANCH  24  25
ENDBRANCH   1  24
TORSDOF 9
ENDMDL
