MODEL 1
REMARK VINA RESULT:      -5.5      0.000      0.000
REMARK  Name = 
REMARK  24 active torsions:
REMARK  status: ('A' for Active; 'I' for Inactive)
REMARK    1  A    between atoms: C_1  and  C_2
REMARK    2  A    between atoms: C_2  and  O_4
REMARK    3  A    between atoms: C_2  and  C_5
REMARK    4  A    between atoms: C_5  and  C_7
REMARK    5  A    between atoms: C_5  and  C_8
REMARK    6  A    between atoms: C_11  and  C_13
REMARK    7  A    between atoms: C_13  and  C_14
REMARK    8  A    between atoms: C_18  and  C_20
REMARK    9  A    between atoms: C_20  and  C_21
REMARK   10  A    between atoms: C_21  and  C_22
REMARK   11  A    between atoms: C_23  and  C_24
REMARK   12  A    between atoms: C_24  and  O_26
REMARK   13  A    between atoms: O_26  and  C_27
REMARK   14  A    between atoms: C_27  and  C_28
REMARK   15  A    between atoms: C_28  and  C_29
REMARK   16  A    between atoms: C_29  and  C_30
REMARK   17  A    between atoms: C_30  and  C_31
REMARK   18  A    between atoms: C_31  and  C_32
REMARK   19  A    between atoms: C_32  and  C_33
REMARK   20  A    between atoms: C_33  and  C_34
REMARK   21  A    between atoms: C_34  and  C_35
REMARK   22  A    between atoms: C_35  and  O_36
REMARK   23  A    between atoms: C_38  and  O_40
REMARK   24  A    between atoms: C_41  and  O_43
REMARK                            x       y       z     vdW  Elec       q    Type
REMARK                         _______ _______ _______ _____ _____    ______ ____
ROOT
ATOM      1  C   UNL     1       9.673  -1.763  23.571  0.00  0.00    +0.048 C 
ATOM      2  C   UNL     1       8.407  -1.603  22.721  0.00  0.00    +0.151 C 
ATOM      3  C   UNL     1       7.132  -1.505  23.577  0.00  0.00    +0.172 C 
ATOM      4  C   UNL     1       7.088  -2.655  24.610  0.00  0.00    +0.153 C 
ATOM      5  O   UNL     1       8.297  -2.645  25.386  0.00  0.00    -0.373 OA
ATOM      6  C   UNL     1       9.451  -2.903  24.574  0.00  0.00    +0.166 C 
ENDROOT
BRANCH   3   7
ATOM      7  O   UNL     1       6.007  -1.544  22.688  0.00  0.00    -0.387 OA
ATOM      8  H   UNL     1       6.344  -1.455  21.779  0.00  0.00    +0.210 HD
ENDBRANCH   3   7
BRANCH   2   9
ATOM      9  O   UNL     1       8.288  -2.741  21.851  0.00  0.00    -0.389 OA
ATOM     10  H   UNL     1       9.035  -2.653  21.224  0.00  0.00    +0.210 HD
ENDBRANCH   2   9
BRANCH   4  11
ATOM     11  C   UNL     1       5.867  -2.504  25.549  0.00  0.00    +0.065 C 
BRANCH  11  12
ATOM     12  C   UNL     1       5.755  -3.595  26.601  0.00  0.00    -0.063 C 
ATOM     13  C   UNL     1       6.292  -4.812  26.383  0.00  0.00    +0.090 C 
ATOM     14  C   UNL     1       5.026  -3.226  27.866  0.00  0.00    +0.039 C 
BRANCH  13  15
ATOM     15  C   UNL     1       6.363  -5.901  27.393  0.00  0.00    +0.332 C 
ATOM     16  O   UNL     1       7.273  -6.113  28.173  0.00  0.00    -0.246 OA
BRANCH  15  17
ATOM     17  O   UNL     1       5.308  -6.720  27.149  0.00  0.00    -0.462 OA
BRANCH  17  18
ATOM     18  C   UNL     1       4.471  -6.951  28.286  0.00  0.00    +0.232 C 
BRANCH  18  19
ATOM     19  C   UNL     1       3.027  -6.504  28.091  0.00  0.00    +0.041 C 
BRANCH  19  20
ATOM     20  C   UNL     1       2.657  -6.312  26.621  0.00  0.00    +0.003 C 
BRANCH  20  21
ATOM     21  C   UNL     1       2.074  -4.915  26.381  0.00  0.00    +0.000 C 
BRANCH  21  22
ATOM     22  C   UNL     1       2.572  -4.328  25.061  0.00  0.00    +0.000 C 
BRANCH  22  23
ATOM     23  C   UNL     1       3.231  -5.401  24.193  0.00  0.00    +0.001 C 
BRANCH  23  24
ATOM     24  C   UNL     1       4.163  -4.775  23.155  0.00  0.00    +0.011 C 
BRANCH  24  25
ATOM     25  C   UNL     1       5.376  -5.666  22.887  0.00  0.00    +0.120 C 
BRANCH  25  26
ATOM     26  C   UNL     1       6.198  -5.158  21.727  0.00  0.00    +0.305 C 
ATOM     27  O   UNL     1       7.204  -5.686  21.289  0.00  0.00    -0.251 OA
BRANCH  26  28
ATOM     28  O   UNL     1       5.693  -4.016  21.201  0.00  0.00    -0.481 OA
ATOM     29  H   UNL     1       5.878  -3.912  20.250  0.00  0.00    +0.295 HD
ENDBRANCH  26  28
ENDBRANCH  25  26
ENDBRANCH  24  25
ENDBRANCH  23  24
ENDBRANCH  22  23
ENDBRANCH  21  22
ENDBRANCH  20  21
ENDBRANCH  19  20
ENDBRANCH  18  19
ENDBRANCH  17  18
ENDBRANCH  15  17
ENDBRANCH  13  15
ENDBRANCH  11  12
ENDBRANCH   4  11
BRANCH   1  30
ATOM     30  C   UNL     1      10.052  -0.488  24.339  0.00  0.00    +0.042 C 
BRANCH  30  32
ATOM     31  C   UNL     1       8.987   1.800  23.751  0.00  0.00    +0.153 C 
ATOM     32  C   UNL     1      10.041   0.747  23.503  0.00  0.00    +0.148 C 
ATOM     33  O   UNL     1      10.353   1.986  24.148  0.00  0.00    -0.368 OA
BRANCH  31  34
ATOM     34  C   UNL     1       8.465   2.687  22.649  0.00  0.00    +0.046 C 
ATOM     35  C   UNL     1       7.194   2.164  21.966  0.00  0.00    +0.013 C 
BRANCH  34  37
ATOM     36  C   UNL     1       7.353   4.998  22.344  0.00  0.00    +0.038 C 
ATOM     37  C   UNL     1       8.285   4.130  23.190  0.00  0.00    +0.117 C 
BRANCH  37  38
ATOM     38  O   UNL     1       9.553   4.773  23.288  0.00  0.00    -0.392 OA
ATOM     39  H   UNL     1       9.613   5.173  24.173  0.00  0.00    +0.210 HD
ENDBRANCH  37  38
ENDBRANCH  34  37
ENDBRANCH  31  34
ENDBRANCH  30  32
ENDBRANCH   1  30
TORSDOF 21
ENDMDL
MODEL 2
REMARK VINA RESULT:      -5.5      1.648      2.153
REMARK  Name = 
REMARK  24 active torsions:
REMARK  status: ('A' for Active; 'I' for Inactive)
REMARK    1  A    between atoms: C_1  and  C_2
REMARK    2  A    between atoms: C_2  and  O_4
REMARK    3  A    between atoms: C_2  and  C_5
REMARK    4  A    between atoms: C_5  and  C_7
REMARK    5  A    between atoms: C_5  and  C_8
REMARK    6  A    between atoms: C_11  and  C_13
REMARK    7  A    between atoms: C_13  and  C_14
REMARK    8  A    between atoms: C_18  and  C_20
REMARK    9  A    between atoms: C_20  and  C_21
REMARK   10  A    between atoms: C_21  and  C_22
REMARK   11  A    between atoms: C_23  and  C_24
REMARK   12  A    between atoms: C_24  and  O_26
REMARK   13  A    between atoms: O_26  and  C_27
REMARK   14  A    between atoms: C_27  and  C_28
REMARK   15  A    between atoms: C_28  and  C_29
REMARK   16  A    between atoms: C_29  and  C_30
REMARK   17  A    between atoms: C_30  and  C_31
REMARK   18  A    between atoms: C_31  and  C_32
REMARK   19  A    between atoms: C_32  and  C_33
REMARK   20  A    between atoms: C_33  and  C_34
REMARK   21  A    between atoms: C_34  and  C_35
REMARK   22  A    between atoms: C_35  and  O_36
REMARK   23  A    between atoms: C_38  and  O_40
REMARK   24  A    between atoms: C_41  and  O_43
REMARK                            x       y       z     vdW  Elec       q    Type
REMARK                         _______ _______ _______ _____ _____    ______ ____
ROOT
ATOM      1  C   UNL     1      10.361  -0.098  23.342  0.00  0.00    +0.048 C 
ATOM      2  C   UNL     1       9.842  -1.270  22.502  0.00  0.00    +0.151 C 
ATOM      3  C   UNL     1       8.372  -1.609  22.810  0.00  0.00    +0.172 C 
ATOM      4  C   UNL     1       8.162  -1.750  24.336  0.00  0.00    +0.153 C 
ATOM      5  O   UNL     1       8.621  -0.557  24.993  0.00  0.00    -0.373 OA
ATOM      6  C   UNL     1      10.031  -0.363  24.816  0.00  0.00    +0.166 C 
ENDROOT
BRANCH   3   7
ATOM      7  O   UNL     1       8.051  -2.822  22.115  0.00  0.00    -0.387 OA
ATOM      8  H   UNL     1       8.795  -3.031  21.524  0.00  0.00    +0.210 HD
ENDBRANCH   3   7
BRANCH   2   9
ATOM      9  O   UNL     1      10.646  -2.429  22.780  0.00  0.00    -0.389 OA
ATOM     10  H   UNL     1      11.543  -2.186  22.471  0.00  0.00    +0.210 HD
ENDBRANCH   2   9
BRANCH   4  11
ATOM     11  C   UNL     1       6.667  -1.981  24.666  0.00  0.00    +0.065 C 
BRANCH  11  12
ATOM     12  C   UNL     1       6.420  -3.082  25.684  0.00  0.00    -0.063 C 
ATOM     13  C   UNL     1       6.991  -4.293  25.532  0.00  0.00    +0.090 C 
ATOM     14  C   UNL     1       5.519  -2.729  26.838  0.00  0.00    +0.039 C 
BRANCH  13  15
ATOM     15  C   UNL     1       6.930  -5.391  26.534  0.00  0.00    +0.332 C 
ATOM     16  O   UNL     1       7.687  -5.564  27.472  0.00  0.00    -0.246 OA
BRANCH  15  17
ATOM     17  O   UNL     1       5.987  -6.261  26.092  0.00  0.00    -0.462 OA
BRANCH  17  18
ATOM     18  C   UNL     1       5.044  -6.659  27.093  0.00  0.00    +0.232 C 
BRANCH  18  19
ATOM     19  C   UNL     1       3.641  -6.107  26.874  0.00  0.00    +0.041 C 
BRANCH  19  20
ATOM     20  C   UNL     1       2.666  -7.154  26.337  0.00  0.00    +0.003 C 
BRANCH  20  21
ATOM     21  C   UNL     1       1.678  -6.527  25.347  0.00  0.00    +0.000 C 
BRANCH  21  22
ATOM     22  C   UNL     1       2.100  -5.108  24.970  0.00  0.00    +0.000 C 
BRANCH  22  23
ATOM     23  C   UNL     1       2.545  -5.034  23.508  0.00  0.00    +0.001 C 
BRANCH  23  24
ATOM     24  C   UNL     1       4.024  -4.662  23.400  0.00  0.00    +0.011 C 
BRANCH  24  25
ATOM     25  C   UNL     1       4.845  -5.814  22.817  0.00  0.00    +0.120 C 
BRANCH  25  26
ATOM     26  C   UNL     1       5.942  -5.313  21.908  0.00  0.00    +0.305 C 
ATOM     27  O   UNL     1       5.786  -4.566  20.959  0.00  0.00    -0.251 OA
BRANCH  26  28
ATOM     28  O   UNL     1       7.159  -5.793  22.259  0.00  0.00    -0.481 OA
ATOM     29  H   UNL     1       7.468  -5.470  23.126  0.00  0.00    +0.295 HD
ENDBRANCH  26  28
ENDBRANCH  25  26
ENDBRANCH  24  25
ENDBRANCH  23  24
ENDBRANCH  22  23
ENDBRANCH  21  22
ENDBRANCH  20  21
ENDBRANCH  19  20
ENDBRANCH  18  19
ENDBRANCH  17  18
ENDBRANCH  15  17
ENDBRANCH  13  15
ENDBRANCH  11  12
ENDBRANCH   4  11
BRANCH   1  30
ATOM     30  C   UNL     1       9.759   1.256  22.930  0.00  0.00    +0.042 C 
BRANCH  30  32
ATOM     31  C   UNL     1      10.238   3.779  23.273  0.00  0.00    +0.153 C 
ATOM     32  C   UNL     1      10.130   2.381  23.835  0.00  0.00    +0.148 C 
ATOM     33  O   UNL     1       9.134   3.376  24.097  0.00  0.00    -0.368 OA
BRANCH  31  34
ATOM     34  C   UNL     1      11.185   4.803  23.846  0.00  0.00    +0.046 C 
ATOM     35  C   UNL     1      12.573   4.814  23.193  0.00  0.00    +0.013 C 
BRANCH  34  37
ATOM     36  C   UNL     1       9.988   6.670  25.171  0.00  0.00    +0.038 C 
ATOM     37  C   UNL     1      10.514   6.201  23.814  0.00  0.00    +0.117 C 
BRANCH  37  38
ATOM     38  O   UNL     1       9.439   6.202  22.877  0.00  0.00    -0.392 OA
ATOM     39  H   UNL     1       9.811   6.409  22.003  0.00  0.00    +0.210 HD
ENDBRANCH  37  38
ENDBRANCH  34  37
ENDBRANCH  31  34
ENDBRANCH  30  32
ENDBRANCH   1  30
TORSDOF 21
ENDMDL
MODEL 3
REMARK VINA RESULT:      -5.4      1.795      3.283
REMARK  Name = 
REMARK  24 active torsions:
REMARK  status: ('A' for Active; 'I' for Inactive)
REMARK    1  A    between atoms: C_1  and  C_2
REMARK    2  A    between atoms: C_2  and  O_4
REMARK    3  A    between atoms: C_2  and  C_5
REMARK    4  A    between atoms: C_5  and  C_7
REMARK    5  A    between atoms: C_5  and  C_8
REMARK    6  A    between atoms: C_11  and  C_13
REMARK    7  A    between atoms: C_13  and  C_14
REMARK    8  A    between atoms: C_18  and  C_20
REMARK    9  A    between atoms: C_20  and  C_21
REMARK   10  A    between atoms: C_21  and  C_22
REMARK   11  A    between atoms: C_23  and  C_24
REMARK   12  A    between atoms: C_24  and  O_26
REMARK   13  A    between atoms: O_26  and  C_27
REMARK   14  A    between atoms: C_27  and  C_28
REMARK   15  A    between atoms: C_28  and  C_29
REMARK   16  A    between atoms: C_29  and  C_30
REMARK   17  A    between atoms: C_30  and  C_31
REMARK   18  A    between atoms: C_31  and  C_32
REMARK   19  A    between atoms: C_32  and  C_33
REMARK   20  A    between atoms: C_33  and  C_34
REMARK   21  A    between atoms: C_34  and  C_35
REMARK   22  A    between atoms: C_35  and  O_36
REMARK   23  A    between atoms: C_38  and  O_40
REMARK   24  A    between atoms: C_41  and  O_43
REMARK                            x       y       z     vdW  Elec       q    Type
REMARK                         _______ _______ _______ _____ _____    ______ ____
ROOT
ATOM      1  C   UNL     1      10.109   0.095  23.398  0.00  0.00    +0.048 C 
ATOM      2  C   UNL     1       8.774  -0.045  22.657  0.00  0.00    +0.151 C 
ATOM      3  C   UNL     1       7.573  -0.117  23.616  0.00  0.00    +0.172 C 
ATOM      4  C   UNL     1       7.826  -1.173  24.717  0.00  0.00    +0.153 C 
ATOM      5  O   UNL     1       9.068  -0.882  25.380  0.00  0.00    -0.373 OA
ATOM      6  C   UNL     1      10.184  -0.986  24.485  0.00  0.00    +0.166 C 
ENDROOT
BRANCH   3   7
ATOM      7  O   UNL     1       6.411  -0.430  22.835  0.00  0.00    -0.387 OA
ATOM      8  H   UNL     1       6.661  -0.374  21.896  0.00  0.00    +0.210 HD
ENDBRANCH   3   7
BRANCH   2   9
ATOM      9  O   UNL     1       8.806  -1.249  21.872  0.00  0.00    -0.389 OA
ATOM     10  H   UNL     1       9.559  -1.125  21.259  0.00  0.00    +0.210 HD
ENDBRANCH   2   9
BRANCH   4  11
ATOM     11  C   UNL     1       6.674  -1.176  25.751  0.00  0.00    +0.065 C 
BRANCH  11  12
ATOM     12  C   UNL     1       6.283  -2.561  26.239  0.00  0.00    -0.063 C 
ATOM     13  C   UNL     1       7.228  -3.442  26.624  0.00  0.00    +0.090 C 
ATOM     14  C   UNL     1       4.809  -2.866  26.259  0.00  0.00    +0.039 C 
BRANCH  13  15
ATOM     15  C   UNL     1       6.952  -4.764  27.246  0.00  0.00    +0.332 C 
ATOM     16  O   UNL     1       6.456  -4.966  28.339  0.00  0.00    -0.246 OA
BRANCH  15  17
ATOM     17  O   UNL     1       7.529  -5.694  26.442  0.00  0.00    -0.462 OA
BRANCH  17  18
ATOM     18  C   UNL     1       8.601  -5.189  25.640  0.00  0.00    +0.232 C 
BRANCH  18  19
ATOM     19  C   UNL     1       8.552  -5.644  24.187  0.00  0.00    +0.041 C 
BRANCH  19  20
ATOM     20  C   UNL     1       7.641  -4.774  23.321  0.00  0.00    +0.003 C 
BRANCH  20  21
ATOM     21  C   UNL     1       7.179  -5.537  22.074  0.00  0.00    +0.000 C 
BRANCH  21  22
ATOM     22  C   UNL     1       5.680  -5.826  22.128  0.00  0.00    +0.000 C 
BRANCH  22  23
ATOM     23  C   UNL     1       4.961  -4.849  23.061  0.00  0.00    +0.001 C 
BRANCH  23  24
ATOM     24  C   UNL     1       4.007  -5.586  24.002  0.00  0.00    +0.011 C 
BRANCH  24  25
ATOM     25  C   UNL     1       4.721  -6.712  24.748  0.00  0.00    +0.120 C 
BRANCH  25  26
ATOM     26  C   UNL     1       4.064  -7.008  26.075  0.00  0.00    +0.305 C 
ATOM     27  O   UNL     1       2.865  -6.976  26.292  0.00  0.00    -0.251 OA
BRANCH  26  28
ATOM     28  O   UNL     1       4.964  -7.321  27.037  0.00  0.00    -0.481 OA
ATOM     29  H   UNL     1       4.574  -7.383  27.929  0.00  0.00    +0.295 HD
ENDBRANCH  26  28
ENDBRANCH  25  26
ENDBRANCH  24  25
ENDBRANCH  23  24
ENDBRANCH  22  23
ENDBRANCH  21  22
ENDBRANCH  20  21
ENDBRANCH  19  20
ENDBRANCH  18  19
ENDBRANCH  17  18
ENDBRANCH  15  17
ENDBRANCH  13  15
ENDBRANCH  11  12
ENDBRANCH   4  11
BRANCH   1  30
ATOM     30  C   UNL     1      10.298   1.474  24.050  0.00  0.00    +0.042 C 
BRANCH  30  32
ATOM     31  C   UNL     1       8.801   3.530  23.556  0.00  0.00    +0.153 C 
ATOM     32  C   UNL     1       9.936   2.616  23.162  0.00  0.00    +0.148 C 
ATOM     33  O   UNL     1      10.173   3.939  23.656  0.00  0.00    -0.368 OA
BRANCH  31  34
ATOM     34  C   UNL     1       7.948   4.236  22.533  0.00  0.00    +0.046 C 
ATOM     35  C   UNL     1       6.549   3.629  22.350  0.00  0.00    +0.013 C 
BRANCH  34  37
ATOM     36  C   UNL     1       6.968   6.552  21.945  0.00  0.00    +0.038 C 
ATOM     37  C   UNL     1       7.887   5.750  22.866  0.00  0.00    +0.117 C 
BRANCH  37  38
ATOM     38  O   UNL     1       9.196   6.310  22.814  0.00  0.00    -0.392 OA
ATOM     39  H   UNL     1       9.618   6.153  23.677  0.00  0.00    +0.210 HD
ENDBRANCH  37  38
ENDBRANCH  34  37
ENDBRANCH  31  34
ENDBRANCH  30  32
ENDBRANCH   1  30
TORSDOF 21
ENDMDL
MODEL 4
REMARK VINA RESULT:      -5.4      1.597      1.999
REMARK  Name = 
REMARK  24 active torsions:
REMARK  status: ('A' for Active; 'I' for Inactive)
REMARK    1  A    between atoms: C_1  and  C_2
REMARK    2  A    between atoms: C_2  and  O_4
REMARK    3  A    between atoms: C_2  and  C_5
REMARK    4  A    between atoms: C_5  and  C_7
REMARK    5  A    between atoms: C_5  and  C_8
REMARK    6  A    between atoms: C_11  and  C_13
REMARK    7  A    between atoms: C_13  and  C_14
REMARK    8  A    between atoms: C_18  and  C_20
REMARK    9  A    between atoms: C_20  and  C_21
REMARK   10  A    between atoms: C_21  and  C_22
REMARK   11  A    between atoms: C_23  and  C_24
REMARK   12  A    between atoms: C_24  and  O_26
REMARK   13  A    between atoms: O_26  and  C_27
REMARK   14  A    between atoms: C_27  and  C_28
REMARK   15  A    between atoms: C_28  and  C_29
REMARK   16  A    between atoms: C_29  and  C_30
REMARK   17  A    between atoms: C_30  and  C_31
REMARK   18  A    between atoms: C_31  and  C_32
REMARK   19  A    between atoms: C_32  and  C_33
REMARK   20  A    between atoms: C_33  and  C_34
REMARK   21  A    between atoms: C_34  and  C_35
REMARK   22  A    between atoms: C_35  and  O_36
REMARK   23  A    between atoms: C_38  and  O_40
REMARK   24  A    between atoms: C_41  and  O_43
REMARK                            x       y       z     vdW  Elec       q    Type
REMARK                         _______ _______ _______ _____ _____    ______ ____
ROOT
ATOM      1  C   UNL     1       8.775  -0.140  22.331  0.00  0.00    +0.048 C 
ATOM      2  C   UNL     1       7.531   0.287  23.119  0.00  0.00    +0.151 C 
ATOM      3  C   UNL     1       7.604  -0.123  24.600  0.00  0.00    +0.172 C 
ATOM      4  C   UNL     1       7.980  -1.618  24.727  0.00  0.00    +0.153 C 
ATOM      5  O   UNL     1       9.199  -1.865  24.007  0.00  0.00    -0.373 OA
ATOM      6  C   UNL     1       9.042  -1.627  22.601  0.00  0.00    +0.166 C 
ENDROOT
BRANCH   3   7
ATOM      7  O   UNL     1       6.328   0.157  25.192  0.00  0.00    -0.387 OA
ATOM      8  H   UNL     1       6.243   1.123  25.272  0.00  0.00    +0.210 HD
ENDBRANCH   3   7
BRANCH   2   9
ATOM      9  O   UNL     1       6.376  -0.332  22.529  0.00  0.00    -0.389 OA
ATOM     10  H   UNL     1       6.739  -0.934  21.847  0.00  0.00    +0.210 HD
ENDBRANCH   2   9
BRANCH   4  11
ATOM     11  C   UNL     1       8.165  -2.014  26.212  0.00  0.00    +0.065 C 
BRANCH  11  12
ATOM     12  C   UNL     1       7.260  -3.147  26.668  0.00  0.00    -0.063 C 
ATOM     13  C   UNL     1       7.705  -4.420  26.667  0.00  0.00    +0.090 C 
ATOM     14  C   UNL     1       5.875  -2.754  27.107  0.00  0.00    +0.039 C 
BRANCH  13  15
ATOM     15  C   UNL     1       6.957  -5.580  27.221  0.00  0.00    +0.332 C 
ATOM     16  O   UNL     1       7.134  -6.112  28.301  0.00  0.00    -0.246 OA
BRANCH  15  17
ATOM     17  O   UNL     1       6.170  -6.043  26.216  0.00  0.00    -0.462 OA
BRANCH  17  18
ATOM     18  C   UNL     1       5.047  -6.811  26.659  0.00  0.00    +0.232 C 
BRANCH  18  19
ATOM     19  C   UNL     1       3.911  -5.971  27.228  0.00  0.00    +0.041 C 
BRANCH  19  20
ATOM     20  C   UNL     1       3.245  -5.081  26.179  0.00  0.00    +0.003 C 
BRANCH  20  21
ATOM     21  C   UNL     1       2.980  -5.862  24.887  0.00  0.00    +0.000 C 
BRANCH  21  22
ATOM     22  C   UNL     1       3.352  -5.036  23.657  0.00  0.00    +0.000 C 
BRANCH  22  23
ATOM     23  C   UNL     1       4.217  -3.834  24.039  0.00  0.00    +0.001 C 
BRANCH  23  24
ATOM     24  C   UNL     1       5.224  -3.505  22.936  0.00  0.00    +0.011 C 
BRANCH  24  25
ATOM     25  C   UNL     1       6.483  -4.365  23.060  0.00  0.00    +0.120 C 
BRANCH  25  26
ATOM     26  C   UNL     1       6.653  -5.279  21.870  0.00  0.00    +0.305 C 
ATOM     27  O   UNL     1       7.379  -6.256  21.828  0.00  0.00    -0.251 OA
BRANCH  26  28
ATOM     28  O   UNL     1       5.897  -4.894  20.814  0.00  0.00    -0.481 OA
ATOM     29  H   UNL     1       6.381  -4.345  20.170  0.00  0.00    +0.295 HD
ENDBRANCH  26  28
ENDBRANCH  25  26
ENDBRANCH  24  25
ENDBRANCH  23  24
ENDBRANCH  22  23
ENDBRANCH  21  22
ENDBRANCH  20  21
ENDBRANCH  19  20
ENDBRANCH  18  19
ENDBRANCH  17  18
ENDBRANCH  15  17
ENDBRANCH  13  15
ENDBRANCH  11  12
ENDBRANCH   4  11
BRANCH   1  30
ATOM     30  C   UNL     1      10.030   0.669  22.695  0.00  0.00    +0.042 C 
BRANCH  30  32
ATOM     31  C   UNL     1      10.015   2.974  23.877  0.00  0.00    +0.153 C 
ATOM     32  C   UNL     1       9.837   2.145  22.627  0.00  0.00    +0.148 C 
ATOM     33  O   UNL     1      10.989   2.973  22.824  0.00  0.00    -0.368 OA
BRANCH  31  34
ATOM     34  C   UNL     1       9.252   4.254  24.106  0.00  0.00    +0.046 C 
ATOM     35  C   UNL     1       8.276   4.204  25.290  0.00  0.00    +0.013 C 
BRANCH  34  37
ATOM     36  C   UNL     1       9.642   6.706  24.818  0.00  0.00    +0.038 C 
ATOM     37  C   UNL     1      10.250   5.436  24.223  0.00  0.00    +0.117 C 
BRANCH  37  38
ATOM     38  O   UNL     1      10.794   5.740  22.941  0.00  0.00    -0.392 OA
ATOM     39  H   UNL     1      11.682   6.113  23.079  0.00  0.00    +0.210 HD
ENDBRANCH  37  38
ENDBRANCH  34  37
ENDBRANCH  31  34
ENDBRANCH  30  32
ENDBRANCH   1  30
TORSDOF 21
ENDMDL
MODEL 5
REMARK VINA RESULT:      -5.2      1.764      4.072
REMARK  Name = 
REMARK  24 active torsions:
REMARK  status: ('A' for Active; 'I' for Inactive)
REMARK    1  A    between atoms: C_1  and  C_2
REMARK    2  A    between atoms: C_2  and  O_4
REMARK    3  A    between atoms: C_2  and  C_5
REMARK    4  A    between atoms: C_5  and  C_7
REMARK    5  A    between atoms: C_5  and  C_8
REMARK    6  A    between atoms: C_11  and  C_13
REMARK    7  A    between atoms: C_13  and  C_14
REMARK    8  A    between atoms: C_18  and  C_20
REMARK    9  A    between atoms: C_20  and  C_21
REMARK   10  A    between atoms: C_21  and  C_22
REMARK   11  A    between atoms: C_23  and  C_24
REMARK   12  A    between atoms: C_24  and  O_26
REMARK   13  A    between atoms: O_26  and  C_27
REMARK   14  A    between atoms: C_27  and  C_28
REMARK   15  A    between atoms: C_28  and  C_29
REMARK   16  A    between atoms: C_29  and  C_30
REMARK   17  A    between atoms: C_30  and  C_31
REMARK   18  A    between atoms: C_31  and  C_32
REMARK   19  A    between atoms: C_32  and  C_33
REMARK   20  A    between atoms: C_33  and  C_34
REMARK   21  A    between atoms: C_34  and  C_35
REMARK   22  A    between atoms: C_35  and  O_36
REMARK   23  A    between atoms: C_38  and  O_40
REMARK   24  A    between atoms: C_41  and  O_43
REMARK                            x       y       z     vdW  Elec       q    Type
REMARK                         _______ _______ _______ _____ _____    ______ ____
ROOT
ATOM      1  C   UNL     1       8.715   0.557  25.088  0.00  0.00    +0.048 C 
ATOM      2  C   UNL     1       9.487  -0.750  25.303  0.00  0.00    +0.151 C 
ATOM      3  C   UNL     1       9.470  -1.654  24.057  0.00  0.00    +0.172 C 
ATOM      4  C   UNL     1       8.025  -1.823  23.534  0.00  0.00    +0.153 C 
ATOM      5  O   UNL     1       7.446  -0.527  23.306  0.00  0.00    -0.373 OA
ATOM      6  C   UNL     1       7.329   0.224  24.522  0.00  0.00    +0.166 C 
ENDROOT
BRANCH   3   7
ATOM      7  O   UNL     1      10.054  -2.911  24.425  0.00  0.00    -0.387 OA
ATOM      8  H   UNL     1      10.151  -2.922  25.393  0.00  0.00    +0.210 HD
ENDBRANCH   3   7
BRANCH   2   9
ATOM      9  O   UNL     1       8.887  -1.466  26.395  0.00  0.00    -0.389 OA
ATOM     10  H   UNL     1       9.353  -2.327  26.412  0.00  0.00    +0.210 HD
ENDBRANCH   2   9
BRANCH   4  11
ATOM     11  C   UNL     1       8.008  -2.638  22.218  0.00  0.00    +0.065 C 
BRANCH  11  12
ATOM     12  C   UNL     1       6.842  -3.606  22.104  0.00  0.00    -0.063 C 
ATOM     13  C   UNL     1       7.063  -4.927  21.952  0.00  0.00    +0.090 C 
ATOM     14  C   UNL     1       5.466  -2.999  22.173  0.00  0.00    +0.039 C 
BRANCH  13  15
ATOM     15  C   UNL     1       6.004  -5.972  21.971  0.00  0.00    +0.332 C 
ATOM     16  O   UNL     1       5.319  -6.331  21.031  0.00  0.00    -0.246 OA
BRANCH  15  17
ATOM     17  O   UNL     1       5.823  -6.311  23.273  0.00  0.00    -0.462 OA
BRANCH  17  18
ATOM     18  C   UNL     1       4.463  -6.587  23.622  0.00  0.00    +0.232 C 
BRANCH  18  19
ATOM     19  C   UNL     1       3.648  -5.345  23.960  0.00  0.00    +0.041 C 
BRANCH  19  20
ATOM     20  C   UNL     1       2.703  -5.557  25.142  0.00  0.00    +0.003 C 
BRANCH  20  21
ATOM     21  C   UNL     1       3.477  -5.586  26.464  0.00  0.00    +0.000 C 
BRANCH  21  22
ATOM     22  C   UNL     1       3.759  -4.173  26.971  0.00  0.00    +0.000 C 
BRANCH  22  23
ATOM     23  C   UNL     1       5.232  -4.006  27.351  0.00  0.00    +0.001 C 
BRANCH  23  24
ATOM     24  C   UNL     1       6.067  -3.577  26.144  0.00  0.00    +0.011 C 
BRANCH  24  25
ATOM     25  C   UNL     1       7.023  -4.688  25.708  0.00  0.00    +0.120 C 
BRANCH  25  26
ATOM     26  C   UNL     1       8.102  -4.931  26.736  0.00  0.00    +0.305 C 
ATOM     27  O   UNL     1       9.113  -4.266  26.869  0.00  0.00    -0.251 OA
BRANCH  26  28
ATOM     28  O   UNL     1       7.831  -6.000  27.523  0.00  0.00    -0.481 OA
ATOM     29  H   UNL     1       6.877  -6.151  27.657  0.00  0.00    +0.295 HD
ENDBRANCH  26  28
ENDBRANCH  25  26
ENDBRANCH  24  25
ENDBRANCH  23  24
ENDBRANCH  22  23
ENDBRANCH  21  22
ENDBRANCH  20  21
ENDBRANCH  19  20
ENDBRANCH  18  19
ENDBRANCH  17  18
ENDBRANCH  15  17
ENDBRANCH  13  15
ENDBRANCH  11  12
ENDBRANCH   4  11
BRANCH   1  30
ATOM     30  C   UNL     1       9.425   1.530  24.133  0.00  0.00    +0.042 C 
BRANCH  30  32
ATOM     31  C   UNL     1       9.676   4.036  23.527  0.00  0.00    +0.153 C 
ATOM     32  C   UNL     1       9.274   2.964  24.511  0.00  0.00    +0.148 C 
ATOM     33  O   UNL     1       8.300   3.737  23.802  0.00  0.00    -0.368 OA
BRANCH  31  34
ATOM     34  C   UNL     1      10.188   5.383  23.972  0.00  0.00    +0.046 C 
ATOM     35  C   UNL     1      11.670   5.631  23.656  0.00  0.00    +0.013 C 
BRANCH  34  37
ATOM     36  C   UNL     1       8.319   7.108  24.422  0.00  0.00    +0.038 C 
ATOM     37  C   UNL     1       9.276   6.498  23.397  0.00  0.00    +0.117 C 
BRANCH  37  38
ATOM     38  O   UNL     1       8.516   5.988  22.303  0.00  0.00    -0.392 OA
ATOM     39  H   UNL     1       8.443   6.696  21.640  0.00  0.00    +0.210 HD
ENDBRANCH  37  38
ENDBRANCH  34  37
ENDBRANCH  31  34
ENDBRANCH  30  32
ENDBRANCH   1  30
TORSDOF 21
ENDMDL
MODEL 6
REMARK VINA RESULT:      -5.2      2.203      3.232
REMARK  Name = 
REMARK  24 active torsions:
REMARK  status: ('A' for Active; 'I' for Inactive)
REMARK    1  A    between atoms: C_1  and  C_2
REMARK    2  A    between atoms: C_2  and  O_4
REMARK    3  A    between atoms: C_2  and  C_5
REMARK    4  A    between atoms: C_5  and  C_7
REMARK    5  A    between atoms: C_5  and  C_8
REMARK    6  A    between atoms: C_11  and  C_13
REMARK    7  A    between atoms: C_13  and  C_14
REMARK    8  A    between atoms: C_18  and  C_20
REMARK    9  A    between atoms: C_20  and  C_21
REMARK   10  A    between atoms: C_21  and  C_22
REMARK   11  A    between atoms: C_23  and  C_24
REMARK   12  A    between atoms: C_24  and  O_26
REMARK   13  A    between atoms: O_26  and  C_27
REMARK   14  A    between atoms: C_27  and  C_28
REMARK   15  A    between atoms: C_28  and  C_29
REMARK   16  A    between atoms: C_29  and  C_30
REMARK   17  A    between atoms: C_30  and  C_31
REMARK   18  A    between atoms: C_31  and  C_32
REMARK   19  A    between atoms: C_32  and  C_33
REMARK   20  A    between atoms: C_33  and  C_34
REMARK   21  A    between atoms: C_34  and  C_35
REMARK   22  A    between atoms: C_35  and  O_36
REMARK   23  A    between atoms: C_38  and  O_40
REMARK   24  A    between atoms: C_41  and  O_43
REMARK                            x       y       z     vdW  Elec       q    Type
REMARK                         _______ _______ _______ _____ _____    ______ ____
ROOT
ATOM      1  C   UNL     1       9.467   0.672  24.072  0.00  0.00    +0.048 C 
ATOM      2  C   UNL     1       8.268   0.135  23.281  0.00  0.00    +0.151 C 
ATOM      3  C   UNL     1       7.035  -0.101  24.171  0.00  0.00    +0.172 C 
ATOM      4  C   UNL     1       7.422  -0.929  25.419  0.00  0.00    +0.153 C 
ATOM      5  O   UNL     1       8.504  -0.277  26.106  0.00  0.00    -0.373 OA
ATOM      6  C   UNL     1       9.688  -0.222  25.299  0.00  0.00    +0.166 C 
ENDROOT
BRANCH   3   7
ATOM      7  O   UNL     1       6.047  -0.770  23.375  0.00  0.00    -0.387 OA
ATOM      8  H   UNL     1       5.690  -0.124  22.740  0.00  0.00    +0.210 HD
ENDBRANCH   3   7
BRANCH   2   9
ATOM      9  O   UNL     1       8.639  -1.113  22.672  0.00  0.00    -0.389 OA
ATOM     10  H   UNL     1       9.367  -1.454  23.231  0.00  0.00    +0.210 HD
ENDBRANCH   2   9
BRANCH   4  11
ATOM     11  C   UNL     1       6.214  -1.079  26.376  0.00  0.00    +0.065 C 
BRANCH  11  12
ATOM     12  C   UNL     1       5.804  -2.519  26.635  0.00  0.00    -0.063 C 
ATOM     13  C   UNL     1       6.732  -3.449  26.937  0.00  0.00    +0.090 C 
ATOM     14  C   UNL     1       4.332  -2.818  26.533  0.00  0.00    +0.039 C 
BRANCH  13  15
ATOM     15  C   UNL     1       6.428  -4.847  27.344  0.00  0.00    +0.332 C 
ATOM     16  O   UNL     1       6.454  -5.299  28.474  0.00  0.00    -0.246 OA
BRANCH  15  17
ATOM     17  O   UNL     1       6.302  -5.562  26.196  0.00  0.00    -0.462 OA
BRANCH  17  18
ATOM     18  C   UNL     1       5.206  -6.481  26.196  0.00  0.00    +0.232 C 
BRANCH  18  19
ATOM     19  C   UNL     1       4.604  -6.724  24.818  0.00  0.00    +0.041 C 
BRANCH  19  20
ATOM     20  C   UNL     1       3.807  -5.528  24.297  0.00  0.00    +0.003 C 
BRANCH  20  21
ATOM     21  C   UNL     1       4.499  -4.895  23.085  0.00  0.00    +0.000 C 
BRANCH  21  22
ATOM     22  C   UNL     1       5.300  -5.933  22.301  0.00  0.00    +0.000 C 
BRANCH  22  23
ATOM     23  C   UNL     1       6.661  -5.377  21.878  0.00  0.00    +0.001 C 
BRANCH  23  24
ATOM     24  C   UNL     1       7.687  -5.515  23.003  0.00  0.00    +0.011 C 
BRANCH  24  25
ATOM     25  C   UNL     1       8.000  -4.159  23.638  0.00  0.00    +0.120 C 
BRANCH  25  26
ATOM     26  C   UNL     1       9.279  -4.200  24.439  0.00  0.00    +0.305 C 
ATOM     27  O   UNL     1       9.521  -4.978  25.344  0.00  0.00    -0.251 OA
BRANCH  26  28
ATOM     28  O   UNL     1      10.164  -3.254  24.043  0.00  0.00    -0.481 OA
ATOM     29  H   UNL     1      10.332  -2.572  24.720  0.00  0.00    +0.295 HD
ENDBRANCH  26  28
ENDBRANCH  25  26
ENDBRANCH  24  25
ENDBRANCH  23  24
ENDBRANCH  22  23
ENDBRANCH  21  22
ENDBRANCH  20  21
ENDBRANCH  19  20
ENDBRANCH  18  19
ENDBRANCH  17  18
ENDBRANCH  15  17
ENDBRANCH  13  15
ENDBRANCH  11  12
ENDBRANCH   4  11
BRANCH   1  30
ATOM     30  C   UNL     1       9.283   2.125  24.539  0.00  0.00    +0.042 C 
BRANCH  30  32
ATOM     31  C   UNL     1      11.051   3.860  23.781  0.00  0.00    +0.153 C 
ATOM     32  C   UNL     1       9.744   3.140  23.550  0.00  0.00    +0.148 C 
ATOM     33  O   UNL     1      10.917   2.835  22.786  0.00  0.00    -0.368 OA
BRANCH  31  34
ATOM     34  C   UNL     1      11.291   5.265  23.290  0.00  0.00    +0.046 C 
ATOM     35  C   UNL     1      10.589   6.351  24.118  0.00  0.00    +0.013 C 
BRANCH  34  37
ATOM     36  C   UNL     1      13.279   5.878  21.760  0.00  0.00    +0.038 C 
ATOM     37  C   UNL     1      12.816   5.518  23.172  0.00  0.00    +0.117 C 
BRANCH  37  38
ATOM     38  O   UNL     1      13.534   4.368  23.614  0.00  0.00    -0.392 OA
ATOM     39  H   UNL     1      12.881   3.707  23.903  0.00  0.00    +0.210 HD
ENDBRANCH  37  38
ENDBRANCH  34  37
ENDBRANCH  31  34
ENDBRANCH  30  32
ENDBRANCH   1  30
TORSDOF 21
ENDMDL
MODEL 7
REMARK VINA RESULT:      -5.2      1.953      2.952
REMARK  Name = 
REMARK  24 active torsions:
REMARK  status: ('A' for Active; 'I' for Inactive)
REMARK    1  A    between atoms: C_1  and  C_2
REMARK    2  A    between atoms: C_2  and  O_4
REMARK    3  A    between atoms: C_2  and  C_5
REMARK    4  A    between atoms: C_5  and  C_7
REMARK    5  A    between atoms: C_5  and  C_8
REMARK    6  A    between atoms: C_11  and  C_13
REMARK    7  A    between atoms: C_13  and  C_14
REMARK    8  A    between atoms: C_18  and  C_20
REMARK    9  A    between atoms: C_20  and  C_21
REMARK   10  A    between atoms: C_21  and  C_22
REMARK   11  A    between atoms: C_23  and  C_24
REMARK   12  A    between atoms: C_24  and  O_26
REMARK   13  A    between atoms: O_26  and  C_27
REMARK   14  A    between atoms: C_27  and  C_28
REMARK   15  A    between atoms: C_28  and  C_29
REMARK   16  A    between atoms: C_29  and  C_30
REMARK   17  A    between atoms: C_30  and  C_31
REMARK   18  A    between atoms: C_31  and  C_32
REMARK   19  A    between atoms: C_32  and  C_33
REMARK   20  A    between atoms: C_33  and  C_34
REMARK   21  A    between atoms: C_34  and  C_35
REMARK   22  A    between atoms: C_35  and  O_36
REMARK   23  A    between atoms: C_38  and  O_40
REMARK   24  A    between atoms: C_41  and  O_43
REMARK                            x       y       z     vdW  Elec       q    Type
REMARK                         _______ _______ _______ _____ _____    ______ ____
ROOT
ATOM      1  C   UNL     1       9.085   0.689  22.336  0.00  0.00    +0.048 C 
ATOM      2  C   UNL     1       8.288   0.434  23.620  0.00  0.00    +0.151 C 
ATOM      3  C   UNL     1       8.853  -0.740  24.439  0.00  0.00    +0.172 C 
ATOM      4  C   UNL     1       9.056  -1.979  23.535  0.00  0.00    +0.153 C 
ATOM      5  O   UNL     1       9.878  -1.619  22.412  0.00  0.00    -0.373 OA
ATOM      6  C   UNL     1       9.242  -0.637  21.581  0.00  0.00    +0.166 C 
ENDROOT
BRANCH   3   7
ATOM      7  O   UNL     1       7.935  -1.006  25.508  0.00  0.00    -0.387 OA
ATOM      8  H   UNL     1       7.177  -1.489  25.135  0.00  0.00    +0.210 HD
ENDBRANCH   3   7
BRANCH   2   9
ATOM      9  O   UNL     1       6.928   0.133  23.267  0.00  0.00    -0.389 OA
ATOM     10  H   UNL     1       6.415   0.907  23.578  0.00  0.00    +0.210 HD
ENDBRANCH   2   9
BRANCH   4  11
ATOM     11  C   UNL     1       9.727  -3.131  24.322  0.00  0.00    +0.065 C 
BRANCH  11  12
ATOM     12  C   UNL     1       8.745  -4.077  24.992  0.00  0.00    -0.063 C 
ATOM     13  C   UNL     1       8.597  -4.073  26.331  0.00  0.00    +0.090 C 
ATOM     14  C   UNL     1       7.973  -4.990  24.076  0.00  0.00    +0.039 C 
BRANCH  13  15
ATOM     15  C   UNL     1       7.572  -4.853  27.074  0.00  0.00    +0.332 C 
ATOM     16  O   UNL     1       7.633  -6.029  27.383  0.00  0.00    -0.246 OA
BRANCH  15  17
ATOM     17  O   UNL     1       6.479  -4.053  27.174  0.00  0.00    -0.462 OA
BRANCH  17  18
ATOM     18  C   UNL     1       5.448  -4.574  28.018  0.00  0.00    +0.232 C 
BRANCH  18  19
ATOM     19  C   UNL     1       4.150  -4.887  27.285  0.00  0.00    +0.041 C 
BRANCH  19  20
ATOM     20  C   UNL     1       3.948  -6.383  27.044  0.00  0.00    +0.003 C 
BRANCH  20  21
ATOM     21  C   UNL     1       4.703  -6.843  25.792  0.00  0.00    +0.000 C 
BRANCH  21  22
ATOM     22  C   UNL     1       3.737  -7.300  24.701  0.00  0.00    +0.000 C 
BRANCH  22  23
ATOM     23  C   UNL     1       3.169  -6.107  23.930  0.00  0.00    +0.001 C 
BRANCH  23  24
ATOM     24  C   UNL     1       4.201  -5.539  22.955  0.00  0.00    +0.011 C 
BRANCH  24  25
ATOM     25  C   UNL     1       4.560  -4.095  23.306  0.00  0.00    +0.120 C 
BRANCH  25  26
ATOM     26  C   UNL     1       5.377  -3.442  22.217  0.00  0.00    +0.305 C 
ATOM     27  O   UNL     1       5.700  -3.967  21.166  0.00  0.00    -0.251 OA
BRANCH  26  28
ATOM     28  O   UNL     1       5.734  -2.174  22.531  0.00  0.00    -0.481 OA
ATOM     29  H   UNL     1       4.983  -1.619  22.814  0.00  0.00    +0.295 HD
ENDBRANCH  26  28
ENDBRANCH  25  26
ENDBRANCH  24  25
ENDBRANCH  23  24
ENDBRANCH  22  23
ENDBRANCH  21  22
ENDBRANCH  20  21
ENDBRANCH  19  20
ENDBRANCH  18  19
ENDBRANCH  17  18
ENDBRANCH  15  17
ENDBRANCH  13  15
ENDBRANCH  11  12
ENDBRANCH   4  11
BRANCH   1  30
ATOM     30  C   UNL     1      10.478   1.286  22.595  0.00  0.00    +0.042 C 
BRANCH  30  32
ATOM     31  C   UNL     1      10.746   3.836  22.968  0.00  0.00    +0.153 C 
ATOM     32  C   UNL     1      10.471   2.456  23.518  0.00  0.00    +0.148 C 
ATOM     33  O   UNL     1       9.427   3.422  23.354  0.00  0.00    -0.368 OA
BRANCH  31  34
ATOM     34  C   UNL     1      11.397   4.914  23.795  0.00  0.00    +0.046 C 
ATOM     35  C   UNL     1      12.825   5.269  23.359  0.00  0.00    +0.013 C 
BRANCH  34  37
ATOM     36  C   UNL     1       9.779   6.373  25.183  0.00  0.00    +0.038 C 
ATOM     37  C   UNL     1      10.475   6.161  23.838  0.00  0.00    +0.117 C 
BRANCH  37  38
ATOM     38  O   UNL     1       9.485   6.066  22.816  0.00  0.00    -0.392 OA
ATOM     39  H   UNL     1       8.679   6.500  23.146  0.00  0.00    +0.210 HD
ENDBRANCH  37  38
ENDBRANCH  34  37
ENDBRANCH  31  34
ENDBRANCH  30  32
ENDBRANCH   1  30
TORSDOF 21
ENDMDL
MODEL 8
REMARK VINA RESULT:      -5.1      1.668      2.616
REMARK  Name = 
REMARK  24 active torsions:
REMARK  status: ('A' for Active; 'I' for Inactive)
REMARK    1  A    between atoms: C_1  and  C_2
REMARK    2  A    between atoms: C_2  and  O_4
REMARK    3  A    between atoms: C_2  and  C_5
REMARK    4  A    between atoms: C_5  and  C_7
REMARK    5  A    between atoms: C_5  and  C_8
REMARK    6  A    between atoms: C_11  and  C_13
REMARK    7  A    between atoms: C_13  and  C_14
REMARK    8  A    between atoms: C_18  and  C_20
REMARK    9  A    between atoms: C_20  and  C_21
REMARK   10  A    between atoms: C_21  and  C_22
REMARK   11  A    between atoms: C_23  and  C_24
REMARK   12  A    between atoms: C_24  and  O_26
REMARK   13  A    between atoms: O_26  and  C_27
REMARK   14  A    between atoms: C_27  and  C_28
REMARK   15  A    between atoms: C_28  and  C_29
REMARK   16  A    between atoms: C_29  and  C_30
REMARK   17  A    between atoms: C_30  and  C_31
REMARK   18  A    between atoms: C_31  and  C_32
REMARK   19  A    between atoms: C_32  and  C_33
REMARK   20  A    between atoms: C_33  and  C_34
REMARK   21  A    between atoms: C_34  and  C_35
REMARK   22  A    between atoms: C_35  and  O_36
REMARK   23  A    between atoms: C_38  and  O_40
REMARK   24  A    between atoms: C_41  and  O_43
REMARK                            x       y       z     vdW  Elec       q    Type
REMARK                         _______ _______ _______ _____ _____    ______ ____
ROOT
ATOM      1  C   UNL     1       9.229   0.168  24.573  0.00  0.00    +0.048 C 
ATOM      2  C   UNL     1       8.364  -0.358  23.422  0.00  0.00    +0.151 C 
ATOM      3  C   UNL     1       6.954  -0.767  23.886  0.00  0.00    +0.172 C 
ATOM      4  C   UNL     1       7.042  -1.696  25.119  0.00  0.00    +0.153 C 
ATOM      5  O   UNL     1       7.816  -1.053  26.146  0.00  0.00    -0.373 OA
ATOM      6  C   UNL     1       9.172  -0.836  25.732  0.00  0.00    +0.166 C 
ENDROOT
BRANCH   3   7
ATOM      7  O   UNL     1       6.303  -1.410  22.781  0.00  0.00    -0.387 OA
ATOM      8  H   UNL     1       6.252  -0.767  22.052  0.00  0.00    +0.210 HD
ENDBRANCH   3   7
BRANCH   2   9
ATOM      9  O   UNL     1       9.008  -1.508  22.848  0.00  0.00    -0.389 OA
ATOM     10  H   UNL     1       8.331  -2.214  22.882  0.00  0.00    +0.210 HD
ENDBRANCH   2   9
BRANCH   4  11
ATOM     11  C   UNL     1       5.630  -2.025  25.662  0.00  0.00    +0.065 C 
BRANCH  11  12
ATOM     12  C   UNL     1       5.596  -3.194  26.632  0.00  0.00    -0.063 C 
ATOM     13  C   UNL     1       6.193  -4.361  26.317  0.00  0.00    +0.090 C 
ATOM     14  C   UNL     1       4.869  -2.959  27.929  0.00  0.00    +0.039 C 
BRANCH  13  15
ATOM     15  C   UNL     1       6.340  -5.515  27.243  0.00  0.00    +0.332 C 
ATOM     16  O   UNL     1       7.340  -5.830  27.861  0.00  0.00    -0.246 OA
BRANCH  15  17
ATOM     17  O   UNL     1       5.206  -6.253  27.118  0.00  0.00    -0.462 OA
BRANCH  17  18
ATOM     18  C   UNL     1       4.845  -6.546  25.766  0.00  0.00    +0.232 C 
BRANCH  18  19
ATOM     19  C   UNL     1       3.433  -6.110  25.395  0.00  0.00    +0.041 C 
BRANCH  19  20
ATOM     20  C   UNL     1       3.392  -5.215  24.157  0.00  0.00    +0.003 C 
BRANCH  20  21
ATOM     21  C   UNL     1       4.226  -5.814  23.020  0.00  0.00    +0.000 C 
BRANCH  21  22
ATOM     22  C   UNL     1       5.215  -4.792  22.462  0.00  0.00    +0.000 C 
BRANCH  22  23
ATOM     23  C   UNL     1       6.601  -5.411  22.273  0.00  0.00    +0.001 C 
BRANCH  23  24
ATOM     24  C   UNL     1       7.654  -4.670  23.097  0.00  0.00    +0.011 C 
BRANCH  24  25
ATOM     25  C   UNL     1       8.343  -5.607  24.090  0.00  0.00    +0.120 C 
BRANCH  25  26
ATOM     26  C   UNL     1       9.488  -4.924  24.799  0.00  0.00    +0.305 C 
ATOM     27  O   UNL     1      10.013  -3.881  24.452  0.00  0.00    -0.251 OA
BRANCH  26  28
ATOM     28  O   UNL     1       9.892  -5.606  25.897  0.00  0.00    -0.481 OA
ATOM     29  H   UNL     1      10.488  -6.351  25.693  0.00  0.00    +0.295 HD
ENDBRANCH  26  28
ENDBRANCH  25  26
ENDBRANCH  24  25
ENDBRANCH  23  24
ENDBRANCH  22  23
ENDBRANCH  21  22
ENDBRANCH  20  21
ENDBRANCH  19  20
ENDBRANCH  18  19
ENDBRANCH  17  18
ENDBRANCH  15  17
ENDBRANCH  13  15
ENDBRANCH  11  12
ENDBRANCH   4  11
BRANCH   1  30
ATOM     30  C   UNL     1       8.785   1.548  25.084  0.00  0.00    +0.042 C 
BRANCH  30  32
ATOM     31  C   UNL     1       7.859   3.773  24.132  0.00  0.00    +0.153 C 
ATOM     32  C   UNL     1       8.828   2.618  24.046  0.00  0.00    +0.148 C 
ATOM     33  O   UNL     1       9.249   3.923  24.459  0.00  0.00    -0.368 OA
BRANCH  31  34
ATOM     34  C   UNL     1       7.361   4.495  22.906  0.00  0.00    +0.046 C 
ATOM     35  C   UNL     1       5.857   4.333  22.646  0.00  0.00    +0.013 C 
BRANCH  34  37
ATOM     36  C   UNL     1       7.043   6.888  21.989  0.00  0.00    +0.038 C 
ATOM     37  C   UNL     1       7.783   5.986  22.977  0.00  0.00    +0.117 C 
BRANCH  37  38
ATOM     38  O   UNL     1       9.185   6.104  22.749  0.00  0.00    -0.392 OA
ATOM     39  H   UNL     1       9.524   5.218  22.530  0.00  0.00    +0.210 HD
ENDBRANCH  37  38
ENDBRANCH  34  37
ENDBRANCH  31  34
ENDBRANCH  30  32
ENDBRANCH   1  30
TORSDOF 21
ENDMDL
MODEL 9
REMARK VINA RESULT:      -5.1      1.902      3.880
REMARK  Name = 
REMARK  24 active torsions:
REMARK  status: ('A' for Active; 'I' for Inactive)
REMARK    1  A    between atoms: C_1  and  C_2
REMARK    2  A    between atoms: C_2  and  O_4
REMARK    3  A    between atoms: C_2  and  C_5
REMARK    4  A    between atoms: C_5  and  C_7
REMARK    5  A    between atoms: C_5  and  C_8
REMARK    6  A    between atoms: C_11  and  C_13
REMARK    7  A    between atoms: C_13  and  C_14
REMARK    8  A    between atoms: C_18  and  C_20
REMARK    9  A    between atoms: C_20  and  C_21
REMARK   10  A    between atoms: C_21  and  C_22
REMARK   11  A    between atoms: C_23  and  C_24
REMARK   12  A    between atoms: C_24  and  O_26
REMARK   13  A    between atoms: O_26  and  C_27
REMARK   14  A    between atoms: C_27  and  C_28
REMARK   15  A    between atoms: C_28  and  C_29
REMARK   16  A    between atoms: C_29  and  C_30
REMARK   17  A    between atoms: C_30  and  C_31
REMARK   18  A    between atoms: C_31  and  C_32
REMARK   19  A    between atoms: C_32  and  C_33
REMARK   20  A    between atoms: C_33  and  C_34
REMARK   21  A    between atoms: C_34  and  C_35
REMARK   22  A    between atoms: C_35  and  O_36
REMARK   23  A    between atoms: C_38  and  O_40
REMARK   24  A    between atoms: C_41  and  O_43
REMARK                            x       y       z     vdW  Elec       q    Type
REMARK                         _______ _______ _______ _____ _____    ______ ____
ROOT
ATOM      1  C   UNL     1       8.399   0.628  24.341  0.00  0.00    +0.048 C 
ATOM      2  C   UNL     1       9.451  -0.187  23.579  0.00  0.00    +0.151 C 
ATOM      3  C   UNL     1       8.830  -1.062  22.475  0.00  0.00    +0.172 C 
ATOM      4  C   UNL     1       7.647  -1.882  23.041  0.00  0.00    +0.153 C 
ATOM      5  O   UNL     1       6.704  -0.993  23.660  0.00  0.00    -0.373 OA
ATOM      6  C   UNL     1       7.275  -0.315  24.788  0.00  0.00    +0.166 C 
ENDROOT
BRANCH   3   7
ATOM      7  O   UNL     1       9.866  -1.909  21.959  0.00  0.00    -0.387 OA
ATOM      8  H   UNL     1      10.491  -1.348  21.468  0.00  0.00    +0.210 HD
ENDBRANCH   3   7
BRANCH   2   9
ATOM      9  O   UNL     1      10.136  -1.042  24.510  0.00  0.00    -0.389 OA
ATOM     10  H   UNL     1      10.706  -0.437  25.027  0.00  0.00    +0.210 HD
ENDBRANCH   2   9
BRANCH   4  11
ATOM     11  C   UNL     1       6.946  -2.682  21.916  0.00  0.00    +0.065 C 
BRANCH  11  12
ATOM     12  C   UNL     1       6.264  -3.954  22.393  0.00  0.00    -0.063 C 
ATOM     13  C   UNL     1       5.021  -3.910  22.913  0.00  0.00    +0.090 C 
ATOM     14  C   UNL     1       7.056  -5.227  22.245  0.00  0.00    +0.039 C 
BRANCH  13  15
ATOM     15  C   UNL     1       4.212  -5.103  23.279  0.00  0.00    +0.332 C 
ATOM     16  O   UNL     1       3.730  -5.918  22.515  0.00  0.00    -0.246 OA
BRANCH  15  17
ATOM     17  O   UNL     1       3.960  -5.002  24.610  0.00  0.00    -0.462 OA
BRANCH  17  18
ATOM     18  C   UNL     1       3.440  -3.731  25.011  0.00  0.00    +0.232 C 
BRANCH  18  19
ATOM     19  C   UNL     1       2.980  -3.683  26.463  0.00  0.00    +0.041 C 
BRANCH  19  20
ATOM     20  C   UNL     1       3.636  -4.757  27.330  0.00  0.00    +0.003 C 
BRANCH  20  21
ATOM     21  C   UNL     1       4.628  -4.133  28.317  0.00  0.00    +0.000 C 
BRANCH  21  22
ATOM     22  C   UNL     1       6.036  -4.079  27.725  0.00  0.00    +0.000 C 
BRANCH  22  23
ATOM     23  C   UNL     1       6.453  -5.440  27.166  0.00  0.00    +0.001 C 
BRANCH  23  24
ATOM     24  C   UNL     1       7.232  -5.285  25.860  0.00  0.00    +0.011 C 
BRANCH  24  25
ATOM     25  C   UNL     1       8.378  -4.283  26.012  0.00  0.00    +0.120 C 
BRANCH  25  26
ATOM     26  C   UNL     1       9.537  -4.619  25.104  0.00  0.00    +0.305 C 
ATOM     27  O   UNL     1      10.049  -3.858  24.302  0.00  0.00    -0.251 OA
BRANCH  26  28
ATOM     28  O   UNL     1       9.967  -5.893  25.268  0.00  0.00    -0.481 OA
ATOM     29  H   UNL     1       9.293  -6.561  25.045  0.00  0.00    +0.295 HD
ENDBRANCH  26  28
ENDBRANCH  25  26
ENDBRANCH  24  25
ENDBRANCH  23  24
ENDBRANCH  22  23
ENDBRANCH  21  22
ENDBRANCH  20  21
ENDBRANCH  19  20
ENDBRANCH  18  19
ENDBRANCH  17  18
ENDBRANCH  15  17
ENDBRANCH  13  15
ENDBRANCH  11  12
ENDBRANCH   4  11
BRANCH   1  30
ATOM     30  C   UNL     1       7.794   1.768  23.506  0.00  0.00    +0.042 C 
BRANCH  30  32
ATOM     31  C   UNL     1       8.587   4.188  23.982  0.00  0.00    +0.153 C 
ATOM     32  C   UNL     1       8.742   2.885  23.234  0.00  0.00    +0.148 C 
ATOM     33  O   UNL     1       9.641   3.262  24.284  0.00  0.00    -0.368 OA
BRANCH  31  34
ATOM     34  C   UNL     1       8.987   5.511  23.381  0.00  0.00    +0.046 C 
ATOM     35  C   UNL     1       7.850   6.246  22.657  0.00  0.00    +0.013 C 
BRANCH  34  37
ATOM     36  C   UNL     1      11.179   6.392  24.425  0.00  0.00    +0.038 C 
ATOM     37  C   UNL     1       9.651   6.394  24.470  0.00  0.00    +0.117 C 
BRANCH  37  38
ATOM     38  O   UNL     1       9.226   5.970  25.763  0.00  0.00    -0.392 OA
ATOM     39  H   UNL     1       9.537   6.630  26.406  0.00  0.00    +0.210 HD
ENDBRANCH  37  38
ENDBRANCH  34  37
ENDBRANCH  31  34
ENDBRANCH  30  32
ENDBRANCH   1  30
TORSDOF 21
ENDMDL
