MODEL 1
REMARK VINA RESULT:      -4.9      0.000      0.000
REMARK  Name = 
REMARK  6 active torsions:
REMARK  status: ('A' for Active; 'I' for Inactive)
REMARK    1  A    between atoms: O_1  and  C_2
REMARK    2  A    between atoms: C_5  and  C_16
REMARK    3  A    between atoms: C_7  and  O_9
REMARK    4  A    between atoms: C_10  and  O_12
REMARK    5  A    between atoms: C_13  and  O_15
REMARK    6  A    between atoms: C_16  and  O_17
REMARK                            x       y       z     vdW  Elec       q    Type
REMARK                         _______ _______ _______ _____ _____    ______ ____
ROOT
ATOM      1  C   UNL     1       6.480  -5.447  25.885  0.00  0.00    +0.280 C 
ATOM      2  C   UNL     1       8.020  -5.391  25.839  0.00  0.00    +0.201 C 
ATOM      3  C   UNL     1       8.469  -4.337  24.818  0.00  0.00    +0.179 C 
ATOM      4  C   UNL     1       7.762  -4.493  23.466  0.00  0.00    +0.185 C 
ATOM      5  C   UNL     1       6.253  -4.620  23.684  0.00  0.00    +0.260 C 
ATOM      6  O   UNL     1       5.951  -5.689  24.588  0.00  0.00    -0.332 OA
ENDROOT
BRANCH   1   7
ATOM      7  O   UNL     1       6.021  -6.491  26.730  0.00  0.00    -0.365 OA
ATOM      8  H   UNL     1       6.485  -6.403  27.581  0.00  0.00    +0.213 HD
ENDBRANCH   1   7
BRANCH   2   9
ATOM      9  O   UNL     1       8.515  -5.121  27.159  0.00  0.00    -0.384 OA
ATOM     10  H   UNL     1       9.027  -4.293  27.134  0.00  0.00    +0.210 HD
ENDBRANCH   2   9
BRANCH   3  11
ATOM     11  O   UNL     1       9.889  -4.411  24.630  0.00  0.00    -0.386 OA
ATOM     12  H   UNL     1      10.140  -3.592  24.155  0.00  0.00    +0.210 HD
ENDBRANCH   3  11
BRANCH   4  13
ATOM     13  O   UNL     1       8.106  -3.330  22.697  0.00  0.00    -0.386 OA
ATOM     14  H   UNL     1       8.951  -2.971  23.045  0.00  0.00    +0.210 HD
ENDBRANCH   4  13
BRANCH   5  15
ATOM     15  C   UNL     1       5.585  -4.957  22.366  0.00  0.00    +0.337 C 
ATOM     16  O   UNL     1       5.541  -4.188  21.412  0.00  0.00    -0.248 OA
BRANCH  15  17
ATOM     17  O   UNL     1       5.045  -6.201  22.344  0.00  0.00    -0.479 OA
ATOM     18  H   UNL     1       5.490  -6.725  21.627  0.00  0.00    +0.295 HD
ENDBRANCH  15  17
ENDBRANCH   5  15
TORSDOF 6
ENDMDL
MODEL 2
REMARK VINA RESULT:      -4.9      2.626      3.734
REMARK  Name = 
REMARK  6 active torsions:
REMARK  status: ('A' for Active; 'I' for Inactive)
REMARK    1  A    between atoms: O_1  and  C_2
REMARK    2  A    between atoms: C_5  and  C_16
REMARK    3  A    between atoms: C_7  and  O_9
REMARK    4  A    between atoms: C_10  and  O_12
REMARK    5  A    between atoms: C_13  and  O_15
REMARK    6  A    between atoms: C_16  and  O_17
REMARK                            x       y       z     vdW  Elec       q    Type
REMARK                         _______ _______ _______ _____ _____    ______ ____
ROOT
ATOM      1  C   UNL     1       9.380  -4.965  25.141  0.00  0.00    +0.280 C 
ATOM      2  C   UNL     1       8.509  -4.535  26.338  0.00  0.00    +0.201 C 
ATOM      3  C   UNL     1       7.312  -3.714  25.839  0.00  0.00    +0.179 C 
ATOM      4  C   UNL     1       7.731  -2.595  24.877  0.00  0.00    +0.185 C 
ATOM      5  C   UNL     1       8.657  -3.161  23.799  0.00  0.00    +0.260 C 
ATOM      6  O   UNL     1       9.779  -3.831  24.383  0.00  0.00    -0.332 OA
ENDROOT
BRANCH   1   7
ATOM      7  O   UNL     1      10.561  -5.627  25.567  0.00  0.00    -0.365 OA
ATOM      8  H   UNL     1      10.389  -6.583  25.531  0.00  0.00    +0.213 HD
ENDBRANCH   1   7
BRANCH   2   9
ATOM      9  O   UNL     1       8.105  -5.706  27.063  0.00  0.00    -0.384 OA
ATOM     10  H   UNL     1       8.873  -6.048  27.553  0.00  0.00    +0.210 HD
ENDBRANCH   2   9
BRANCH   3  11
ATOM     11  O   UNL     1       6.605  -3.151  26.952  0.00  0.00    -0.386 OA
ATOM     12  H   UNL     1       6.982  -2.257  27.086  0.00  0.00    +0.210 HD
ENDBRANCH   3  11
BRANCH   4  13
ATOM     13  O   UNL     1       6.516  -2.063  24.328  0.00  0.00    -0.386 OA
ATOM     14  H   UNL     1       5.947  -2.815  24.056  0.00  0.00    +0.210 HD
ENDBRANCH   4  13
BRANCH   5  15
ATOM     15  C   UNL     1       9.210  -2.021  22.967  0.00  0.00    +0.337 C 
ATOM     16  O   UNL     1       8.554  -1.034  22.648  0.00  0.00    -0.248 OA
BRANCH  15  17
ATOM     17  O   UNL     1      10.508  -2.196  22.616  0.00  0.00    -0.479 OA
ATOM     18  H   UNL     1      10.540  -2.565  21.695  0.00  0.00    +0.295 HD
ENDBRANCH  15  17
ENDBRANCH   5  15
TORSDOF 6
ENDMDL
MODEL 3
REMARK VINA RESULT:      -4.9      2.067      2.287
REMARK  Name = 
REMARK  6 active torsions:
REMARK  status: ('A' for Active; 'I' for Inactive)
REMARK    1  A    between atoms: O_1  and  C_2
REMARK    2  A    between atoms: C_5  and  C_16
REMARK    3  A    between atoms: C_7  and  O_9
REMARK    4  A    between atoms: C_10  and  O_12
REMARK    5  A    between atoms: C_13  and  O_15
REMARK    6  A    between atoms: C_16  and  O_17
REMARK                            x       y       z     vdW  Elec       q    Type
REMARK                         _______ _______ _______ _____ _____    ______ ____
ROOT
ATOM      1  C   UNL     1       6.750  -4.260  26.149  0.00  0.00    +0.280 C 
ATOM      2  C   UNL     1       7.889  -5.299  26.102  0.00  0.00    +0.201 C 
ATOM      3  C   UNL     1       9.162  -4.646  25.545  0.00  0.00    +0.179 C 
ATOM      4  C   UNL     1       8.903  -3.875  24.245  0.00  0.00    +0.185 C 
ATOM      5  C   UNL     1       7.696  -2.952  24.424  0.00  0.00    +0.260 C 
ATOM      6  O   UNL     1       6.548  -3.686  24.865  0.00  0.00    -0.332 OA
ENDROOT
BRANCH   1   7
ATOM      7  O   UNL     1       5.523  -4.851  26.546  0.00  0.00    -0.365 OA
ATOM      8  H   UNL     1       5.122  -4.270  27.215  0.00  0.00    +0.213 HD
ENDBRANCH   1   7
BRANCH   2   9
ATOM      9  O   UNL     1       8.081  -5.837  27.418  0.00  0.00    -0.384 OA
ATOM     10  H   UNL     1       8.821  -5.367  27.841  0.00  0.00    +0.210 HD
ENDBRANCH   2   9
BRANCH   3  11
ATOM     11  O   UNL     1      10.167  -5.644  25.321  0.00  0.00    -0.386 OA
ATOM     12  H   UNL     1      10.578  -5.812  26.194  0.00  0.00    +0.210 HD
ENDBRANCH   3  11
BRANCH   4  13
ATOM     13  O   UNL     1      10.109  -3.146  23.965  0.00  0.00    -0.386 OA
ATOM     14  H   UNL     1      10.833  -3.532  24.504  0.00  0.00    +0.210 HD
ENDBRANCH   4  13
BRANCH   5  15
ATOM     15  C   UNL     1       7.337  -2.335  23.087  0.00  0.00    +0.337 C 
ATOM     16  O   UNL     1       8.111  -2.279  22.137  0.00  0.00    -0.248 OA
BRANCH  15  17
ATOM     17  O   UNL     1       6.069  -1.857  23.043  0.00  0.00    -0.479 OA
ATOM     18  H   UNL     1       5.683  -1.899  23.957  0.00  0.00    +0.295 HD
ENDBRANCH  15  17
ENDBRANCH   5  15
TORSDOF 6
ENDMDL
MODEL 4
REMARK VINA RESULT:      -4.9      5.673      7.273
REMARK  Name = 
REMARK  6 active torsions:
REMARK  status: ('A' for Active; 'I' for Inactive)
REMARK    1  A    between atoms: O_1  and  C_2
REMARK    2  A    between atoms: C_5  and  C_16
REMARK    3  A    between atoms: C_7  and  O_9
REMARK    4  A    between atoms: C_10  and  O_12
REMARK    5  A    between atoms: C_13  and  O_15
REMARK    6  A    between atoms: C_16  and  O_17
REMARK                            x       y       z     vdW  Elec       q    Type
REMARK                         _______ _______ _______ _____ _____    ______ ____
ROOT
ATOM      1  C   UNL     1       9.863  -0.146  24.901  0.00  0.00    +0.280 C 
ATOM      2  C   UNL     1       9.533  -0.835  23.562  0.00  0.00    +0.201 C 
ATOM      3  C   UNL     1      10.041   0.027  22.398  0.00  0.00    +0.179 C 
ATOM      4  C   UNL     1       9.607   1.492  22.523  0.00  0.00    +0.185 C 
ATOM      5  C   UNL     1       9.923   2.006  23.929  0.00  0.00    +0.260 C 
ATOM      6  O   UNL     1       9.328   1.170  24.928  0.00  0.00    -0.332 OA
ENDROOT
BRANCH   1   7
ATOM      7  O   UNL     1       9.308  -0.851  26.001  0.00  0.00    -0.365 OA
ATOM      8  H   UNL     1       9.955  -0.817  26.726  0.00  0.00    +0.213 HD
ENDBRANCH   1   7
BRANCH   2   9
ATOM      9  O   UNL     1      10.110  -2.149  23.562  0.00  0.00    -0.384 OA
ATOM     10  H   UNL     1      10.392  -2.365  24.468  0.00  0.00    +0.210 HD
ENDBRANCH   2   9
BRANCH   3  11
ATOM     11  O   UNL     1       9.573  -0.509  21.152  0.00  0.00    -0.386 OA
ATOM     12  H   UNL     1       9.527  -1.479  21.278  0.00  0.00    +0.210 HD
ENDBRANCH   3  11
BRANCH   4  13
ATOM     13  O   UNL     1      10.324   2.210  21.507  0.00  0.00    -0.386 OA
ATOM     14  H   UNL     1      10.284   3.167  21.720  0.00  0.00    +0.210 HD
ENDBRANCH   4  13
BRANCH   5  15
ATOM     15  C   UNL     1       9.328   3.389  24.101  0.00  0.00    +0.337 C 
ATOM     16  O   UNL     1       8.436   3.648  24.902  0.00  0.00    -0.248 OA
BRANCH  15  17
ATOM     17  O   UNL     1       9.886   4.316  23.284  0.00  0.00    -0.479 OA
ATOM     18  H   UNL     1       9.639   4.102  22.346  0.00  0.00    +0.295 HD
ENDBRANCH  15  17
ENDBRANCH   5  15
TORSDOF 6
ENDMDL
MODEL 5
REMARK VINA RESULT:      -4.8      5.018      7.250
REMARK  Name = 
REMARK  6 active torsions:
REMARK  status: ('A' for Active; 'I' for Inactive)
REMARK    1  A    between atoms: O_1  and  C_2
REMARK    2  A    between atoms: C_5  and  C_16
REMARK    3  A    between atoms: C_7  and  O_9
REMARK    4  A    between atoms: C_10  and  O_12
REMARK    5  A    between atoms: C_13  and  O_15
REMARK    6  A    between atoms: C_16  and  O_17
REMARK                            x       y       z     vdW  Elec       q    Type
REMARK                         _______ _______ _______ _____ _____    ______ ____
ROOT
ATOM      1  C   UNL     1       9.812   1.865  22.460  0.00  0.00    +0.280 C 
ATOM      2  C   UNL     1       8.340   2.080  22.054  0.00  0.00    +0.201 C 
ATOM      3  C   UNL     1       7.431   1.187  22.911  0.00  0.00    +0.179 C 
ATOM      4  C   UNL     1       7.911  -0.269  22.950  0.00  0.00    +0.185 C 
ATOM      5  C   UNL     1       9.404  -0.312  23.282  0.00  0.00    +0.260 C 
ATOM      6  O   UNL     1      10.159   0.490  22.366  0.00  0.00    -0.332 OA
ENDROOT
BRANCH   1   7
ATOM      7  O   UNL     1      10.696   2.583  21.613  0.00  0.00    -0.365 OA
ATOM      8  H   UNL     1      11.394   2.962  22.174  0.00  0.00    +0.213 HD
ENDBRANCH   1   7
BRANCH   2   9
ATOM      9  O   UNL     1       8.021   3.473  22.186  0.00  0.00    -0.384 OA
ATOM     10  H   UNL     1       8.025   3.704  23.132  0.00  0.00    +0.210 HD
ENDBRANCH   2   9
BRANCH   3  11
ATOM     11  O   UNL     1       6.087   1.238  22.415  0.00  0.00    -0.386 OA
ATOM     12  H   UNL     1       5.538   0.773  23.080  0.00  0.00    +0.210 HD
ENDBRANCH   3  11
BRANCH   4  13
ATOM     13  O   UNL     1       7.113  -0.926  23.946  0.00  0.00    -0.386 OA
ATOM     14  H   UNL     1       6.644  -0.239  24.467  0.00  0.00    +0.210 HD
ENDBRANCH   4  13
BRANCH   5  15
ATOM     15  C   UNL     1       9.907  -1.734  23.138  0.00  0.00    +0.337 C 
ATOM     16  O   UNL     1       9.671  -2.622  23.951  0.00  0.00    -0.248 OA
BRANCH  15  17
ATOM     17  O   UNL     1      10.638  -1.931  22.014  0.00  0.00    -0.479 OA
ATOM     18  H   UNL     1      10.087  -2.440  21.363  0.00  0.00    +0.295 HD
ENDBRANCH  15  17
ENDBRANCH   5  15
TORSDOF 6
ENDMDL
MODEL 6
REMARK VINA RESULT:      -4.7      4.567      6.193
REMARK  Name = 
REMARK  6 active torsions:
REMARK  status: ('A' for Active; 'I' for Inactive)
REMARK    1  A    between atoms: O_1  and  C_2
REMARK    2  A    between atoms: C_5  and  C_16
REMARK    3  A    between atoms: C_7  and  O_9
REMARK    4  A    between atoms: C_10  and  O_12
REMARK    5  A    between atoms: C_13  and  O_15
REMARK    6  A    between atoms: C_16  and  O_17
REMARK                            x       y       z     vdW  Elec       q    Type
REMARK                         _______ _______ _______ _____ _____    ______ ____
ROOT
ATOM      1  C   UNL     1       9.608  -0.482  25.224  0.00  0.00    +0.280 C 
ATOM      2  C   UNL     1       8.654  -1.498  24.565  0.00  0.00    +0.201 C 
ATOM      3  C   UNL     1       9.043  -1.695  23.093  0.00  0.00    +0.179 C 
ATOM      4  C   UNL     1       9.221  -0.364  22.353  0.00  0.00    +0.185 C 
ATOM      5  C   UNL     1      10.122   0.565  23.169  0.00  0.00    +0.260 C 
ATOM      6  O   UNL     1       9.613   0.739  24.497  0.00  0.00    -0.332 OA
ENDROOT
BRANCH   1   7
ATOM      7  O   UNL     1       9.211  -0.181  26.553  0.00  0.00    -0.365 OA
ATOM      8  H   UNL     1       9.941   0.307  26.972  0.00  0.00    +0.213 HD
ENDBRANCH   1   7
BRANCH   2   9
ATOM      9  O   UNL     1       8.694  -2.724  25.310  0.00  0.00    -0.384 OA
ATOM     10  H   UNL     1       8.914  -3.451  24.701  0.00  0.00    +0.210 HD
ENDBRANCH   2   9
BRANCH   3  11
ATOM     11  O   UNL     1       8.052  -2.488  22.427  0.00  0.00    -0.386 OA
ATOM     12  H   UNL     1       7.309  -2.576  23.058  0.00  0.00    +0.210 HD
ENDBRANCH   3  11
BRANCH   4  13
ATOM     13  O   UNL     1       9.790  -0.690  21.075  0.00  0.00    -0.386 OA
ATOM     14  H   UNL     1      10.605  -0.155  20.957  0.00  0.00    +0.210 HD
ENDBRANCH   4  13
BRANCH   5  15
ATOM     15  C   UNL     1      10.142   1.935  22.523  0.00  0.00    +0.337 C 
ATOM     16  O   UNL     1      10.715   2.906  23.008  0.00  0.00    -0.248 OA
BRANCH  15  17
ATOM     17  O   UNL     1       9.468   1.982  21.347  0.00  0.00    -0.479 OA
ATOM     18  H   UNL     1      10.121   1.886  20.604  0.00  0.00    +0.295 HD
ENDBRANCH  15  17
ENDBRANCH   5  15
TORSDOF 6
ENDMDL
MODEL 7
REMARK VINA RESULT:      -4.7      2.253      4.913
REMARK  Name = 
REMARK  6 active torsions:
REMARK  status: ('A' for Active; 'I' for Inactive)
REMARK    1  A    between atoms: O_1  and  C_2
REMARK    2  A    between atoms: C_5  and  C_16
REMARK    3  A    between atoms: C_7  and  O_9
REMARK    4  A    between atoms: C_10  and  O_12
REMARK    5  A    between atoms: C_13  and  O_15
REMARK    6  A    between atoms: C_16  and  O_17
REMARK                            x       y       z     vdW  Elec       q    Type
REMARK                         _______ _______ _______ _____ _____    ______ ____
ROOT
ATOM      1  C   UNL     1       9.670  -2.140  23.503  0.00  0.00    +0.280 C 
ATOM      2  C   UNL     1       8.306  -1.888  22.829  0.00  0.00    +0.201 C 
ATOM      3  C   UNL     1       7.175  -2.187  23.823  0.00  0.00    +0.179 C 
ATOM      4  C   UNL     1       7.344  -3.549  24.509  0.00  0.00    +0.185 C 
ATOM      5  C   UNL     1       8.769  -3.681  25.051  0.00  0.00    +0.260 C 
ATOM      6  O   UNL     1       9.735  -3.463  24.016  0.00  0.00    -0.332 OA
ENDROOT
BRANCH   1   7
ATOM      7  O   UNL     1      10.741  -1.989  22.584  0.00  0.00    -0.365 OA
ATOM      8  H   UNL     1      11.293  -2.787  22.646  0.00  0.00    +0.213 HD
ENDBRANCH   1   7
BRANCH   2   9
ATOM      9  O   UNL     1       8.268  -0.537  22.348  0.00  0.00    -0.384 OA
ATOM     10  H   UNL     1       8.803  -0.482  21.536  0.00  0.00    +0.210 HD
ENDBRANCH   2   9
BRANCH   3  11
ATOM     11  O   UNL     1       5.909  -2.141  23.152  0.00  0.00    -0.386 OA
ATOM     12  H   UNL     1       6.034  -1.547  22.383  0.00  0.00    +0.210 HD
ENDBRANCH   3  11
BRANCH   4  13
ATOM     13  O   UNL     1       6.358  -3.596  25.552  0.00  0.00    -0.386 OA
ATOM     14  H   UNL     1       5.938  -4.483  25.537  0.00  0.00    +0.210 HD
ENDBRANCH   4  13
BRANCH   5  15
ATOM     15  C   UNL     1       8.980  -5.091  25.561  0.00  0.00    +0.337 C 
ATOM     16  O   UNL     1       8.124  -5.730  26.163  0.00  0.00    -0.248 OA
BRANCH  15  17
ATOM     17  O   UNL     1      10.212  -5.583  25.278  0.00  0.00    -0.479 OA
ATOM     18  H   UNL     1      10.441  -6.272  25.957  0.00  0.00    +0.295 HD
ENDBRANCH  15  17
ENDBRANCH   5  15
TORSDOF 6
ENDMDL
MODEL 8
REMARK VINA RESULT:      -4.7      4.957      6.564
REMARK  Name = 
REMARK  6 active torsions:
REMARK  status: ('A' for Active; 'I' for Inactive)
REMARK    1  A    between atoms: O_1  and  C_2
REMARK    2  A    between atoms: C_5  and  C_16
REMARK    3  A    between atoms: C_7  and  O_9
REMARK    4  A    between atoms: C_10  and  O_12
REMARK    5  A    between atoms: C_13  and  O_15
REMARK    6  A    between atoms: C_16  and  O_17
REMARK                            x       y       z     vdW  Elec       q    Type
REMARK                         _______ _______ _______ _____ _____    ______ ____
ROOT
ATOM      1  C   UNL     1       8.371   1.216  24.646  0.00  0.00    +0.280 C 
ATOM      2  C   UNL     1       9.165   2.137  23.698  0.00  0.00    +0.201 C 
ATOM      3  C   UNL     1       9.343   1.449  22.337  0.00  0.00    +0.179 C 
ATOM      4  C   UNL     1       9.865   0.013  22.472  0.00  0.00    +0.185 C 
ATOM      5  C   UNL     1       9.031  -0.745  23.506  0.00  0.00    +0.260 C 
ATOM      6  O   UNL     1       9.007  -0.050  24.758  0.00  0.00    -0.332 OA
ENDROOT
BRANCH   1   7
ATOM      7  O   UNL     1       8.286   1.763  25.953  0.00  0.00    -0.365 OA
ATOM      8  H   UNL     1       7.627   2.478  25.927  0.00  0.00    +0.213 HD
ENDBRANCH   1   7
BRANCH   2   9
ATOM      9  O   UNL     1       8.481   3.394  23.591  0.00  0.00    -0.384 OA
ATOM     10  H   UNL     1       7.585   3.231  23.246  0.00  0.00    +0.210 HD
ENDBRANCH   2   9
BRANCH   3  11
ATOM     11  O   UNL     1      10.238   2.211  21.516  0.00  0.00    -0.386 OA
ATOM     12  H   UNL     1      10.631   2.888  22.105  0.00  0.00    +0.210 HD
ENDBRANCH   3  11
BRANCH   4  13
ATOM     13  O   UNL     1       9.773  -0.571  21.163  0.00  0.00    -0.386 OA
ATOM     14  H   UNL     1       9.441   0.115  20.544  0.00  0.00    +0.210 HD
ENDBRANCH   4  13
BRANCH   5  15
ATOM     15  C   UNL     1       9.665  -2.097  23.765  0.00  0.00    +0.337 C 
ATOM     16  O   UNL     1      10.566  -2.566  23.077  0.00  0.00    -0.248 OA
BRANCH  15  17
ATOM     17  O   UNL     1       9.142  -2.735  24.841  0.00  0.00    -0.479 OA
ATOM     18  H   UNL     1       9.632  -2.439  25.653  0.00  0.00    +0.295 HD
ENDBRANCH  15  17
ENDBRANCH   5  15
TORSDOF 6
ENDMDL
MODEL 9
REMARK VINA RESULT:      -4.7      4.684      6.854
REMARK  Name = 
REMARK  6 active torsions:
REMARK  status: ('A' for Active; 'I' for Inactive)
REMARK    1  A    between atoms: O_1  and  C_2
REMARK    2  A    between atoms: C_5  and  C_16
REMARK    3  A    between atoms: C_7  and  O_9
REMARK    4  A    between atoms: C_10  and  O_12
REMARK    5  A    between atoms: C_13  and  O_15
REMARK    6  A    between atoms: C_16  and  O_17
REMARK                            x       y       z     vdW  Elec       q    Type
REMARK                         _______ _______ _______ _____ _____    ______ ____
ROOT
ATOM      1  C   UNL     1       9.307   1.775  23.730  0.00  0.00    +0.280 C 
ATOM      2  C   UNL     1       9.917   1.108  22.481  0.00  0.00    +0.201 C 
ATOM      3  C   UNL     1       9.253  -0.257  22.247  0.00  0.00    +0.179 C 
ATOM      4  C   UNL     1       9.218  -1.115  23.518  0.00  0.00    +0.185 C 
ATOM      5  C   UNL     1       8.669  -0.290  24.684  0.00  0.00    +0.260 C 
ATOM      6  O   UNL     1       9.419   0.918  24.857  0.00  0.00    -0.332 OA
ENDROOT
BRANCH   1   7
ATOM      7  O   UNL     1       9.974   2.986  24.051  0.00  0.00    -0.365 OA
ATOM      8  H   UNL     1      10.753   2.757  24.586  0.00  0.00    +0.213 HD
ENDBRANCH   1   7
BRANCH   2   9
ATOM      9  O   UNL     1       9.763   1.990  21.360  0.00  0.00    -0.384 OA
ATOM     10  H   UNL     1      10.605   2.021  20.871  0.00  0.00    +0.210 HD
ENDBRANCH   2   9
BRANCH   3  11
ATOM     11  O   UNL     1       9.942  -0.965  21.208  0.00  0.00    -0.386 OA
ATOM     12  H   UNL     1      10.882  -0.993  21.480  0.00  0.00    +0.210 HD
ENDBRANCH   3  11
BRANCH   4  13
ATOM     13  O   UNL     1       8.388  -2.247  23.213  0.00  0.00    -0.386 OA
ATOM     14  H   UNL     1       8.928  -3.060  23.317  0.00  0.00    +0.210 HD
ENDBRANCH   4  13
BRANCH   5  15
ATOM     15  C   UNL     1       8.809  -1.083  25.967  0.00  0.00    +0.337 C 
ATOM     16  O   UNL     1       8.552  -2.279  26.056  0.00  0.00    -0.248 OA
BRANCH  15  17
ATOM     17  O   UNL     1       9.255  -0.339  27.009  0.00  0.00    -0.479 OA
ATOM     18  H   UNL     1       9.287   0.613  26.728  0.00  0.00    +0.295 HD
ENDBRANCH  15  17
ENDBRANCH   5  15
TORSDOF 6
ENDMDL
