MODEL 1
REMARK VINA RESULT:      -4.1      0.000      0.000
REMARK  Name = 
REMARK  7 active torsions:
REMARK  status: ('A' for Active; 'I' for Inactive)
REMARK    1  A    between atoms: N_1  and  CA_2
REMARK    2  A    between atoms: CA_2  and  CB_4
REMARK    3  A    between atoms: CA_2  and  C_9
REMARK    4  A    between atoms: CB_4  and  CG_5
REMARK    5  A    between atoms: CG_5  and  CD_6
REMARK    6  A    between atoms: CD_6  and  OE1_7
REMARK    7  A    between atoms: C_9  and  O_10
REMARK                            x       y       z     vdW  Elec       q    Type
REMARK                         _______ _______ _______ _____ _____    ______ ____
ROOT
ATOM      1  CA  GLU A   1       9.601  -1.054  24.485  0.00  0.00    +0.161 C 
ENDROOT
BRANCH   1   2
ATOM      2  N   GLU A   1       8.174  -0.800  24.134  0.00  0.00    -0.318 NA
ATOM      3  H1  GLU A   1       7.574  -1.304  24.790  0.00  0.00    +0.119 HD
ATOM      4  H2  GLU A   1       7.973   0.193  24.303  0.00  0.00    +0.119 HD
ENDBRANCH   1   2
BRANCH   1   5
ATOM      5  C   GLU A   1      10.061  -2.312  23.718  0.00  0.00    +0.322 C 
ATOM      6  OXT GLU A   1       9.970  -3.463  24.112  0.00  0.00    -0.249 OA
BRANCH   5   7
ATOM      7  O   GLU A   1      10.560  -1.978  22.497  0.00  0.00    -0.480 OA
ATOM      8  H   GLU A   1      10.944  -1.072  22.597  0.00  0.00    +0.295 HD
ENDBRANCH   5   7
ENDBRANCH   1   5
BRANCH   1   9
ATOM      9  CB  GLU A   1      10.509   0.139  24.176  0.00  0.00    +0.041 C 
BRANCH   9  10
ATOM     10  CG  GLU A   1       9.767   1.340  23.583  0.00  0.00    +0.122 C 
BRANCH  10  11
ATOM     11  CD  GLU A   1       9.829   1.339  22.073  0.00  0.00    +0.305 C 
ATOM     12  OE2 GLU A   1       9.372   0.468  21.350  0.00  0.00    -0.251 OA
BRANCH  11  13
ATOM     13  OE1 GLU A   1      10.442   2.438  21.579  0.00  0.00    -0.481 OA
ATOM     14  HE1 GLU A   1      11.370   2.299  21.311  0.00  0.00    +0.295 HD
ENDBRANCH  11  13
ENDBRANCH  10  11
ENDBRANCH   9  10
ENDBRANCH   1   9
TORSDOF 7
ENDMDL
MODEL 2
REMARK VINA RESULT:      -4.0      1.203      3.861
REMARK  Name = 
REMARK  7 active torsions:
REMARK  status: ('A' for Active; 'I' for Inactive)
REMARK    1  A    between atoms: N_1  and  CA_2
REMARK    2  A    between atoms: CA_2  and  CB_4
REMARK    3  A    between atoms: CA_2  and  C_9
REMARK    4  A    between atoms: CB_4  and  CG_5
REMARK    5  A    between atoms: CG_5  and  CD_6
REMARK    6  A    between atoms: CD_6  and  OE1_7
REMARK    7  A    between atoms: C_9  and  O_10
REMARK                            x       y       z     vdW  Elec       q    Type
REMARK                         _______ _______ _______ _____ _____    ______ ____
ROOT
ATOM      1  CA  GLU A   1       9.570   1.093  23.527  0.00  0.00    +0.161 C 
ENDROOT
BRANCH   1   2
ATOM      2  N   GLU A   1       9.977   2.436  24.032  0.00  0.00    -0.318 NA
ATOM      3  H1  GLU A   1      10.083   2.394  25.048  0.00  0.00    +0.119 HD
ATOM      4  H2  GLU A   1      10.920   2.640  23.679  0.00  0.00    +0.119 HD
ENDBRANCH   1   2
BRANCH   1   5
ATOM      5  C   GLU A   1       9.764   1.084  21.997  0.00  0.00    +0.322 C 
ATOM      6  OXT GLU A   1       9.517   0.151  21.250  0.00  0.00    -0.249 OA
BRANCH   5   7
ATOM      7  O   GLU A   1      10.223   2.289  21.560  0.00  0.00    -0.480 OA
ATOM      8  H   GLU A   1       9.450   2.905  21.602  0.00  0.00    +0.295 HD
ENDBRANCH   5   7
ENDBRANCH   1   5
BRANCH   1   9
ATOM      9  CB  GLU A   1      10.348  -0.049  24.186  0.00  0.00    +0.041 C 
BRANCH   9  10
ATOM     10  CG  GLU A   1       9.480  -1.259  24.543  0.00  0.00    +0.122 C 
BRANCH  10  11
ATOM     11  CD  GLU A   1       9.960  -2.511  23.844  0.00  0.00    +0.305 C 
ATOM     12  OE2 GLU A   1       9.825  -3.648  24.265  0.00  0.00    -0.251 OA
BRANCH  11  13
ATOM     13  OE1 GLU A   1      10.554  -2.246  22.658  0.00  0.00    -0.481 OA
ATOM     14  HE1 GLU A   1      10.903  -3.031  22.196  0.00  0.00    +0.295 HD
ENDBRANCH  11  13
ENDBRANCH  10  11
ENDBRANCH   9  10
ENDBRANCH   1   9
TORSDOF 7
ENDMDL
MODEL 3
REMARK VINA RESULT:      -3.9      2.130      4.228
REMARK  Name = 
REMARK  7 active torsions:
REMARK  status: ('A' for Active; 'I' for Inactive)
REMARK    1  A    between atoms: N_1  and  CA_2
REMARK    2  A    between atoms: CA_2  and  CB_4
REMARK    3  A    between atoms: CA_2  and  C_9
REMARK    4  A    between atoms: CB_4  and  CG_5
REMARK    5  A    between atoms: CG_5  and  CD_6
REMARK    6  A    between atoms: CD_6  and  OE1_7
REMARK    7  A    between atoms: C_9  and  O_10
REMARK                            x       y       z     vdW  Elec       q    Type
REMARK                         _______ _______ _______ _____ _____    ______ ____
ROOT
ATOM      1  CA  GLU A   1      10.287   2.018  22.935  0.00  0.00    +0.161 C 
ENDROOT
BRANCH   1   2
ATOM      2  N   GLU A   1       9.843   1.776  21.532  0.00  0.00    -0.318 NA
ATOM      3  H1  GLU A   1      10.251   0.900  21.198  0.00  0.00    +0.119 HD
ATOM      4  H2  GLU A   1       8.829   1.607  21.540  0.00  0.00    +0.119 HD
ENDBRANCH   1   2
BRANCH   1   5
ATOM      5  C   GLU A   1       9.249   2.941  23.607  0.00  0.00    +0.322 C 
ATOM      6  OXT GLU A   1       9.000   2.987  24.801  0.00  0.00    -0.249 OA
BRANCH   5   7
ATOM      7  O   GLU A   1       8.652   3.748  22.689  0.00  0.00    -0.480 OA
ATOM      8  H   GLU A   1       8.574   4.637  23.116  0.00  0.00    +0.295 HD
ENDBRANCH   5   7
ENDBRANCH   1   5
BRANCH   1   9
ATOM      9  CB  GLU A   1      10.467   0.723  23.731  0.00  0.00    +0.041 C 
BRANCH   9  10
ATOM     10  CG  GLU A   1       9.414  -0.343  23.419  0.00  0.00    +0.122 C 
BRANCH  10  11
ATOM     11  CD  GLU A   1      10.039  -1.580  22.815  0.00  0.00    +0.305 C 
ATOM     12  OE2 GLU A   1      10.326  -2.595  23.428  0.00  0.00    -0.251 OA
BRANCH  11  13
ATOM     13  OE1 GLU A   1      10.239  -1.461  21.483  0.00  0.00    -0.481 OA
ATOM     14  HE1 GLU A   1      10.293  -2.309  21.004  0.00  0.00    +0.295 HD
ENDBRANCH  11  13
ENDBRANCH  10  11
ENDBRANCH   9  10
ENDBRANCH   1   9
TORSDOF 7
ENDMDL
MODEL 4
REMARK VINA RESULT:      -3.8      5.811      7.014
REMARK  Name = 
REMARK  7 active torsions:
REMARK  status: ('A' for Active; 'I' for Inactive)
REMARK    1  A    between atoms: N_1  and  CA_2
REMARK    2  A    between atoms: CA_2  and  CB_4
REMARK    3  A    between atoms: CA_2  and  C_9
REMARK    4  A    between atoms: CB_4  and  CG_5
REMARK    5  A    between atoms: CG_5  and  CD_6
REMARK    6  A    between atoms: CD_6  and  OE1_7
REMARK    7  A    between atoms: C_9  and  O_10
REMARK                            x       y       z     vdW  Elec       q    Type
REMARK                         _______ _______ _______ _____ _____    ______ ____
ROOT
ATOM      1  CA  GLU A   1       7.877  -4.853  26.254  0.00  0.00    +0.161 C 
ENDROOT
BRANCH   1   2
ATOM      2  N   GLU A   1       7.850  -5.859  27.355  0.00  0.00    -0.318 NA
ATOM      3  H1  GLU A   1       7.000  -5.729  27.906  0.00  0.00    +0.119 HD
ATOM      4  H2  GLU A   1       7.751  -6.792  26.936  0.00  0.00    +0.119 HD
ENDBRANCH   1   2
BRANCH   1   5
ATOM      5  C   GLU A   1       8.924  -5.314  25.219  0.00  0.00    +0.322 C 
ATOM      6  OXT GLU A   1       8.755  -5.382  24.012  0.00  0.00    -0.249 OA
BRANCH   5   7
ATOM      7  O   GLU A   1      10.107  -5.608  25.824  0.00  0.00    -0.480 OA
ATOM      8  H   GLU A   1      10.764  -4.959  25.469  0.00  0.00    +0.295 HD
ENDBRANCH   5   7
ENDBRANCH   1   5
BRANCH   1   9
ATOM      9  CB  GLU A   1       6.508  -4.654  25.599  0.00  0.00    +0.041 C 
BRANCH   9  10
ATOM     10  CG  GLU A   1       5.644  -5.918  25.582  0.00  0.00    +0.122 C 
BRANCH  10  11
ATOM     11  CD  GLU A   1       5.206  -6.271  24.179  0.00  0.00    +0.305 C 
ATOM     12  OE2 GLU A   1       5.435  -5.606  23.182  0.00  0.00    -0.251 OA
BRANCH  11  13
ATOM     13  OE1 GLU A   1       4.531  -7.441  24.127  0.00  0.00    -0.481 OA
ATOM     14  HE1 GLU A   1       3.675  -7.436  24.595  0.00  0.00    +0.295 HD
ENDBRANCH  11  13
ENDBRANCH  10  11
ENDBRANCH   9  10
ENDBRANCH   1   9
TORSDOF 7
ENDMDL
MODEL 5
REMARK VINA RESULT:      -3.8      3.227      4.516
REMARK  Name = 
REMARK  7 active torsions:
REMARK  status: ('A' for Active; 'I' for Inactive)
REMARK    1  A    between atoms: N_1  and  CA_2
REMARK    2  A    between atoms: CA_2  and  CB_4
REMARK    3  A    between atoms: CA_2  and  C_9
REMARK    4  A    between atoms: CB_4  and  CG_5
REMARK    5  A    between atoms: CG_5  and  CD_6
REMARK    6  A    between atoms: CD_6  and  OE1_7
REMARK    7  A    between atoms: C_9  and  O_10
REMARK                            x       y       z     vdW  Elec       q    Type
REMARK                         _______ _______ _______ _____ _____    ______ ____
ROOT
ATOM      1  CA  GLU A   1       8.830  -5.201  25.257  0.00  0.00    +0.161 C 
ENDROOT
BRANCH   1   2
ATOM      2  N   GLU A   1      10.293  -5.445  25.414  0.00  0.00    -0.318 NA
ATOM      3  H1  GLU A   1      10.485  -5.721  26.379  0.00  0.00    +0.119 HD
ATOM      4  H2  GLU A   1      10.544  -6.267  24.851  0.00  0.00    +0.119 HD
ENDBRANCH   1   2
BRANCH   1   5
ATOM      5  C   GLU A   1       8.258  -4.852  26.647  0.00  0.00    +0.322 C 
ATOM      6  OXT GLU A   1       7.970  -3.733  27.041  0.00  0.00    -0.249 OA
BRANCH   5   7
ATOM      7  O   GLU A   1       8.070  -5.976  27.390  0.00  0.00    -0.480 OA
ATOM      8  H   GLU A   1       7.205  -5.854  27.855  0.00  0.00    +0.295 HD
ENDBRANCH   5   7
ENDBRANCH   1   5
BRANCH   1   9
ATOM      9  CB  GLU A   1       8.518  -4.099  24.242  0.00  0.00    +0.041 C 
BRANCH   9  10
ATOM     10  CG  GLU A   1       9.608  -3.028  24.141  0.00  0.00    +0.122 C 
BRANCH  10  11
ATOM     11  CD  GLU A   1       9.452  -2.196  22.889  0.00  0.00    +0.305 C 
ATOM     12  OE2 GLU A   1       8.388  -1.886  22.377  0.00  0.00    -0.251 OA
BRANCH  11  13
ATOM     13  OE1 GLU A   1      10.640  -1.795  22.383  0.00  0.00    -0.481 OA
ATOM     14  HE1 GLU A   1      11.326  -1.616  23.053  0.00  0.00    +0.295 HD
ENDBRANCH  11  13
ENDBRANCH  10  11
ENDBRANCH   9  10
ENDBRANCH   1   9
TORSDOF 7
ENDMDL
MODEL 6
REMARK VINA RESULT:      -3.8      4.824      5.313
REMARK  Name = 
REMARK  7 active torsions:
REMARK  status: ('A' for Active; 'I' for Inactive)
REMARK    1  A    between atoms: N_1  and  CA_2
REMARK    2  A    between atoms: CA_2  and  CB_4
REMARK    3  A    between atoms: CA_2  and  C_9
REMARK    4  A    between atoms: CB_4  and  CG_5
REMARK    5  A    between atoms: CG_5  and  CD_6
REMARK    6  A    between atoms: CD_6  and  OE1_7
REMARK    7  A    between atoms: C_9  and  O_10
REMARK                            x       y       z     vdW  Elec       q    Type
REMARK                         _______ _______ _______ _____ _____    ______ ____
ROOT
ATOM      1  CA  GLU A   1       8.011  -4.782  25.772  0.00  0.00    +0.161 C 
ENDROOT
BRANCH   1   2
ATOM      2  N   GLU A   1       8.057  -5.798  26.863  0.00  0.00    -0.318 NA
ATOM      3  H1  GLU A   1       7.108  -6.122  27.058  0.00  0.00    +0.119 HD
ATOM      4  H2  GLU A   1       8.550  -6.627  26.509  0.00  0.00    +0.119 HD
ENDBRANCH   1   2
BRANCH   1   5
ATOM      5  C   GLU A   1       9.426  -4.673  25.167  0.00  0.00    +0.322 C 
ATOM      6  OXT GLU A   1       9.787  -3.857  24.335  0.00  0.00    -0.249 OA
BRANCH   5   7
ATOM      7  O   GLU A   1      10.260  -5.598  25.716  0.00  0.00    -0.480 OA
ATOM      8  H   GLU A   1       9.861  -6.480  25.512  0.00  0.00    +0.295 HD
ENDBRANCH   5   7
ENDBRANCH   1   5
BRANCH   1   9
ATOM      9  CB  GLU A   1       6.978  -5.117  24.693  0.00  0.00    +0.041 C 
BRANCH   9  10
ATOM     10  CG  GLU A   1       6.170  -3.907  24.217  0.00  0.00    +0.122 C 
BRANCH  10  11
ATOM     11  CD  GLU A   1       6.270  -3.727  22.720  0.00  0.00    +0.305 C 
ATOM     12  OE2 GLU A   1       5.323  -3.595  21.961  0.00  0.00    -0.251 OA
BRANCH  11  13
ATOM     13  OE1 GLU A   1       7.551  -3.705  22.286  0.00  0.00    -0.481 OA
ATOM     14  HE1 GLU A   1       7.697  -4.153  21.432  0.00  0.00    +0.295 HD
ENDBRANCH  11  13
ENDBRANCH  10  11
ENDBRANCH   9  10
ENDBRANCH   1   9
TORSDOF 7
ENDMDL
MODEL 7
REMARK VINA RESULT:      -3.8      5.592      6.133
REMARK  Name = 
REMARK  7 active torsions:
REMARK  status: ('A' for Active; 'I' for Inactive)
REMARK    1  A    between atoms: N_1  and  CA_2
REMARK    2  A    between atoms: CA_2  and  CB_4
REMARK    3  A    between atoms: CA_2  and  C_9
REMARK    4  A    between atoms: CB_4  and  CG_5
REMARK    5  A    between atoms: CG_5  and  CD_6
REMARK    6  A    between atoms: CD_6  and  OE1_7
REMARK    7  A    between atoms: C_9  and  O_10
REMARK                            x       y       z     vdW  Elec       q    Type
REMARK                         _______ _______ _______ _____ _____    ______ ____
ROOT
ATOM      1  CA  GLU A   1       8.775  -5.504  25.298  0.00  0.00    +0.161 C 
ENDROOT
BRANCH   1   2
ATOM      2  N   GLU A   1      10.266  -5.520  25.283  0.00  0.00    -0.318 NA
ATOM      3  H1  GLU A   1      10.603  -4.767  24.679  0.00  0.00    +0.119 HD
ATOM      4  H2  GLU A   1      10.600  -5.271  26.222  0.00  0.00    +0.119 HD
ENDBRANCH   1   2
BRANCH   1   5
ATOM      5  C   GLU A   1       8.322  -4.915  26.650  0.00  0.00    +0.322 C 
ATOM      6  OXT GLU A   1       8.308  -3.731  26.946  0.00  0.00    -0.249 OA
BRANCH   5   7
ATOM      7  O   GLU A   1       7.891  -5.898  27.486  0.00  0.00    -0.480 OA
ATOM      8  H   GLU A   1       7.485  -6.590  26.907  0.00  0.00    +0.295 HD
ENDBRANCH   5   7
ENDBRANCH   1   5
BRANCH   1   9
ATOM      9  CB  GLU A   1       8.179  -4.715  24.129  0.00  0.00    +0.041 C 
BRANCH   9  10
ATOM     10  CG  GLU A   1       6.724  -5.079  23.821  0.00  0.00    +0.122 C 
BRANCH  10  11
ATOM     11  CD  GLU A   1       6.461  -5.100  22.332  0.00  0.00    +0.305 C 
ATOM     12  OE2 GLU A   1       5.581  -4.476  21.763  0.00  0.00    -0.251 OA
BRANCH  11  13
ATOM     13  OE1 GLU A   1       7.335  -5.887  21.664  0.00  0.00    -0.481 OA
ATOM     14  HE1 GLU A   1       7.609  -5.540  20.794  0.00  0.00    +0.295 HD
ENDBRANCH  11  13
ENDBRANCH  10  11
ENDBRANCH   9  10
ENDBRANCH   1   9
TORSDOF 7
ENDMDL
MODEL 8
REMARK VINA RESULT:      -3.8      1.590      1.991
REMARK  Name = 
REMARK  7 active torsions:
REMARK  status: ('A' for Active; 'I' for Inactive)
REMARK    1  A    between atoms: N_1  and  CA_2
REMARK    2  A    between atoms: CA_2  and  CB_4
REMARK    3  A    between atoms: CA_2  and  C_9
REMARK    4  A    between atoms: CB_4  and  CG_5
REMARK    5  A    between atoms: CG_5  and  CD_6
REMARK    6  A    between atoms: CD_6  and  OE1_7
REMARK    7  A    between atoms: C_9  and  O_10
REMARK                            x       y       z     vdW  Elec       q    Type
REMARK                         _______ _______ _______ _____ _____    ______ ____
ROOT
ATOM      1  CA  GLU A   1      10.330  -0.283  23.407  0.00  0.00    +0.161 C 
ENDROOT
BRANCH   1   2
ATOM      2  N   GLU A   1       9.979  -0.297  24.856  0.00  0.00    -0.318 NA
ATOM      3  H1  GLU A   1      10.641  -0.896  25.356  0.00  0.00    +0.119 HD
ATOM      4  H2  GLU A   1      10.141   0.644  25.236  0.00  0.00    +0.119 HD
ENDBRANCH   1   2
BRANCH   1   5
ATOM      5  C   GLU A   1      10.240  -1.733  22.885  0.00  0.00    +0.322 C 
ATOM      6  OXT GLU A   1      10.242  -2.742  23.571  0.00  0.00    -0.249 OA
BRANCH   5   7
ATOM      7  O   GLU A   1      10.114  -1.752  21.530  0.00  0.00    -0.480 OA
ATOM      8  H   GLU A   1      10.907  -1.279  21.176  0.00  0.00    +0.295 HD
ENDBRANCH   5   7
ENDBRANCH   1   5
BRANCH   1   9
ATOM      9  CB  GLU A   1       9.436   0.652  22.589  0.00  0.00    +0.041 C 
BRANCH   9  10
ATOM     10  CG  GLU A   1      10.138   1.936  22.140  0.00  0.00    +0.122 C 
BRANCH  10  11
ATOM     11  CD  GLU A   1      10.274   2.921  23.278  0.00  0.00    +0.305 C 
ATOM     12  OE2 GLU A   1       9.612   2.908  24.304  0.00  0.00    -0.251 OA
BRANCH  11  13
ATOM     13  OE1 GLU A   1      11.244   3.837  23.057  0.00  0.00    -0.481 OA
ATOM     14  HE1 GLU A   1      11.608   3.830  22.152  0.00  0.00    +0.295 HD
ENDBRANCH  11  13
ENDBRANCH  10  11
ENDBRANCH   9  10
ENDBRANCH   1   9
TORSDOF 7
ENDMDL
MODEL 9
REMARK VINA RESULT:      -3.7      2.162      4.082
REMARK  Name = 
REMARK  7 active torsions:
REMARK  status: ('A' for Active; 'I' for Inactive)
REMARK    1  A    between atoms: N_1  and  CA_2
REMARK    2  A    between atoms: CA_2  and  CB_4
REMARK    3  A    between atoms: CA_2  and  C_9
REMARK    4  A    between atoms: CB_4  and  CG_5
REMARK    5  A    between atoms: CG_5  and  CD_6
REMARK    6  A    between atoms: CD_6  and  OE1_7
REMARK    7  A    between atoms: C_9  and  O_10
REMARK                            x       y       z     vdW  Elec       q    Type
REMARK                         _______ _______ _______ _____ _____    ______ ____
ROOT
ATOM      1  CA  GLU A   1      10.154   0.996  22.361  0.00  0.00    +0.161 C 
ENDROOT
BRANCH   1   2
ATOM      2  N   GLU A   1       9.664   2.129  21.524  0.00  0.00    -0.318 NA
ATOM      3  H1  GLU A   1       9.521   1.801  20.567  0.00  0.00    +0.119 HD
ATOM      4  H2  GLU A   1       8.726   2.390  21.854  0.00  0.00    +0.119 HD
ENDBRANCH   1   2
BRANCH   1   5
ATOM      5  C   GLU A   1      10.400   1.534  23.787  0.00  0.00    +0.322 C 
ATOM      6  OXT GLU A   1      10.885   0.906  24.714  0.00  0.00    -0.249 OA
BRANCH   5   7
ATOM      7  O   GLU A   1      10.035   2.841  23.881  0.00  0.00    -0.480 OA
ATOM      8  H   GLU A   1       9.574   2.933  24.751  0.00  0.00    +0.295 HD
ENDBRANCH   5   7
ENDBRANCH   1   5
BRANCH   1   9
ATOM      9  CB  GLU A   1       9.186  -0.189  22.381  0.00  0.00    +0.041 C 
BRANCH   9  10
ATOM     10  CG  GLU A   1       9.883  -1.553  22.382  0.00  0.00    +0.122 C 
BRANCH  10  11
ATOM     11  CD  GLU A   1       9.738  -2.248  23.716  0.00  0.00    +0.305 C 
ATOM     12  OE2 GLU A   1      10.200  -3.344  23.993  0.00  0.00    -0.251 OA
BRANCH  11  13
ATOM     13  OE1 GLU A   1       9.042  -1.512  24.611  0.00  0.00    -0.481 OA
ATOM     14  HE1 GLU A   1       8.562  -2.035  25.280  0.00  0.00    +0.295 HD
ENDBRANCH  11  13
ENDBRANCH  10  11
ENDBRANCH   9  10
ENDBRANCH   1   9
TORSDOF 7
ENDMDL
