MODEL 1
REMARK VINA RESULT:      -4.1      0.000      0.000
REMARK  Name = 
REMARK  10 active torsions:
REMARK  status: ('A' for Active; 'I' for Inactive)
REMARK    1  A    between atoms: O_1  and  C_2
REMARK    2  A    between atoms: C_2  and  C_3
REMARK    3  A    between atoms: C_3  and  O_5
REMARK    4  A    between atoms: C_3  and  C_6
REMARK    5  A    between atoms: C_6  and  O_8
REMARK    6  A    between atoms: C_6  and  C_9
REMARK    7  A    between atoms: C_9  and  O_11
REMARK    8  A    between atoms: C_9  and  C_12
REMARK    9  A    between atoms: C_12  and  C_14
REMARK   10  A    between atoms: C_14  and  O_15
REMARK                            x       y       z     vdW  Elec       q    Type
REMARK                         _______ _______ _______ _____ _____    ______ ____
ROOT
ATOM      1  C   UNL     1       8.812  -1.335  21.930  0.00  0.00    +0.181 C 
ENDROOT
BRANCH   1   2
ATOM      2  O   UNL     1      10.200  -1.469  21.577  0.00  0.00    -0.386 OA
ATOM      3  H   UNL     1      10.280  -1.451  20.609  0.00  0.00    +0.210 HD
ENDBRANCH   1   2
BRANCH   1   4
ATOM      4  C   UNL     1       8.317  -2.693  22.457  0.00  0.00    +0.171 C 
BRANCH   4   5
ATOM      5  O   UNL     1       6.888  -2.766  22.354  0.00  0.00    -0.387 OA
ATOM      6  H   UNL     1       6.732  -3.187  21.482  0.00  0.00    +0.210 HD
ENDBRANCH   4   5
BRANCH   4   7
ATOM      7  C   UNL     1       8.742  -3.046  23.887  0.00  0.00    +0.189 C 
BRANCH   7   8
ATOM      8  O   UNL     1      10.176  -3.092  23.926  0.00  0.00    -0.392 OA
ATOM      9  H   UNL     1      10.464  -2.243  24.308  0.00  0.00    +0.210 HD
ENDBRANCH   7   8
ENDBRANCH   4   7
ENDBRANCH   1   4
BRANCH   1  10
ATOM     10  C   UNL     1       8.598  -0.116  22.856  0.00  0.00    +0.213 C 
BRANCH  10  11
ATOM     11  C   UNL     1       9.895   0.543  23.330  0.00  0.00    +0.189 C 
ATOM     12  O   UNL     1      10.764  -0.102  23.923  0.00  0.00    -0.292 OA
BRANCH  11  13
ATOM     13  C   UNL     1      10.136   1.991  22.904  0.00  0.00    +0.232 C 
BRANCH  13  14
ATOM     14  O   UNL     1      10.148   2.146  21.494  0.00  0.00    -0.387 OA
ATOM     15  H   UNL     1      10.935   2.687  21.284  0.00  0.00    +0.210 HD
ENDBRANCH  13  14
ENDBRANCH  11  13
ENDBRANCH  10  11
BRANCH  10  16
ATOM     16  O   UNL     1       7.721   0.842  22.258  0.00  0.00    -0.382 OA
ATOM     17  H   UNL     1       8.278   1.611  22.014  0.00  0.00    +0.210 HD
ENDBRANCH  10  16
ENDBRANCH   1  10
TORSDOF 10
ENDMDL
MODEL 2
REMARK VINA RESULT:      -4.0      1.485      4.167
REMARK  Name = 
REMARK  10 active torsions:
REMARK  status: ('A' for Active; 'I' for Inactive)
REMARK    1  A    between atoms: O_1  and  C_2
REMARK    2  A    between atoms: C_2  and  C_3
REMARK    3  A    between atoms: C_3  and  O_5
REMARK    4  A    between atoms: C_3  and  C_6
REMARK    5  A    between atoms: C_6  and  O_8
REMARK    6  A    between atoms: C_6  and  C_9
REMARK    7  A    between atoms: C_9  and  O_11
REMARK    8  A    between atoms: C_9  and  C_12
REMARK    9  A    between atoms: C_12  and  C_14
REMARK   10  A    between atoms: C_14  and  O_15
REMARK                            x       y       z     vdW  Elec       q    Type
REMARK                         _______ _______ _______ _____ _____    ______ ____
ROOT
ATOM      1  C   UNL     1       8.671   0.383  22.093  0.00  0.00    +0.181 C 
ENDROOT
BRANCH   1   2
ATOM      2  O   UNL     1       7.717   0.146  23.142  0.00  0.00    -0.386 OA
ATOM      3  H   UNL     1       6.862  -0.086  22.741  0.00  0.00    +0.210 HD
ENDBRANCH   1   2
BRANCH   1   4
ATOM      4  C   UNL     1       8.869   1.904  21.959  0.00  0.00    +0.171 C 
BRANCH   4   5
ATOM      5  O   UNL     1      10.234   2.191  21.626  0.00  0.00    -0.387 OA
ATOM      6  H   UNL     1      10.283   3.171  21.643  0.00  0.00    +0.210 HD
ENDBRANCH   4   5
BRANCH   4   7
ATOM      7  C   UNL     1       8.456   2.738  23.177  0.00  0.00    +0.189 C 
BRANCH   7   8
ATOM      8  O   UNL     1       9.358   2.432  24.252  0.00  0.00    -0.392 OA
ATOM      9  H   UNL     1      10.163   2.956  24.087  0.00  0.00    +0.210 HD
ENDBRANCH   7   8
ENDBRANCH   4   7
ENDBRANCH   1   4
BRANCH   1  10
ATOM     10  C   UNL     1       9.947  -0.461  22.313  0.00  0.00    +0.213 C 
BRANCH  10  11
ATOM     11  C   UNL     1      10.085  -1.027  23.727  0.00  0.00    +0.189 C 
ATOM     12  O   UNL     1      10.280  -0.289  24.698  0.00  0.00    -0.292 OA
BRANCH  11  13
ATOM     13  C   UNL     1       9.820  -2.521  23.909  0.00  0.00    +0.232 C 
BRANCH  13  14
ATOM     14  O   UNL     1       8.544  -2.906  23.424  0.00  0.00    -0.387 OA
ATOM     15  H   UNL     1       8.202  -2.143  22.917  0.00  0.00    +0.210 HD
ENDBRANCH  13  14
ENDBRANCH  11  13
ENDBRANCH  10  11
BRANCH  10  16
ATOM     16  O   UNL     1      10.061  -1.494  21.331  0.00  0.00    -0.382 OA
ATOM     17  H   UNL     1      10.222  -1.044  20.475  0.00  0.00    +0.210 HD
ENDBRANCH  10  16
ENDBRANCH   1  10
TORSDOF 10
ENDMDL
MODEL 3
REMARK VINA RESULT:      -4.0      1.637      4.989
REMARK  Name = 
REMARK  10 active torsions:
REMARK  status: ('A' for Active; 'I' for Inactive)
REMARK    1  A    between atoms: O_1  and  C_2
REMARK    2  A    between atoms: C_2  and  C_3
REMARK    3  A    between atoms: C_3  and  O_5
REMARK    4  A    between atoms: C_3  and  C_6
REMARK    5  A    between atoms: C_6  and  O_8
REMARK    6  A    between atoms: C_6  and  C_9
REMARK    7  A    between atoms: C_9  and  O_11
REMARK    8  A    between atoms: C_9  and  C_12
REMARK    9  A    between atoms: C_12  and  C_14
REMARK   10  A    between atoms: C_14  and  O_15
REMARK                            x       y       z     vdW  Elec       q    Type
REMARK                         _______ _______ _______ _____ _____    ______ ____
ROOT
ATOM      1  C   UNL     1       8.262  -2.749  22.469  0.00  0.00    +0.181 C 
ENDROOT
BRANCH   1   2
ATOM      2  O   UNL     1       6.827  -2.652  22.494  0.00  0.00    -0.386 OA
ATOM      3  H   UNL     1       6.490  -3.194  23.227  0.00  0.00    +0.210 HD
ENDBRANCH   1   2
BRANCH   1   4
ATOM      4  C   UNL     1       8.824  -1.423  21.928  0.00  0.00    +0.171 C 
BRANCH   4   5
ATOM      5  O   UNL     1      10.214  -1.575  21.609  0.00  0.00    -0.387 OA
ATOM      6  H   UNL     1      10.406  -0.822  21.011  0.00  0.00    +0.210 HD
ENDBRANCH   4   5
BRANCH   4   7
ATOM      7  C   UNL     1       8.642  -0.203  22.839  0.00  0.00    +0.189 C 
BRANCH   7   8
ATOM      8  O   UNL     1       7.260   0.183  22.795  0.00  0.00    -0.392 OA
ATOM      9  H   UNL     1       6.993   0.126  21.859  0.00  0.00    +0.210 HD
ENDBRANCH   7   8
ENDBRANCH   4   7
ENDBRANCH   1   4
BRANCH   1  10
ATOM     10  C   UNL     1       8.803  -3.220  23.838  0.00  0.00    +0.213 C 
BRANCH  10  11
ATOM     11  C   UNL     1       8.365  -4.633  24.229  0.00  0.00    +0.189 C 
ATOM     12  O   UNL     1       7.659  -5.317  23.482  0.00  0.00    -0.292 OA
BRANCH  11  13
ATOM     13  C   UNL     1       8.964  -5.218  25.508  0.00  0.00    +0.232 C 
BRANCH  13  14
ATOM     14  O   UNL     1      10.305  -5.642  25.333  0.00  0.00    -0.387 OA
ATOM     15  H   UNL     1      10.455  -5.686  24.367  0.00  0.00    +0.210 HD
ENDBRANCH  13  14
ENDBRANCH  11  13
ENDBRANCH  10  11
BRANCH  10  16
ATOM     16  O   UNL     1      10.224  -3.082  23.910  0.00  0.00    -0.382 OA
ATOM     17  H   UNL     1      10.422  -2.742  24.808  0.00  0.00    +0.210 HD
ENDBRANCH  10  16
ENDBRANCH   1  10
TORSDOF 10
ENDMDL
MODEL 4
REMARK VINA RESULT:      -4.0      1.604      2.713
REMARK  Name = 
REMARK  10 active torsions:
REMARK  status: ('A' for Active; 'I' for Inactive)
REMARK    1  A    between atoms: O_1  and  C_2
REMARK    2  A    between atoms: C_2  and  C_3
REMARK    3  A    between atoms: C_3  and  O_5
REMARK    4  A    between atoms: C_3  and  C_6
REMARK    5  A    between atoms: C_6  and  O_8
REMARK    6  A    between atoms: C_6  and  C_9
REMARK    7  A    between atoms: C_9  and  O_11
REMARK    8  A    between atoms: C_9  and  C_12
REMARK    9  A    between atoms: C_12  and  C_14
REMARK   10  A    between atoms: C_14  and  O_15
REMARK                            x       y       z     vdW  Elec       q    Type
REMARK                         _______ _______ _______ _____ _____    ______ ____
ROOT
ATOM      1  C   UNL     1      10.226   0.227  22.954  0.00  0.00    +0.181 C 
ENDROOT
BRANCH   1   2
ATOM      2  O   UNL     1       9.540   0.408  24.205  0.00  0.00    -0.386 OA
ATOM      3  H   UNL     1       9.419  -0.460  24.624  0.00  0.00    +0.210 HD
ENDBRANCH   1   2
BRANCH   1   4
ATOM      4  C   UNL     1      10.388  -1.283  22.708  0.00  0.00    +0.171 C 
BRANCH   4   5
ATOM      5  O   UNL     1      10.018  -1.602  21.360  0.00  0.00    -0.387 OA
ATOM      6  H   UNL     1      10.041  -2.582  21.331  0.00  0.00    +0.210 HD
ENDBRANCH   4   5
BRANCH   4   7
ATOM      7  C   UNL     1       9.628  -2.199  23.675  0.00  0.00    +0.189 C 
BRANCH   7   8
ATOM      8  O   UNL     1       8.228  -2.106  23.368  0.00  0.00    -0.392 OA
ATOM      9  H   UNL     1       8.065  -2.750  22.654  0.00  0.00    +0.210 HD
ENDBRANCH   7   8
ENDBRANCH   4   7
ENDBRANCH   1   4
BRANCH   1  10
ATOM     10  C   UNL     1       9.540   1.039  21.832  0.00  0.00    +0.213 C 
BRANCH  10  11
ATOM     11  C   UNL     1       8.076   1.381  22.114  0.00  0.00    +0.189 C 
ATOM     12  O   UNL     1       7.298   0.542  22.577  0.00  0.00    -0.292 OA
BRANCH  11  13
ATOM     13  C   UNL     1       7.657   2.841  21.945  0.00  0.00    +0.232 C 
BRANCH  13  14
ATOM     14  O   UNL     1       8.424   3.720  22.750  0.00  0.00    -0.387 OA
ATOM     15  H   UNL     1       7.890   4.533  22.856  0.00  0.00    +0.210 HD
ENDBRANCH  13  14
ENDBRANCH  11  13
ENDBRANCH  10  11
BRANCH  10  16
ATOM     16  O   UNL     1      10.290   2.212  21.506  0.00  0.00    -0.382 OA
ATOM     17  H   UNL     1       9.651   2.852  21.130  0.00  0.00    +0.210 HD
ENDBRANCH  10  16
ENDBRANCH   1  10
TORSDOF 10
ENDMDL
MODEL 5
REMARK VINA RESULT:      -3.9      4.855      7.322
REMARK  Name = 
REMARK  10 active torsions:
REMARK  status: ('A' for Active; 'I' for Inactive)
REMARK    1  A    between atoms: O_1  and  C_2
REMARK    2  A    between atoms: C_2  and  C_3
REMARK    3  A    between atoms: C_3  and  O_5
REMARK    4  A    between atoms: C_3  and  C_6
REMARK    5  A    between atoms: C_6  and  O_8
REMARK    6  A    between atoms: C_6  and  C_9
REMARK    7  A    between atoms: C_9  and  O_11
REMARK    8  A    between atoms: C_9  and  C_12
REMARK    9  A    between atoms: C_12  and  C_14
REMARK   10  A    between atoms: C_14  and  O_15
REMARK                            x       y       z     vdW  Elec       q    Type
REMARK                         _______ _______ _______ _____ _____    ______ ____
ROOT
ATOM      1  C   UNL     1       7.278  -4.959  26.769  0.00  0.00    +0.181 C 
ENDROOT
BRANCH   1   2
ATOM      2  O   UNL     1       7.871  -5.978  27.592  0.00  0.00    -0.386 OA
ATOM      3  H   UNL     1       7.207  -6.665  27.767  0.00  0.00    +0.210 HD
ENDBRANCH   1   2
BRANCH   1   4
ATOM      4  C   UNL     1       8.399  -4.027  26.276  0.00  0.00    +0.171 C 
BRANCH   4   5
ATOM      5  O   UNL     1       7.838  -2.789  25.817  0.00  0.00    -0.387 OA
ATOM      6  H   UNL     1       8.325  -2.599  24.987  0.00  0.00    +0.210 HD
ENDBRANCH   4   5
BRANCH   4   7
ATOM      7  C   UNL     1       9.314  -4.604  25.190  0.00  0.00    +0.189 C 
BRANCH   7   8
ATOM      8  O   UNL     1      10.144  -5.608  25.796  0.00  0.00    -0.392 OA
ATOM      9  H   UNL     1       9.722  -6.464  25.596  0.00  0.00    +0.210 HD
ENDBRANCH   7   8
ENDBRANCH   4   7
ENDBRANCH   1   4
BRANCH   1  10
ATOM     10  C   UNL     1       6.378  -5.590  25.682  0.00  0.00    +0.213 C 
BRANCH  10  11
ATOM     11  C   UNL     1       5.326  -6.557  26.227  0.00  0.00    +0.189 C 
ATOM     12  O   UNL     1       5.350  -6.938  27.402  0.00  0.00    -0.292 OA
BRANCH  11  13
ATOM     13  C   UNL     1       4.158  -6.909  25.305  0.00  0.00    +0.232 C 
BRANCH  13  14
ATOM     14  O   UNL     1       4.592  -7.351  24.029  0.00  0.00    -0.387 OA
ATOM     15  H   UNL     1       5.529  -7.082  23.949  0.00  0.00    +0.210 HD
ENDBRANCH  13  14
ENDBRANCH  11  13
ENDBRANCH  10  11
BRANCH  10  16
ATOM     16  O   UNL     1       5.779  -4.587  24.858  0.00  0.00    -0.382 OA
ATOM     17  H   UNL     1       4.950  -4.320  25.307  0.00  0.00    +0.210 HD
ENDBRANCH  10  16
ENDBRANCH   1  10
TORSDOF 10
ENDMDL
MODEL 6
REMARK VINA RESULT:      -3.8      1.335      2.496
REMARK  Name = 
REMARK  10 active torsions:
REMARK  status: ('A' for Active; 'I' for Inactive)
REMARK    1  A    between atoms: O_1  and  C_2
REMARK    2  A    between atoms: C_2  and  C_3
REMARK    3  A    between atoms: C_3  and  O_5
REMARK    4  A    between atoms: C_3  and  C_6
REMARK    5  A    between atoms: C_6  and  O_8
REMARK    6  A    between atoms: C_6  and  C_9
REMARK    7  A    between atoms: C_9  and  O_11
REMARK    8  A    between atoms: C_9  and  C_12
REMARK    9  A    between atoms: C_12  and  C_14
REMARK   10  A    between atoms: C_14  and  O_15
REMARK                            x       y       z     vdW  Elec       q    Type
REMARK                         _______ _______ _______ _____ _____    ______ ____
ROOT
ATOM      1  C   UNL     1       8.998  -1.197  24.732  0.00  0.00    +0.181 C 
ENDROOT
BRANCH   1   2
ATOM      2  O   UNL     1       7.794  -0.650  24.167  0.00  0.00    -0.386 OA
ATOM      3  H   UNL     1       8.026   0.126  23.629  0.00  0.00    +0.210 HD
ENDBRANCH   1   2
BRANCH   1   4
ATOM      4  C   UNL     1       9.050  -2.697  24.392  0.00  0.00    +0.171 C 
BRANCH   4   5
ATOM      5  O   UNL     1      10.302  -3.014  23.769  0.00  0.00    -0.387 OA
ATOM      6  H   UNL     1      10.428  -3.968  23.957  0.00  0.00    +0.210 HD
ENDBRANCH   4   5
BRANCH   4   7
ATOM      7  C   UNL     1       7.901  -3.222  23.523  0.00  0.00    +0.189 C 
BRANCH   7   8
ATOM      8  O   UNL     1       8.083  -2.714  22.192  0.00  0.00    -0.392 OA
ATOM      9  H   UNL     1       8.055  -1.742  22.267  0.00  0.00    +0.210 HD
ENDBRANCH   7   8
ENDBRANCH   4   7
ENDBRANCH   1   4
BRANCH   1  10
ATOM     10  C   UNL     1      10.228  -0.354  24.322  0.00  0.00    +0.213 C 
BRANCH  10  11
ATOM     11  C   UNL     1      10.115   0.280  22.935  0.00  0.00    +0.189 C 
ATOM     12  O   UNL     1       9.958  -0.410  21.923  0.00  0.00    -0.292 OA
BRANCH  11  13
ATOM     13  C   UNL     1      10.049   1.806  22.870  0.00  0.00    +0.232 C 
BRANCH  13  14
ATOM     14  O   UNL     1      10.289   2.302  21.564  0.00  0.00    -0.387 OA
ATOM     15  H   UNL     1      10.895   3.063  21.666  0.00  0.00    +0.210 HD
ENDBRANCH  13  14
ENDBRANCH  11  13
ENDBRANCH  10  11
BRANCH  10  16
ATOM     16  O   UNL     1      10.538   0.627  25.315  0.00  0.00    -0.382 OA
ATOM     17  H   UNL     1       9.792   1.262  25.318  0.00  0.00    +0.210 HD
ENDBRANCH  10  16
ENDBRANCH   1  10
TORSDOF 10
ENDMDL
MODEL 7
REMARK VINA RESULT:      -3.8      3.819      5.620
REMARK  Name = 
REMARK  10 active torsions:
REMARK  status: ('A' for Active; 'I' for Inactive)
REMARK    1  A    between atoms: O_1  and  C_2
REMARK    2  A    between atoms: C_2  and  C_3
REMARK    3  A    between atoms: C_3  and  O_5
REMARK    4  A    between atoms: C_3  and  C_6
REMARK    5  A    between atoms: C_6  and  O_8
REMARK    6  A    between atoms: C_6  and  C_9
REMARK    7  A    between atoms: C_9  and  O_11
REMARK    8  A    between atoms: C_9  and  C_12
REMARK    9  A    between atoms: C_12  and  C_14
REMARK   10  A    between atoms: C_14  and  O_15
REMARK                            x       y       z     vdW  Elec       q    Type
REMARK                         _______ _______ _______ _____ _____    ______ ____
ROOT
ATOM      1  C   UNL     1       7.422  -3.951  24.537  0.00  0.00    +0.181 C 
ENDROOT
BRANCH   1   2
ATOM      2  O   UNL     1       6.916  -5.188  25.065  0.00  0.00    -0.386 OA
ATOM      3  H   UNL     1       6.186  -5.494  24.502  0.00  0.00    +0.210 HD
ENDBRANCH   1   2
BRANCH   1   4
ATOM      4  C   UNL     1       8.848  -3.744  25.078  0.00  0.00    +0.171 C 
BRANCH   4   5
ATOM      5  O   UNL     1       9.755  -3.515  23.992  0.00  0.00    -0.387 OA
ATOM      6  H   UNL     1      10.161  -2.646  24.198  0.00  0.00    +0.210 HD
ENDBRANCH   4   5
BRANCH   4   7
ATOM      7  C   UNL     1       9.391  -4.869  25.966  0.00  0.00    +0.189 C 
BRANCH   7   8
ATOM      8  O   UNL     1       9.846  -5.929  25.112  0.00  0.00    -0.392 OA
ATOM      9  H   UNL     1       9.376  -5.816  24.265  0.00  0.00    +0.210 HD
ENDBRANCH   7   8
ENDBRANCH   4   7
ENDBRANCH   1   4
BRANCH   1  10
ATOM     10  C   UNL     1       7.254  -3.902  23.001  0.00  0.00    +0.213 C 
BRANCH  10  11
ATOM     11  C   UNL     1       7.343  -5.269  22.320  0.00  0.00    +0.189 C 
ATOM     12  O   UNL     1       8.192  -6.100  22.655  0.00  0.00    -0.292 OA
BRANCH  11  13
ATOM     13  C   UNL     1       6.242  -5.621  21.319  0.00  0.00    +0.232 C 
BRANCH  13  14
ATOM     14  O   UNL     1       5.030  -5.990  21.956  0.00  0.00    -0.387 OA
ATOM     15  H   UNL     1       5.258  -6.701  22.587  0.00  0.00    +0.210 HD
ENDBRANCH  13  14
ENDBRANCH  11  13
ENDBRANCH  10  11
BRANCH  10  16
ATOM     16  O   UNL     1       6.055  -3.218  22.631  0.00  0.00    -0.382 OA
ATOM     17  H   UNL     1       6.233  -2.797  21.765  0.00  0.00    +0.210 HD
ENDBRANCH  10  16
ENDBRANCH   1  10
TORSDOF 10
ENDMDL
MODEL 8
REMARK VINA RESULT:      -3.8      1.874      4.727
REMARK  Name = 
REMARK  10 active torsions:
REMARK  status: ('A' for Active; 'I' for Inactive)
REMARK    1  A    between atoms: O_1  and  C_2
REMARK    2  A    between atoms: C_2  and  C_3
REMARK    3  A    between atoms: C_3  and  O_5
REMARK    4  A    between atoms: C_3  and  C_6
REMARK    5  A    between atoms: C_6  and  O_8
REMARK    6  A    between atoms: C_6  and  C_9
REMARK    7  A    between atoms: C_9  and  O_11
REMARK    8  A    between atoms: C_9  and  C_12
REMARK    9  A    between atoms: C_12  and  C_14
REMARK   10  A    between atoms: C_14  and  O_15
REMARK                            x       y       z     vdW  Elec       q    Type
REMARK                         _______ _______ _______ _____ _____    ______ ____
ROOT
ATOM      1  C   UNL     1       9.446  -1.924  24.217  0.00  0.00    +0.181 C 
ENDROOT
BRANCH   1   2
ATOM      2  O   UNL     1      10.395  -2.693  23.458  0.00  0.00    -0.386 OA
ATOM      3  H   UNL     1       9.955  -3.035  22.662  0.00  0.00    +0.210 HD
ENDBRANCH   1   2
BRANCH   1   4
ATOM      4  C   UNL     1       8.841  -0.856  23.290  0.00  0.00    +0.171 C 
BRANCH   4   5
ATOM      5  O   UNL     1       7.705  -1.394  22.601  0.00  0.00    -0.387 OA
ATOM      6  H   UNL     1       7.923  -2.343  22.482  0.00  0.00    +0.210 HD
ENDBRANCH   4   5
BRANCH   4   7
ATOM      7  C   UNL     1       9.805  -0.234  22.273  0.00  0.00    +0.189 C 
BRANCH   7   8
ATOM      8  O   UNL     1       9.900  -1.123  21.150  0.00  0.00    -0.392 OA
ATOM      9  H   UNL     1       9.050  -1.599  21.108  0.00  0.00    +0.210 HD
ENDBRANCH   7   8
ENDBRANCH   4   7
ENDBRANCH   1   4
BRANCH   1  10
ATOM     10  C   UNL     1       8.447  -2.853  24.945  0.00  0.00    +0.213 C 
BRANCH  10  11
ATOM     11  C   UNL     1       8.343  -4.254  24.340  0.00  0.00    +0.189 C 
ATOM     12  O   UNL     1       7.850  -4.436  23.222  0.00  0.00    -0.292 OA
BRANCH  11  13
ATOM     13  C   UNL     1       9.013  -5.395  25.105  0.00  0.00    +0.232 C 
BRANCH  13  14
ATOM     14  O   UNL     1      10.423  -5.258  25.154  0.00  0.00    -0.387 OA
ATOM     15  H   UNL     1      10.631  -4.403  24.726  0.00  0.00    +0.210 HD
ENDBRANCH  13  14
ENDBRANCH  11  13
ENDBRANCH  10  11
BRANCH  10  16
ATOM     16  O   UNL     1       8.722  -2.915  26.346  0.00  0.00    -0.382 OA
ATOM     17  H   UNL     1       9.666  -3.165  26.431  0.00  0.00    +0.210 HD
ENDBRANCH  10  16
ENDBRANCH   1  10
TORSDOF 10
ENDMDL
MODEL 9
REMARK VINA RESULT:      -3.8      4.357      5.768
REMARK  Name = 
REMARK  10 active torsions:
REMARK  status: ('A' for Active; 'I' for Inactive)
REMARK    1  A    between atoms: O_1  and  C_2
REMARK    2  A    between atoms: C_2  and  C_3
REMARK    3  A    between atoms: C_3  and  O_5
REMARK    4  A    between atoms: C_3  and  C_6
REMARK    5  A    between atoms: C_6  and  O_8
REMARK    6  A    between atoms: C_6  and  C_9
REMARK    7  A    between atoms: C_9  and  O_11
REMARK    8  A    between atoms: C_9  and  C_12
REMARK    9  A    between atoms: C_12  and  C_14
REMARK   10  A    between atoms: C_14  and  O_15
REMARK                            x       y       z     vdW  Elec       q    Type
REMARK                         _______ _______ _______ _____ _____    ______ ____
ROOT
ATOM      1  C   UNL     1       7.470  -5.320  23.418  0.00  0.00    +0.181 C 
ENDROOT
BRANCH   1   2
ATOM      2  O   UNL     1       6.306  -5.431  24.256  0.00  0.00    -0.386 OA
ATOM      3  H   UNL     1       6.088  -4.552  24.607  0.00  0.00    +0.210 HD
ENDBRANCH   1   2
BRANCH   1   4
ATOM      4  C   UNL     1       7.064  -4.589  22.126  0.00  0.00    +0.171 C 
BRANCH   4   5
ATOM      5  O   UNL     1       6.356  -3.385  22.448  0.00  0.00    -0.387 OA
ATOM      6  H   UNL     1       6.414  -2.846  21.630  0.00  0.00    +0.210 HD
ENDBRANCH   4   5
BRANCH   4   7
ATOM      7  C   UNL     1       6.241  -5.411  21.128  0.00  0.00    +0.189 C 
BRANCH   7   8
ATOM      8  O   UNL     1       5.892  -6.655  21.756  0.00  0.00    -0.392 OA
ATOM      9  H   UNL     1       5.936  -7.333  21.057  0.00  0.00    +0.210 HD
ENDBRANCH   7   8
ENDBRANCH   4   7
ENDBRANCH   1   4
BRANCH   1  10
ATOM     10  C   UNL     1       8.657  -4.720  24.206  0.00  0.00    +0.213 C 
BRANCH  10  11
ATOM     11  C   UNL     1       8.244  -3.915  25.439  0.00  0.00    +0.189 C 
ATOM     12  O   UNL     1       7.604  -2.863  25.335  0.00  0.00    -0.292 OA
BRANCH  11  13
ATOM     13  C   UNL     1       8.520  -4.542  26.805  0.00  0.00    +0.232 C 
BRANCH  13  14
ATOM     14  O   UNL     1       8.001  -5.858  26.911  0.00  0.00    -0.387 OA
ATOM     15  H   UNL     1       8.601  -6.431  26.393  0.00  0.00    +0.210 HD
ENDBRANCH  13  14
ENDBRANCH  11  13
ENDBRANCH  10  11
BRANCH  10  16
ATOM     16  O   UNL     1       9.616  -5.725  24.543  0.00  0.00    -0.382 OA
ATOM     17  H   UNL     1       9.976  -6.058  23.695  0.00  0.00    +0.210 HD
ENDBRANCH  10  16
ENDBRANCH   1  10
TORSDOF 10
ENDMDL
