MODEL 1
REMARK VINA RESULT:      -3.4      0.000      0.000
REMARK  Name = 
REMARK  7 active torsions:
REMARK  status: ('A' for Active; 'I' for Inactive)
REMARK    1  A    between atoms: O_1  and  C_2
REMARK    2  A    between atoms: C_2  and  C_4
REMARK    3  A    between atoms: C_2  and  C_6
REMARK    4  A    between atoms: C_4  and  S_5
REMARK    5  A    between atoms: C_6  and  O_8
REMARK    6  A    between atoms: C_6  and  C_9
REMARK    7  A    between atoms: C_9  and  S_10
REMARK                            x       y       z     vdW  Elec       q    Type
REMARK                         _______ _______ _______ _____ _____    ______ ____
ROOT
ATOM      1  C   UNL     1      10.123  -0.290  22.199  0.00  0.00    +0.153 C 
ENDROOT
BRANCH   1   2
ATOM      2  O   UNL     1      10.125  -1.464  21.378  0.00  0.00    -0.388 OA
ATOM      3  H   UNL     1       9.994  -1.156  20.462  0.00  0.00    +0.210 HD
ENDBRANCH   1   2
BRANCH   1   4
ATOM      4  C   UNL     1       9.195   0.768  21.561  0.00  0.00    +0.153 C 
BRANCH   4   5
ATOM      5  O   UNL     1       9.906   2.006  21.444  0.00  0.00    -0.388 OA
ATOM      6  H   UNL     1       9.973   2.370  22.345  0.00  0.00    +0.210 HD
ENDBRANCH   4   5
BRANCH   4   7
ATOM      7  C   UNL     1       7.888   0.975  22.342  0.00  0.00    +0.099 C 
BRANCH   7   8
ATOM      8  S   UNL     1       7.293   2.695  22.180  0.00  0.00    -0.176 S 
ATOM      9  H   UNL     1       5.999   2.392  21.998  0.00  0.00    +0.102 HD
ENDBRANCH   7   8
ENDBRANCH   4   7
ENDBRANCH   1   4
BRANCH   1  10
ATOM     10  C   UNL     1       9.739  -0.641  23.643  0.00  0.00    +0.099 C 
BRANCH  10  11
ATOM     11  S   UNL     1       9.647  -2.452  23.877  0.00  0.00    -0.176 S 
ATOM     12  H   UNL     1       8.755  -2.683  22.902  0.00  0.00    +0.102 HD
ENDBRANCH  10  11
ENDBRANCH   1  10
TORSDOF 7
ENDMDL
MODEL 2
REMARK VINA RESULT:      -3.3      1.183      3.636
REMARK  Name = 
REMARK  7 active torsions:
REMARK  status: ('A' for Active; 'I' for Inactive)
REMARK    1  A    between atoms: O_1  and  C_2
REMARK    2  A    between atoms: C_2  and  C_4
REMARK    3  A    between atoms: C_2  and  C_6
REMARK    4  A    between atoms: C_4  and  S_5
REMARK    5  A    between atoms: C_6  and  O_8
REMARK    6  A    between atoms: C_6  and  C_9
REMARK    7  A    between atoms: C_9  and  S_10
REMARK                            x       y       z     vdW  Elec       q    Type
REMARK                         _______ _______ _______ _____ _____    ______ ____
ROOT
ATOM      1  C   UNL     1       9.070   1.014  21.493  0.00  0.00    +0.153 C 
ENDROOT
BRANCH   1   2
ATOM      2  O   UNL     1       9.861   2.207  21.472  0.00  0.00    -0.388 OA
ATOM      3  H   UNL     1       9.390   2.856  22.028  0.00  0.00    +0.210 HD
ENDBRANCH   1   2
BRANCH   1   4
ATOM      4  C   UNL     1       9.915  -0.140  22.076  0.00  0.00    +0.153 C 
BRANCH   4   5
ATOM      5  O   UNL     1       9.727  -1.312  21.274  0.00  0.00    -0.388 OA
ATOM      6  H   UNL     1      10.125  -1.117  20.406  0.00  0.00    +0.210 HD
ENDBRANCH   4   5
BRANCH   4   7
ATOM      7  C   UNL     1       9.592  -0.443  23.547  0.00  0.00    +0.099 C 
BRANCH   7   8
ATOM      8  S   UNL     1      10.665   0.524  24.667  0.00  0.00    -0.176 S 
ATOM      9  H   UNL     1      11.064  -0.508  25.425  0.00  0.00    +0.102 HD
ENDBRANCH   7   8
ENDBRANCH   4   7
ENDBRANCH   1   4
BRANCH   1  10
ATOM     10  C   UNL     1       7.758   1.248  22.255  0.00  0.00    +0.099 C 
BRANCH  10  11
ATOM     11  S   UNL     1       7.293   3.016  22.235  0.00  0.00    -0.176 S 
ATOM     12  H   UNL     1       6.811   3.029  20.984  0.00  0.00    +0.102 HD
ENDBRANCH  10  11
ENDBRANCH   1  10
TORSDOF 7
ENDMDL
MODEL 3
REMARK VINA RESULT:      -3.3      5.994      6.861
REMARK  Name = 
REMARK  7 active torsions:
REMARK  status: ('A' for Active; 'I' for Inactive)
REMARK    1  A    between atoms: O_1  and  C_2
REMARK    2  A    between atoms: C_2  and  C_4
REMARK    3  A    between atoms: C_2  and  C_6
REMARK    4  A    between atoms: C_4  and  S_5
REMARK    5  A    between atoms: C_6  and  O_8
REMARK    6  A    between atoms: C_6  and  C_9
REMARK    7  A    between atoms: C_9  and  S_10
REMARK                            x       y       z     vdW  Elec       q    Type
REMARK                         _______ _______ _______ _____ _____    ______ ____
ROOT
ATOM      1  C   UNL     1       8.470  -4.790  26.709  0.00  0.00    +0.153 C 
ENDROOT
BRANCH   1   2
ATOM      2  O   UNL     1       7.930  -5.868  27.483  0.00  0.00    -0.388 OA
ATOM      3  H   UNL     1       8.681  -6.451  27.700  0.00  0.00    +0.210 HD
ENDBRANCH   1   2
BRANCH   1   4
ATOM      4  C   UNL     1       8.906  -5.331  25.329  0.00  0.00    +0.153 C 
BRANCH   4   5
ATOM      5  O   UNL     1      10.319  -5.569  25.343  0.00  0.00    -0.388 OA
ATOM      6  H   UNL     1      10.468  -6.367  24.805  0.00  0.00    +0.210 HD
ENDBRANCH   4   5
BRANCH   4   7
ATOM      7  C   UNL     1       8.534  -4.396  24.168  0.00  0.00    +0.099 C 
BRANCH   7   8
ATOM      8  S   UNL     1       7.326  -5.189  23.049  0.00  0.00    -0.176 S 
ATOM      9  H   UNL     1       8.211  -5.946  22.383  0.00  0.00    +0.102 HD
ENDBRANCH   7   8
ENDBRANCH   4   7
ENDBRANCH   1   4
BRANCH   1  10
ATOM     10  C   UNL     1       7.464  -3.634  26.617  0.00  0.00    +0.099 C 
BRANCH  10  11
ATOM     11  S   UNL     1       5.843  -4.116  27.312  0.00  0.00    -0.176 S 
ATOM     12  H   UNL     1       6.210  -4.051  28.601  0.00  0.00    +0.102 HD
ENDBRANCH  10  11
ENDBRANCH   1  10
TORSDOF 7
ENDMDL
MODEL 4
REMARK VINA RESULT:      -3.3      6.000      6.794
REMARK  Name = 
REMARK  7 active torsions:
REMARK  status: ('A' for Active; 'I' for Inactive)
REMARK    1  A    between atoms: O_1  and  C_2
REMARK    2  A    between atoms: C_2  and  C_4
REMARK    3  A    between atoms: C_2  and  C_6
REMARK    4  A    between atoms: C_4  and  S_5
REMARK    5  A    between atoms: C_6  and  O_8
REMARK    6  A    between atoms: C_6  and  C_9
REMARK    7  A    between atoms: C_9  and  S_10
REMARK                            x       y       z     vdW  Elec       q    Type
REMARK                         _______ _______ _______ _____ _____    ______ ____
ROOT
ATOM      1  C   UNL     1       8.935  -5.330  25.338  0.00  0.00    +0.153 C 
ENDROOT
BRANCH   1   2
ATOM      2  O   UNL     1      10.347  -5.571  25.348  0.00  0.00    -0.388 OA
ATOM      3  H   UNL     1      10.729  -4.929  25.975  0.00  0.00    +0.210 HD
ENDBRANCH   1   2
BRANCH   1   4
ATOM      4  C   UNL     1       8.510  -4.778  26.717  0.00  0.00    +0.153 C 
BRANCH   4   5
ATOM      5  O   UNL     1       7.913  -5.834  27.480  0.00  0.00    -0.388 OA
ATOM      6  H   UNL     1       8.409  -5.882  28.317  0.00  0.00    +0.210 HD
ENDBRANCH   4   5
BRANCH   4   7
ATOM      7  C   UNL     1       7.551  -3.581  26.620  0.00  0.00    +0.099 C 
BRANCH   7   8
ATOM      8  S   UNL     1       5.843  -4.073  27.046  0.00  0.00    -0.176 S 
ATOM      9  H   UNL     1       5.909  -5.311  26.533  0.00  0.00    +0.102 HD
ENDBRANCH   7   8
ENDBRANCH   4   7
ENDBRANCH   1   4
BRANCH   1  10
ATOM     10  C   UNL     1       8.554  -4.405  24.172  0.00  0.00    +0.099 C 
BRANCH  10  11
ATOM     11  S   UNL     1       7.306  -5.191  23.092  0.00  0.00    -0.176 S 
ATOM     12  H   UNL     1       7.269  -4.215  22.173  0.00  0.00    +0.102 HD
ENDBRANCH  10  11
ENDBRANCH   1  10
TORSDOF 7
ENDMDL
MODEL 5
REMARK VINA RESULT:      -3.2      4.681      5.791
REMARK  Name = 
REMARK  7 active torsions:
REMARK  status: ('A' for Active; 'I' for Inactive)
REMARK    1  A    between atoms: O_1  and  C_2
REMARK    2  A    between atoms: C_2  and  C_4
REMARK    3  A    between atoms: C_2  and  C_6
REMARK    4  A    between atoms: C_4  and  S_5
REMARK    5  A    between atoms: C_6  and  O_8
REMARK    6  A    between atoms: C_6  and  C_9
REMARK    7  A    between atoms: C_9  and  S_10
REMARK                            x       y       z     vdW  Elec       q    Type
REMARK                         _______ _______ _______ _____ _____    ______ ____
ROOT
ATOM      1  C   UNL     1       8.720  -3.947  26.267  0.00  0.00    +0.153 C 
ENDROOT
BRANCH   1   2
ATOM      2  O   UNL     1       9.351  -4.893  27.138  0.00  0.00    -0.388 OA
ATOM      3  H   UNL     1      10.219  -4.513  27.369  0.00  0.00    +0.210 HD
ENDBRANCH   1   2
BRANCH   1   4
ATOM      4  C   UNL     1       9.206  -4.192  24.821  0.00  0.00    +0.153 C 
BRANCH   4   5
ATOM      5  O   UNL     1      10.305  -5.111  24.845  0.00  0.00    -0.388 OA
ATOM      6  H   UNL     1      11.043  -4.645  25.276  0.00  0.00    +0.210 HD
ENDBRANCH   4   5
BRANCH   4   7
ATOM      7  C   UNL     1       9.606  -2.901  24.090  0.00  0.00    +0.099 C 
BRANCH   7   8
ATOM      8  S   UNL     1       8.343  -2.429  22.856  0.00  0.00    -0.176 S 
ATOM      9  H   UNL     1       7.474  -3.408  23.145  0.00  0.00    +0.102 HD
ENDBRANCH   7   8
ENDBRANCH   4   7
ENDBRANCH   1   4
BRANCH   1  10
ATOM     10  C   UNL     1       7.192  -4.015  26.412  0.00  0.00    +0.099 C 
BRANCH  10  11
ATOM     11  S   UNL     1       6.460  -5.113  25.146  0.00  0.00    -0.176 S 
ATOM     12  H   UNL     1       6.808  -6.268  25.732  0.00  0.00    +0.102 HD
ENDBRANCH  10  11
ENDBRANCH   1  10
TORSDOF 7
ENDMDL
MODEL 6
REMARK VINA RESULT:      -3.1      4.685      6.117
REMARK  Name = 
REMARK  7 active torsions:
REMARK  status: ('A' for Active; 'I' for Inactive)
REMARK    1  A    between atoms: O_1  and  C_2
REMARK    2  A    between atoms: C_2  and  C_4
REMARK    3  A    between atoms: C_2  and  C_6
REMARK    4  A    between atoms: C_4  and  S_5
REMARK    5  A    between atoms: C_6  and  O_8
REMARK    6  A    between atoms: C_6  and  C_9
REMARK    7  A    between atoms: C_9  and  S_10
REMARK                            x       y       z     vdW  Elec       q    Type
REMARK                         _______ _______ _______ _____ _____    ______ ____
ROOT
ATOM      1  C   UNL     1       8.210  -4.367  24.125  0.00  0.00    +0.153 C 
ENDROOT
BRANCH   1   2
ATOM      2  O   UNL     1       8.223  -5.527  23.286  0.00  0.00    -0.388 OA
ATOM      3  H   UNL     1       7.663  -5.313  22.516  0.00  0.00    +0.210 HD
ENDBRANCH   1   2
BRANCH   1   4
ATOM      4  C   UNL     1       9.374  -4.465  25.136  0.00  0.00    +0.153 C 
BRANCH   4   5
ATOM      5  O   UNL     1      10.100  -5.677  24.900  0.00  0.00    -0.388 OA
ATOM      6  H   UNL     1       9.690  -6.357  25.464  0.00  0.00    +0.210 HD
ENDBRANCH   4   5
BRANCH   4   7
ATOM      7  C   UNL     1       8.911  -4.397  26.600  0.00  0.00    +0.099 C 
BRANCH   7   8
ATOM      8  S   UNL     1       7.284  -5.202  26.812  0.00  0.00    -0.176 S 
ATOM      9  H   UNL     1       6.806  -4.901  25.595  0.00  0.00    +0.102 HD
ENDBRANCH   7   8
ENDBRANCH   4   7
ENDBRANCH   1   4
BRANCH   1  10
ATOM     10  C   UNL     1       8.249  -3.087  23.278  0.00  0.00    +0.099 C 
BRANCH  10  11
ATOM     11  S   UNL     1       9.786  -2.145  23.583  0.00  0.00    -0.176 S 
ATOM     12  H   UNL     1      10.613  -3.201  23.570  0.00  0.00    +0.102 HD
ENDBRANCH  10  11
ENDBRANCH   1  10
TORSDOF 7
ENDMDL
MODEL 7
REMARK VINA RESULT:      -3.1      5.689      6.886
REMARK  Name = 
REMARK  7 active torsions:
REMARK  status: ('A' for Active; 'I' for Inactive)
REMARK    1  A    between atoms: O_1  and  C_2
REMARK    2  A    between atoms: C_2  and  C_4
REMARK    3  A    between atoms: C_2  and  C_6
REMARK    4  A    between atoms: C_4  and  S_5
REMARK    5  A    between atoms: C_6  and  O_8
REMARK    6  A    between atoms: C_6  and  C_9
REMARK    7  A    between atoms: C_9  and  S_10
REMARK                            x       y       z     vdW  Elec       q    Type
REMARK                         _______ _______ _______ _____ _____    ______ ____
ROOT
ATOM      1  C   UNL     1       8.633  -5.117  25.187  0.00  0.00    +0.153 C 
ENDROOT
BRANCH   1   2
ATOM      2  O   UNL     1       9.686  -6.013  25.559  0.00  0.00    -0.388 OA
ATOM      3  H   UNL     1       9.932  -6.497  24.749  0.00  0.00    +0.210 HD
ENDBRANCH   1   2
BRANCH   1   4
ATOM      4  C   UNL     1       7.566  -5.102  26.304  0.00  0.00    +0.153 C 
BRANCH   4   5
ATOM      5  O   UNL     1       8.057  -5.836  27.432  0.00  0.00    -0.388 OA
ATOM      6  H   UNL     1       7.845  -5.303  28.220  0.00  0.00    +0.210 HD
ENDBRANCH   4   5
BRANCH   4   7
ATOM      7  C   UNL     1       6.209  -5.664  25.852  0.00  0.00    +0.099 C 
BRANCH   7   8
ATOM      8  S   UNL     1       5.924  -5.342  24.076  0.00  0.00    -0.176 S 
ATOM      9  H   UNL     1       6.928  -6.106  23.621  0.00  0.00    +0.102 HD
ENDBRANCH   7   8
ENDBRANCH   4   7
ENDBRANCH   1   4
BRANCH   1  10
ATOM     10  C   UNL     1       9.196  -3.724  24.868  0.00  0.00    +0.099 C 
BRANCH  10  11
ATOM     11  S   UNL     1       8.382  -2.439  25.883  0.00  0.00    -0.176 S 
ATOM     12  H   UNL     1       7.476  -2.076  24.964  0.00  0.00    +0.102 HD
ENDBRANCH  10  11
ENDBRANCH   1  10
TORSDOF 7
ENDMDL
MODEL 8
REMARK VINA RESULT:      -3.1      2.699      3.495
REMARK  Name = 
REMARK  7 active torsions:
REMARK  status: ('A' for Active; 'I' for Inactive)
REMARK    1  A    between atoms: O_1  and  C_2
REMARK    2  A    between atoms: C_2  and  C_4
REMARK    3  A    between atoms: C_2  and  C_6
REMARK    4  A    between atoms: C_4  and  S_5
REMARK    5  A    between atoms: C_6  and  O_8
REMARK    6  A    between atoms: C_6  and  C_9
REMARK    7  A    between atoms: C_9  and  S_10
REMARK                            x       y       z     vdW  Elec       q    Type
REMARK                         _______ _______ _______ _____ _____    ______ ____
ROOT
ATOM      1  C   UNL     1       9.056  -1.780  22.278  0.00  0.00    +0.153 C 
ENDROOT
BRANCH   1   2
ATOM      2  O   UNL     1       9.665  -1.091  21.180  0.00  0.00    -0.388 OA
ATOM      3  H   UNL     1       9.982  -0.239  21.535  0.00  0.00    +0.210 HD
ENDBRANCH   1   2
BRANCH   1   4
ATOM      4  C   UNL     1      10.059  -1.845  23.451  0.00  0.00    +0.153 C 
BRANCH   4   5
ATOM      5  O   UNL     1      10.106  -3.185  23.954  0.00  0.00    -0.388 OA
ATOM      6  H   UNL     1       9.681  -3.747  23.281  0.00  0.00    +0.210 HD
ENDBRANCH   4   5
BRANCH   4   7
ATOM      7  C   UNL     1       9.730  -0.861  24.584  0.00  0.00    +0.099 C 
BRANCH   7   8
ATOM      8  S   UNL     1      10.745   0.654  24.453  0.00  0.00    -0.176 S 
ATOM      9  H   UNL     1      10.279   1.245  25.563  0.00  0.00    +0.102 HD
ENDBRANCH   7   8
ENDBRANCH   4   7
ENDBRANCH   1   4
BRANCH   1  10
ATOM     10  C   UNL     1       7.723  -1.119  22.657  0.00  0.00    +0.099 C 
BRANCH  10  11
ATOM     11  S   UNL     1       6.429  -2.374  22.958  0.00  0.00    -0.176 S 
ATOM     12  H   UNL     1       5.470  -1.513  23.332  0.00  0.00    +0.102 HD
ENDBRANCH  10  11
ENDBRANCH   1  10
TORSDOF 7
ENDMDL
MODEL 9
REMARK VINA RESULT:      -3.1      2.042      2.341
REMARK  Name = 
REMARK  7 active torsions:
REMARK  status: ('A' for Active; 'I' for Inactive)
REMARK    1  A    between atoms: O_1  and  C_2
REMARK    2  A    between atoms: C_2  and  C_4
REMARK    3  A    between atoms: C_2  and  C_6
REMARK    4  A    between atoms: C_4  and  S_5
REMARK    5  A    between atoms: C_6  and  O_8
REMARK    6  A    between atoms: C_6  and  C_9
REMARK    7  A    between atoms: C_9  and  S_10
REMARK                            x       y       z     vdW  Elec       q    Type
REMARK                         _______ _______ _______ _____ _____    ______ ____
ROOT
ATOM      1  C   UNL     1       9.303   1.374  22.031  0.00  0.00    +0.153 C 
ENDROOT
BRANCH   1   2
ATOM      2  O   UNL     1      10.342   2.247  21.574  0.00  0.00    -0.388 OA
ATOM      3  H   UNL     1      10.643   1.889  20.718  0.00  0.00    +0.210 HD
ENDBRANCH   1   2
BRANCH   1   4
ATOM      4  C   UNL     1       7.935   2.046  21.779  0.00  0.00    +0.153 C 
BRANCH   4   5
ATOM      5  O   UNL     1       8.056   3.456  22.005  0.00  0.00    -0.388 OA
ATOM      6  H   UNL     1       8.712   3.782  21.363  0.00  0.00    +0.210 HD
ENDBRANCH   4   5
BRANCH   4   7
ATOM      7  C   UNL     1       6.806   1.462  22.642  0.00  0.00    +0.099 C 
BRANCH   7   8
ATOM      8  S   UNL     1       7.349   1.245  24.373  0.00  0.00    -0.176 S 
ATOM      9  H   UNL     1       8.624   1.613  24.180  0.00  0.00    +0.102 HD
ENDBRANCH   7   8
ENDBRANCH   4   7
ENDBRANCH   1   4
BRANCH   1  10
ATOM     10  C   UNL     1       9.430  -0.007  21.373  0.00  0.00    +0.099 C 
BRANCH  10  11
ATOM     11  S   UNL     1      10.061  -1.246  22.560  0.00  0.00    -0.176 S 
ATOM     12  H   UNL     1       9.431  -2.301  22.023  0.00  0.00    +0.102 HD
ENDBRANCH  10  11
ENDBRANCH   1  10
TORSDOF 7
ENDMDL
