MODEL 1
REMARK VINA RESULT:      -7.7      0.000      0.000
REMARK  Name = 
REMARK  7 active torsions:
REMARK  status: ('A' for Active; 'I' for Inactive)
REMARK    1  A    between atoms: C_1  and  C_2
REMARK    2  A    between atoms: C_2  and  C_4
REMARK    3  A    between atoms: C_4  and  C_5
REMARK    4  A    between atoms: C_5  and  C_6
REMARK    5  A    between atoms: C_5  and  C_15
REMARK    6  A    between atoms: C_9  and  N_12
REMARK    7  A    between atoms: C_16  and  O_17
REMARK                            x       y       z     vdW  Elec       q    Type
REMARK                         _______ _______ _______ _____ _____    ______ ____
ROOT
ATOM      1  C   UNL     1       6.851  -3.290  23.747  0.00  0.00    +0.067 C 
ENDROOT
BRANCH   1   2
ATOM      2  C   UNL     1       7.793  -2.098  23.934  0.00  0.00    +0.087 A 
ATOM      3  C   UNL     1       9.231  -2.426  24.172  0.00  0.00    +0.345 A 
ATOM      4  O   UNL     1       9.635  -3.583  24.214  0.00  0.00    -0.245 OA
ATOM      5  O   UNL     1      10.125  -1.380  24.337  0.00  0.00    -0.422 OA
ATOM      6  C   UNL     1       9.753  -0.059  24.066  0.00  0.00    +0.143 A 
ATOM      7  C   UNL     1       8.429   0.266  23.803  0.00  0.00    +0.059 A 
ATOM      8  C   UNL     1       8.134   1.601  23.494  0.00  0.00    +0.015 A 
ATOM      9  C   UNL     1       9.149   2.563  23.432  0.00  0.00    +0.001 A 
ATOM     10  C   UNL     1      10.471   2.206  23.700  0.00  0.00    +0.004 A 
ATOM     11  C   UNL     1      10.775   0.890  24.029  0.00  0.00    +0.047 A 
ATOM     12  C   UNL     1       7.427  -0.805  23.807  0.00  0.00    +0.138 A 
BRANCH  12  13
ATOM     13  O   UNL     1       6.137  -0.358  23.599  0.00  0.00    -0.506 OA
ATOM     14  H   UNL     1       5.792   0.111  24.373  0.00  0.00    +0.292 HD
ENDBRANCH  12  13
ENDBRANCH   1   2
BRANCH   1  15
ATOM     15  C   UNL     1       6.485  -4.010  25.051  0.00  0.00    -0.039 A 
ATOM     16  C   UNL     1       6.048  -5.348  25.003  0.00  0.00    +0.011 A 
ATOM     17  C   UNL     1       5.852  -6.087  26.176  0.00  0.00    +0.084 A 
ATOM     18  C   UNL     1       6.085  -5.484  27.417  0.00  0.00    +0.273 A 
ATOM     19  C   UNL     1       6.462  -4.140  27.489  0.00  0.00    +0.084 A 
ATOM     20  C   UNL     1       6.648  -3.410  26.312  0.00  0.00    +0.011 A 
BRANCH  18  21
ATOM     21  N   UNL     1       5.962  -6.271  28.650  0.00  0.00    +0.080 N 
ATOM     22  O   UNL     1       5.704  -7.479  28.541  0.00  0.00    +0.041 OA
ATOM     23  O   UNL     1       6.136  -5.685  29.728  0.00  0.00    -0.576 OA
ENDBRANCH  18  21
ENDBRANCH   1  15
BRANCH   1  24
ATOM     24  C   UNL     1       7.339  -4.215  22.605  0.00  0.00    +0.087 C 
BRANCH  24  26
ATOM     25  C   UNL     1       6.141  -5.883  21.059  0.00  0.00    +0.086 C 
ATOM     26  C   UNL     1       6.263  -4.470  21.567  0.00  0.00    +0.131 C 
ATOM     27  O   UNL     1       5.579  -3.558  21.103  0.00  0.00    -0.298 OA
ENDBRANCH  24  26
ENDBRANCH   1  24
TORSDOF 6
ENDMDL
MODEL 2
REMARK VINA RESULT:      -7.4      2.688      6.311
REMARK  Name = 
REMARK  7 active torsions:
REMARK  status: ('A' for Active; 'I' for Inactive)
REMARK    1  A    between atoms: C_1  and  C_2
REMARK    2  A    between atoms: C_2  and  C_4
REMARK    3  A    between atoms: C_4  and  C_5
REMARK    4  A    between atoms: C_5  and  C_6
REMARK    5  A    between atoms: C_5  and  C_15
REMARK    6  A    between atoms: C_9  and  N_12
REMARK    7  A    between atoms: C_16  and  O_17
REMARK                            x       y       z     vdW  Elec       q    Type
REMARK                         _______ _______ _______ _____ _____    ______ ____
ROOT
ATOM      1  C   UNL     1       7.797  -3.381  23.195  0.00  0.00    +0.067 C 
ENDROOT
BRANCH   1   2
ATOM      2  C   UNL     1       7.288  -4.026  24.486  0.00  0.00    +0.087 A 
ATOM      3  C   UNL     1       8.122  -5.135  25.041  0.00  0.00    +0.345 A 
ATOM      4  O   UNL     1       9.154  -5.508  24.494  0.00  0.00    -0.245 OA
ATOM      5  O   UNL     1       7.708  -5.745  26.214  0.00  0.00    -0.422 OA
ATOM      6  C   UNL     1       6.676  -5.203  26.987  0.00  0.00    +0.143 A 
ATOM      7  C   UNL     1       5.912  -4.146  26.511  0.00  0.00    +0.059 A 
ATOM      8  C   UNL     1       4.925  -3.621  27.357  0.00  0.00    +0.015 A 
ATOM      9  C   UNL     1       4.738  -4.137  28.645  0.00  0.00    +0.001 A 
ATOM     10  C   UNL     1       5.522  -5.198  29.097  0.00  0.00    +0.004 A 
ATOM     11  C   UNL     1       6.490  -5.743  28.261  0.00  0.00    +0.047 A 
ATOM     12  C   UNL     1       6.213  -3.602  25.183  0.00  0.00    +0.138 A 
BRANCH  12  13
ATOM     13  O   UNL     1       5.349  -2.600  24.786  0.00  0.00    -0.506 OA
ATOM     14  H   UNL     1       5.251  -1.920  25.469  0.00  0.00    +0.292 HD
ENDBRANCH  12  13
ENDBRANCH   1   2
BRANCH   1  15
ATOM     15  C   UNL     1       8.423  -1.994  23.392  0.00  0.00    -0.039 A 
ATOM     16  C   UNL     1       7.881  -0.887  22.711  0.00  0.00    +0.011 A 
ATOM     17  C   UNL     1       8.323   0.414  22.980  0.00  0.00    +0.084 A 
ATOM     18  C   UNL     1       9.326   0.618  23.934  0.00  0.00    +0.273 A 
ATOM     19  C   UNL     1       9.918  -0.471  24.578  0.00  0.00    +0.084 A 
ATOM     20  C   UNL     1       9.474  -1.766  24.297  0.00  0.00    +0.011 A 
BRANCH  18  21
ATOM     21  N   UNL     1       9.739   1.982  24.283  0.00  0.00    +0.080 N 
ATOM     22  O   UNL     1      10.838   2.377  23.868  0.00  0.00    +0.041 OA
ATOM     23  O   UNL     1       8.960   2.664  24.964  0.00  0.00    -0.576 OA
ENDBRANCH  18  21
ENDBRANCH   1  15
BRANCH   1  24
ATOM     24  C   UNL     1       6.735  -3.464  22.072  0.00  0.00    +0.087 C 
BRANCH  24  26
ATOM     25  C   UNL     1       7.070  -5.940  21.471  0.00  0.00    +0.086 C 
ATOM     26  C   UNL     1       6.139  -4.852  21.940  0.00  0.00    +0.131 C 
ATOM     27  O   UNL     1       4.942  -5.067  22.127  0.00  0.00    -0.298 OA
ENDBRANCH  24  26
ENDBRANCH   1  24
TORSDOF 6
ENDMDL
MODEL 3
REMARK VINA RESULT:      -7.3      2.666      4.348
REMARK  Name = 
REMARK  7 active torsions:
REMARK  status: ('A' for Active; 'I' for Inactive)
REMARK    1  A    between atoms: C_1  and  C_2
REMARK    2  A    between atoms: C_2  and  C_4
REMARK    3  A    between atoms: C_4  and  C_5
REMARK    4  A    between atoms: C_5  and  C_6
REMARK    5  A    between atoms: C_5  and  C_15
REMARK    6  A    between atoms: C_9  and  N_12
REMARK    7  A    between atoms: C_16  and  O_17
REMARK                            x       y       z     vdW  Elec       q    Type
REMARK                         _______ _______ _______ _____ _____    ______ ____
ROOT
ATOM      1  C   UNL     1       6.624  -4.318  25.463  0.00  0.00    +0.067 C 
ENDROOT
BRANCH   1   2
ATOM      2  C   UNL     1       7.565  -3.351  24.740  0.00  0.00    +0.087 A 
ATOM      3  C   UNL     1       8.898  -3.899  24.347  0.00  0.00    +0.345 A 
ATOM      4  O   UNL     1       9.221  -5.057  24.589  0.00  0.00    -0.245 OA
ATOM      5  O   UNL     1       9.781  -3.065  23.681  0.00  0.00    -0.422 OA
ATOM      6  C   UNL     1       9.370  -1.824  23.183  0.00  0.00    +0.143 A 
ATOM      7  C   UNL     1       8.121  -1.310  23.501  0.00  0.00    +0.059 A 
ATOM      8  C   UNL     1       7.755  -0.083  22.930  0.00  0.00    +0.015 A 
ATOM      9  C   UNL     1       8.618   0.583  22.052  0.00  0.00    +0.001 A 
ATOM     10  C   UNL     1       9.867   0.042  21.749  0.00  0.00    +0.004 A 
ATOM     11  C   UNL     1      10.252  -1.164  22.326  0.00  0.00    +0.047 A 
ATOM     12  C   UNL     1       7.234  -2.097  24.364  0.00  0.00    +0.138 A 
BRANCH  12  13
ATOM     13  O   UNL     1       6.047  -1.460  24.667  0.00  0.00    -0.506 OA
ATOM     14  H   UNL     1       6.063  -1.077  25.556  0.00  0.00    +0.292 HD
ENDBRANCH  12  13
ENDBRANCH   1   2
BRANCH   1  15
ATOM     15  C   UNL     1       5.327  -4.618  24.701  0.00  0.00    -0.039 A 
ATOM     16  C   UNL     1       5.361  -5.482  23.590  0.00  0.00    +0.011 A 
ATOM     17  C   UNL     1       4.181  -5.901  22.964  0.00  0.00    +0.084 A 
ATOM     18  C   UNL     1       2.948  -5.448  23.443  0.00  0.00    +0.273 A 
ATOM     19  C   UNL     1       2.894  -4.544  24.507  0.00  0.00    +0.084 A 
ATOM     20  C   UNL     1       4.078  -4.126  25.121  0.00  0.00    +0.011 A 
BRANCH  18  21
ATOM     21  N   UNL     1       1.701  -5.945  22.848  0.00  0.00    +0.080 N 
ATOM     22  O   UNL     1       0.719  -5.188  22.847  0.00  0.00    +0.041 OA
ATOM     23  O   UNL     1       1.706  -7.088  22.370  0.00  0.00    -0.576 OA
ENDBRANCH  18  21
ENDBRANCH   1  15
BRANCH   1  24
ATOM     24  C   UNL     1       6.432  -3.909  26.943  0.00  0.00    +0.087 C 
BRANCH  24  26
ATOM     25  C   UNL     1       5.281  -5.183  28.857  0.00  0.00    +0.086 C 
ATOM     26  C   UNL     1       6.423  -5.104  27.877  0.00  0.00    +0.131 C 
ATOM     27  O   UNL     1       7.341  -5.924  27.892  0.00  0.00    -0.298 OA
ENDBRANCH  24  26
ENDBRANCH   1  24
TORSDOF 6
ENDMDL
MODEL 4
REMARK VINA RESULT:      -7.1      0.966      2.091
REMARK  Name = 
REMARK  7 active torsions:
REMARK  status: ('A' for Active; 'I' for Inactive)
REMARK    1  A    between atoms: C_1  and  C_2
REMARK    2  A    between atoms: C_2  and  C_4
REMARK    3  A    between atoms: C_4  and  C_5
REMARK    4  A    between atoms: C_5  and  C_6
REMARK    5  A    between atoms: C_5  and  C_15
REMARK    6  A    between atoms: C_9  and  N_12
REMARK    7  A    between atoms: C_16  and  O_17
REMARK                            x       y       z     vdW  Elec       q    Type
REMARK                         _______ _______ _______ _____ _____    ______ ____
ROOT
ATOM      1  C   UNL     1       6.727  -3.356  23.766  0.00  0.00    +0.067 C 
ENDROOT
BRANCH   1   2
ATOM      2  C   UNL     1       7.311  -1.942  23.799  0.00  0.00    +0.087 A 
ATOM      3  C   UNL     1       6.379  -0.853  24.222  0.00  0.00    +0.345 A 
ATOM      4  O   UNL     1       5.213  -1.080  24.527  0.00  0.00    -0.245 OA
ATOM      5  O   UNL     1       6.864   0.443  24.277  0.00  0.00    -0.422 OA
ATOM      6  C   UNL     1       8.232   0.710  24.165  0.00  0.00    +0.143 A 
ATOM      7  C   UNL     1       9.125  -0.292  23.812  0.00  0.00    +0.059 A 
ATOM      8  C   UNL     1      10.487   0.034  23.764  0.00  0.00    +0.015 A 
ATOM      9  C   UNL     1      10.926   1.324  24.086  0.00  0.00    +0.001 A 
ATOM     10  C   UNL     1      10.006   2.310  24.440  0.00  0.00    +0.004 A 
ATOM     11  C   UNL     1       8.649   2.007  24.470  0.00  0.00    +0.047 A 
ATOM     12  C   UNL     1       8.607  -1.642  23.564  0.00  0.00    +0.138 A 
BRANCH  12  13
ATOM     13  O   UNL     1       9.572  -2.540  23.156  0.00  0.00    -0.506 OA
ATOM     14  H   UNL     1       9.627  -2.592  22.190  0.00  0.00    +0.292 HD
ENDBRANCH  12  13
ENDBRANCH   1   2
BRANCH   1  15
ATOM     15  C   UNL     1       6.607  -4.016  25.146  0.00  0.00    -0.039 A 
ATOM     16  C   UNL     1       5.333  -4.355  25.641  0.00  0.00    +0.011 A 
ATOM     17  C   UNL     1       5.190  -5.095  26.822  0.00  0.00    +0.084 A 
ATOM     18  C   UNL     1       6.331  -5.497  27.525  0.00  0.00    +0.273 A 
ATOM     19  C   UNL     1       7.601  -5.121  27.083  0.00  0.00    +0.084 A 
ATOM     20  C   UNL     1       7.733  -4.377  25.907  0.00  0.00    +0.011 A 
BRANCH  18  21
ATOM     21  N   UNL     1       6.197  -6.342  28.718  0.00  0.00    +0.080 N 
ATOM     22  O   UNL     1       6.484  -5.842  29.816  0.00  0.00    +0.041 OA
ATOM     23  O   UNL     1       5.794  -7.503  28.560  0.00  0.00    -0.576 OA
ENDBRANCH  18  21
ENDBRANCH   1  15
BRANCH   1  24
ATOM     24  C   UNL     1       7.419  -4.222  22.686  0.00  0.00    +0.087 C 
BRANCH  24  26
ATOM     25  C   UNL     1       6.407  -6.445  21.885  0.00  0.00    +0.086 C 
ATOM     26  C   UNL     1       6.424  -4.941  21.796  0.00  0.00    +0.131 C 
ATOM     27  O   UNL     1       5.722  -4.337  20.984  0.00  0.00    -0.298 OA
ENDBRANCH  24  26
ENDBRANCH   1  24
TORSDOF 6
ENDMDL
MODEL 5
REMARK VINA RESULT:      -6.9      3.023      6.858
REMARK  Name = 
REMARK  7 active torsions:
REMARK  status: ('A' for Active; 'I' for Inactive)
REMARK    1  A    between atoms: C_1  and  C_2
REMARK    2  A    between atoms: C_2  and  C_4
REMARK    3  A    between atoms: C_4  and  C_5
REMARK    4  A    between atoms: C_5  and  C_6
REMARK    5  A    between atoms: C_5  and  C_15
REMARK    6  A    between atoms: C_9  and  N_12
REMARK    7  A    between atoms: C_16  and  O_17
REMARK                            x       y       z     vdW  Elec       q    Type
REMARK                         _______ _______ _______ _____ _____    ______ ____
ROOT
ATOM      1  C   UNL     1       8.216  -3.590  23.573  0.00  0.00    +0.067 C 
ENDROOT
BRANCH   1   2
ATOM      2  C   UNL     1       7.469  -3.724  24.902  0.00  0.00    +0.087 A 
ATOM      3  C   UNL     1       6.316  -2.796  25.107  0.00  0.00    +0.345 A 
ATOM      4  O   UNL     1       5.986  -1.974  24.259  0.00  0.00    -0.245 OA
ATOM      5  O   UNL     1       5.602  -2.886  26.291  0.00  0.00    -0.422 OA
ATOM      6  C   UNL     1       5.795  -3.953  27.174  0.00  0.00    +0.143 A 
ATOM      7  C   UNL     1       6.834  -4.852  26.985  0.00  0.00    +0.059 A 
ATOM      8  C   UNL     1       6.941  -5.925  27.881  0.00  0.00    +0.015 A 
ATOM      9  C   UNL     1       6.013  -6.088  28.916  0.00  0.00    +0.001 A 
ATOM     10  C   UNL     1       4.977  -5.169  29.081  0.00  0.00    +0.004 A 
ATOM     11  C   UNL     1       4.872  -4.088  28.212  0.00  0.00    +0.047 A 
ATOM     12  C   UNL     1       7.725  -4.668  25.834  0.00  0.00    +0.138 A 
BRANCH  12  13
ATOM     13  O   UNL     1       8.760  -5.580  25.782  0.00  0.00    -0.506 OA
ATOM     14  H   UNL     1       9.254  -5.514  24.951  0.00  0.00    +0.292 HD
ENDBRANCH  12  13
ENDBRANCH   1   2
BRANCH   1  15
ATOM     15  C   UNL     1       8.945  -2.252  23.396  0.00  0.00    -0.039 A 
ATOM     16  C   UNL     1       8.942  -1.624  22.136  0.00  0.00    +0.011 A 
ATOM     17  C   UNL     1       9.462  -0.334  21.970  0.00  0.00    +0.084 A 
ATOM     18  C   UNL     1      10.001   0.338  23.072  0.00  0.00    +0.273 A 
ATOM     19  C   UNL     1      10.067  -0.289  24.318  0.00  0.00    +0.084 A 
ATOM     20  C   UNL     1       9.552  -1.579  24.472  0.00  0.00    +0.011 A 
BRANCH  18  21
ATOM     21  N   UNL     1      10.473   1.721  22.928  0.00  0.00    +0.080 N 
ATOM     22  O   UNL     1      10.382   2.250  21.810  0.00  0.00    +0.041 OA
ATOM     23  O   UNL     1      10.926   2.284  23.935  0.00  0.00    -0.576 OA
ENDBRANCH  18  21
ENDBRANCH   1  15
BRANCH   1  24
ATOM     24  C   UNL     1       7.319  -4.007  22.383  0.00  0.00    +0.087 C 
BRANCH  24  26
ATOM     25  C   UNL     1       6.058  -6.059  21.486  0.00  0.00    +0.086 C 
ATOM     26  C   UNL     1       7.269  -5.511  22.195  0.00  0.00    +0.131 C 
ATOM     27  O   UNL     1       8.130  -6.254  22.665  0.00  0.00    -0.298 OA
ENDBRANCH  24  26
ENDBRANCH   1  24
TORSDOF 6
ENDMDL
MODEL 6
REMARK VINA RESULT:      -6.7      2.597      4.172
REMARK  Name = 
REMARK  7 active torsions:
REMARK  status: ('A' for Active; 'I' for Inactive)
REMARK    1  A    between atoms: C_1  and  C_2
REMARK    2  A    between atoms: C_2  and  C_4
REMARK    3  A    between atoms: C_4  and  C_5
REMARK    4  A    between atoms: C_5  and  C_6
REMARK    5  A    between atoms: C_5  and  C_15
REMARK    6  A    between atoms: C_9  and  N_12
REMARK    7  A    between atoms: C_16  and  O_17
REMARK                            x       y       z     vdW  Elec       q    Type
REMARK                         _______ _______ _______ _____ _____    ______ ____
ROOT
ATOM      1  C   UNL     1       7.106  -3.834  24.695  0.00  0.00    +0.067 C 
ENDROOT
BRANCH   1   2
ATOM      2  C   UNL     1       7.203  -2.486  23.978  0.00  0.00    +0.087 A 
ATOM      3  C   UNL     1       6.136  -1.490  24.299  0.00  0.00    +0.345 A 
ATOM      4  O   UNL     1       5.235  -1.738  25.092  0.00  0.00    -0.245 OA
ATOM      5  O   UNL     1       6.187  -0.251  23.682  0.00  0.00    -0.422 OA
ATOM      6  C   UNL     1       7.314   0.154  22.959  0.00  0.00    +0.143 A 
ATOM      7  C   UNL     1       8.338  -0.741  22.681  0.00  0.00    +0.059 A 
ATOM      8  C   UNL     1       9.459  -0.257  21.993  0.00  0.00    +0.015 A 
ATOM      9  C   UNL     1       9.545   1.090  21.623  0.00  0.00    +0.001 A 
ATOM     10  C   UNL     1       8.501   1.967  21.917  0.00  0.00    +0.004 A 
ATOM     11  C   UNL     1       7.373   1.496  22.581  0.00  0.00    +0.047 A 
ATOM     12  C   UNL     1       8.220  -2.120  23.167  0.00  0.00    +0.138 A 
BRANCH  12  13
ATOM     13  O   UNL     1       9.262  -2.937  22.776  0.00  0.00    -0.506 OA
ATOM     14  H   UNL     1       9.054  -3.417  21.961  0.00  0.00    +0.292 HD
ENDBRANCH  12  13
ENDBRANCH   1   2
BRANCH   1  15
ATOM     15  C   UNL     1       5.820  -4.614  24.392  0.00  0.00    -0.039 A 
ATOM     16  C   UNL     1       5.505  -4.936  23.058  0.00  0.00    +0.011 A 
ATOM     17  C   UNL     1       4.426  -5.775  22.753  0.00  0.00    +0.084 A 
ATOM     18  C   UNL     1       3.643  -6.295  23.789  0.00  0.00    +0.273 A 
ATOM     19  C   UNL     1       3.903  -5.942  25.115  0.00  0.00    +0.084 A 
ATOM     20  C   UNL     1       4.978  -5.098  25.408  0.00  0.00    +0.011 A 
BRANCH  18  21
ATOM     21  N   UNL     1       2.561  -7.241  23.487  0.00  0.00    +0.080 N 
ATOM     22  O   UNL     1       1.735  -6.916  22.622  0.00  0.00    +0.041 OA
ATOM     23  O   UNL     1       2.543  -8.314  24.107  0.00  0.00    -0.576 OA
ENDBRANCH  18  21
ENDBRANCH   1  15
BRANCH   1  24
ATOM     24  C   UNL     1       7.446  -3.694  26.198  0.00  0.00    +0.087 C 
BRANCH  24  26
ATOM     25  C   UNL     1       9.654  -5.006  26.101  0.00  0.00    +0.086 C 
ATOM     26  C   UNL     1       8.286  -4.848  26.712  0.00  0.00    +0.131 C 
ATOM     27  O   UNL     1       7.847  -5.661  27.525  0.00  0.00    -0.298 OA
ENDBRANCH  24  26
ENDBRANCH   1  24
TORSDOF 6
ENDMDL
MODEL 7
REMARK VINA RESULT:      -6.6      2.681      3.815
REMARK  Name = 
REMARK  7 active torsions:
REMARK  status: ('A' for Active; 'I' for Inactive)
REMARK    1  A    between atoms: C_1  and  C_2
REMARK    2  A    between atoms: C_2  and  C_4
REMARK    3  A    between atoms: C_4  and  C_5
REMARK    4  A    between atoms: C_5  and  C_6
REMARK    5  A    between atoms: C_5  and  C_15
REMARK    6  A    between atoms: C_9  and  N_12
REMARK    7  A    between atoms: C_16  and  O_17
REMARK                            x       y       z     vdW  Elec       q    Type
REMARK                         _______ _______ _______ _____ _____    ______ ____
ROOT
ATOM      1  C   UNL     1       8.117  -3.027  24.150  0.00  0.00    +0.067 C 
ENDROOT
BRANCH   1   2
ATOM      2  C   UNL     1       8.085  -1.586  23.634  0.00  0.00    +0.087 A 
ATOM      3  C   UNL     1       8.847  -1.319  22.377  0.00  0.00    +0.345 A 
ATOM      4  O   UNL     1       9.463  -2.203  21.792  0.00  0.00    -0.245 OA
ATOM      5  O   UNL     1       8.839  -0.032  21.865  0.00  0.00    -0.422 OA
ATOM      6  C   UNL     1       7.969   0.942  22.365  0.00  0.00    +0.143 A 
ATOM      7  C   UNL     1       7.219   0.704  23.509  0.00  0.00    +0.059 A 
ATOM      8  C   UNL     1       6.333   1.706  23.928  0.00  0.00    +0.015 A 
ATOM      9  C   UNL     1       6.197   2.893  23.199  0.00  0.00    +0.001 A 
ATOM     10  C   UNL     1       6.961   3.103  22.052  0.00  0.00    +0.004 A 
ATOM     11  C   UNL     1       7.861   2.127  21.636  0.00  0.00    +0.047 A 
ATOM     12  C   UNL     1       7.352  -0.593  24.181  0.00  0.00    +0.138 A 
BRANCH  12  13
ATOM     13  O   UNL     1       6.612  -0.693  25.343  0.00  0.00    -0.506 OA
ATOM     14  H   UNL     1       5.916  -0.020  25.384  0.00  0.00    +0.292 HD
ENDBRANCH  12  13
ENDBRANCH   1   2
BRANCH   1  15
ATOM     15  C   UNL     1       6.842  -3.827  23.856  0.00  0.00    -0.039 A 
ATOM     16  C   UNL     1       6.891  -4.889  22.932  0.00  0.00    +0.011 A 
ATOM     17  C   UNL     1       5.792  -5.739  22.750  0.00  0.00    +0.084 A 
ATOM     18  C   UNL     1       4.625  -5.525  23.491  0.00  0.00    +0.273 A 
ATOM     19  C   UNL     1       4.536  -4.442  24.370  0.00  0.00    +0.084 A 
ATOM     20  C   UNL     1       5.635  -3.596  24.539  0.00  0.00    +0.011 A 
BRANCH  18  21
ATOM     21  N   UNL     1       3.498  -6.457  23.370  0.00  0.00    +0.080 N 
ATOM     22  O   UNL     1       3.530  -7.494  24.049  0.00  0.00    +0.041 OA
ATOM     23  O   UNL     1       2.574  -6.148  22.604  0.00  0.00    -0.576 OA
ENDBRANCH  18  21
ENDBRANCH   1  15
BRANCH   1  24
ATOM     24  C   UNL     1       8.599  -3.083  25.620  0.00  0.00    +0.087 C 
BRANCH  24  26
ATOM     25  C   UNL     1       7.897  -5.172  26.943  0.00  0.00    +0.086 C 
ATOM     26  C   UNL     1       8.921  -4.495  26.070  0.00  0.00    +0.131 C 
ATOM     27  O   UNL     1       9.996  -5.033  25.804  0.00  0.00    -0.298 OA
ENDBRANCH  24  26
ENDBRANCH   1  24
TORSDOF 6
ENDMDL
MODEL 8
REMARK VINA RESULT:      -6.5      4.250      6.713
REMARK  Name = 
REMARK  7 active torsions:
REMARK  status: ('A' for Active; 'I' for Inactive)
REMARK    1  A    between atoms: C_1  and  C_2
REMARK    2  A    between atoms: C_2  and  C_4
REMARK    3  A    between atoms: C_4  and  C_5
REMARK    4  A    between atoms: C_5  and  C_6
REMARK    5  A    between atoms: C_5  and  C_15
REMARK    6  A    between atoms: C_9  and  N_12
REMARK    7  A    between atoms: C_16  and  O_17
REMARK                            x       y       z     vdW  Elec       q    Type
REMARK                         _______ _______ _______ _____ _____    ______ ____
ROOT
ATOM      1  C   UNL     1       6.995   2.682  24.084  0.00  0.00    +0.067 C 
ENDROOT
BRANCH   1   2
ATOM      2  C   UNL     1       7.966   3.834  24.353  0.00  0.00    +0.087 A 
ATOM      3  C   UNL     1       7.654   4.697  25.532  0.00  0.00    +0.345 A 
ATOM      4  O   UNL     1       6.677   4.493  26.245  0.00  0.00    -0.245 OA
ATOM      5  O   UNL     1       8.509   5.747  25.822  0.00  0.00    -0.422 OA
ATOM      6  C   UNL     1       9.747   5.872  25.184  0.00  0.00    +0.143 A 
ATOM      7  C   UNL     1      10.077   5.056  24.110  0.00  0.00    +0.059 A 
ATOM      8  C   UNL     1      11.353   5.203  23.547  0.00  0.00    +0.015 A 
ATOM      9  C   UNL     1      12.264   6.127  24.071  0.00  0.00    +0.001 A 
ATOM     10  C   UNL     1      11.905   6.932  25.151  0.00  0.00    +0.004 A 
ATOM     11  C   UNL     1      10.635   6.813  25.706  0.00  0.00    +0.047 A 
ATOM     12  C   UNL     1       9.105   4.054  23.662  0.00  0.00    +0.138 A 
BRANCH  12  13
ATOM     13  O   UNL     1       9.512   3.346  22.548  0.00  0.00    -0.506 OA
ATOM     14  H   UNL     1      10.308   3.729  22.152  0.00  0.00    +0.292 HD
ENDBRANCH  12  13
ENDBRANCH   1   2
BRANCH   1  15
ATOM     15  C   UNL     1       7.654   1.296  24.076  0.00  0.00    -0.039 A 
ATOM     16  C   UNL     1       7.462   0.445  22.970  0.00  0.00    +0.011 A 
ATOM     17  C   UNL     1       8.167  -0.759  22.855  0.00  0.00    +0.084 A 
ATOM     18  C   UNL     1       9.070  -1.128  23.857  0.00  0.00    +0.273 A 
ATOM     19  C   UNL     1       9.233  -0.327  24.990  0.00  0.00    +0.084 A 
ATOM     20  C   UNL     1       8.519   0.870  25.099  0.00  0.00    +0.011 A 
BRANCH  18  21
ATOM     21  N   UNL     1       9.875  -2.347  23.707  0.00  0.00    +0.080 N 
ATOM     22  O   UNL     1       9.595  -3.316  24.427  0.00  0.00    +0.041 OA
ATOM     23  O   UNL     1      10.781  -2.339  22.862  0.00  0.00    -0.576 OA
ENDBRANCH  18  21
ENDBRANCH   1  15
BRANCH   1  24
ATOM     24  C   UNL     1       6.094   2.983  22.862  0.00  0.00    +0.087 C 
BRANCH  24  26
ATOM     25  C   UNL     1       3.899   3.050  24.198  0.00  0.00    +0.086 C 
ATOM     26  C   UNL     1       4.837   3.741  23.243  0.00  0.00    +0.131 C 
ATOM     27  O   UNL     1       4.556   4.828  22.739  0.00  0.00    -0.298 OA
ENDBRANCH  24  26
ENDBRANCH   1  24
TORSDOF 6
ENDMDL
MODEL 9
REMARK VINA RESULT:      -6.3      2.604      4.536
REMARK  Name = 
REMARK  7 active torsions:
REMARK  status: ('A' for Active; 'I' for Inactive)
REMARK    1  A    between atoms: C_1  and  C_2
REMARK    2  A    between atoms: C_2  and  C_4
REMARK    3  A    between atoms: C_4  and  C_5
REMARK    4  A    between atoms: C_5  and  C_6
REMARK    5  A    between atoms: C_5  and  C_15
REMARK    6  A    between atoms: C_9  and  N_12
REMARK    7  A    between atoms: C_16  and  O_17
REMARK                            x       y       z     vdW  Elec       q    Type
REMARK                         _______ _______ _______ _____ _____    ______ ____
ROOT
ATOM      1  C   UNL     1       8.521  -1.634  22.955  0.00  0.00    +0.067 C 
ENDROOT
BRANCH   1   2
ATOM      2  C   UNL     1       8.005  -0.193  22.933  0.00  0.00    +0.087 A 
ATOM      3  C   UNL     1       8.596   0.702  21.893  0.00  0.00    +0.345 A 
ATOM      4  O   UNL     1       9.445   0.306  21.101  0.00  0.00    -0.245 OA
ATOM      5  O   UNL     1       8.153   2.013  21.826  0.00  0.00    -0.422 OA
ATOM      6  C   UNL     1       7.032   2.437  22.547  0.00  0.00    +0.143 A 
ATOM      7  C   UNL     1       6.440   1.609  23.491  0.00  0.00    +0.059 A 
ATOM      8  C   UNL     1       5.291   2.079  24.142  0.00  0.00    +0.015 A 
ATOM      9  C   UNL     1       4.753   3.333  23.829  0.00  0.00    +0.001 A 
ATOM     10  C   UNL     1       5.368   4.142  22.874  0.00  0.00    +0.004 A 
ATOM     11  C   UNL     1       6.521   3.698  22.235  0.00  0.00    +0.047 A 
ATOM     12  C   UNL     1       7.009   0.276  23.714  0.00  0.00    +0.138 A 
BRANCH  12  13
ATOM     13  O   UNL     1       6.383  -0.433  24.720  0.00  0.00    -0.506 OA
ATOM     14  H   UNL     1       6.625  -1.370  24.702  0.00  0.00    +0.292 HD
ENDBRANCH  12  13
ENDBRANCH   1   2
BRANCH   1  15
ATOM     15  C   UNL     1       7.428  -2.688  23.176  0.00  0.00    -0.039 A 
ATOM     16  C   UNL     1       6.355  -2.772  22.267  0.00  0.00    +0.011 A 
ATOM     17  C   UNL     1       5.423  -3.814  22.345  0.00  0.00    +0.084 A 
ATOM     18  C   UNL     1       5.554  -4.783  23.345  0.00  0.00    +0.273 A 
ATOM     19  C   UNL     1       6.577  -4.686  24.292  0.00  0.00    +0.084 A 
ATOM     20  C   UNL     1       7.498  -3.638  24.210  0.00  0.00    +0.011 A 
BRANCH  18  21
ATOM     21  N   UNL     1       4.632  -5.924  23.386  0.00  0.00    +0.080 N 
ATOM     22  O   UNL     1       4.866  -6.827  24.203  0.00  0.00    +0.041 OA
ATOM     23  O   UNL     1       3.666  -5.914  22.610  0.00  0.00    -0.576 OA
ENDBRANCH  18  21
ENDBRANCH   1  15
BRANCH   1  24
ATOM     24  C   UNL     1       9.756  -1.772  23.878  0.00  0.00    +0.087 C 
BRANCH  24  26
ATOM     25  C   UNL     1      10.696   0.409  24.862  0.00  0.00    +0.086 C 
ATOM     26  C   UNL     1       9.753  -0.757  25.005  0.00  0.00    +0.131 C 
ATOM     27  O   UNL     1       9.076  -0.916  26.021  0.00  0.00    -0.298 OA
ENDBRANCH  24  26
ENDBRANCH   1  24
TORSDOF 6
ENDMDL
