MODEL 1
REMARK VINA RESULT:      -6.5      0.000      0.000
REMARK  Name = 
REMARK  16 active torsions:
REMARK  status: ('A' for Active; 'I' for Inactive)
REMARK    1  A    between atoms: C_1  and  C_2
REMARK    2  A    between atoms: C_2  and  C_3
REMARK    3  A    between atoms: C_2  and  C_4
REMARK    4  A    between atoms: C_8  and  C_9
REMARK    5  A    between atoms: C_16  and  C_17
REMARK    6  A    between atoms: C_18  and  C_19
REMARK    7  A    between atoms: C_19  and  O_21
REMARK    8  A    between atoms: C_19  and  C_22
REMARK    9  A    between atoms: C_22  and  C_23
REMARK   10  A    between atoms: C_23  and  O_25
REMARK   11  A    between atoms: C_23  and  C_26
REMARK   12  A    between atoms: C_26  and  C_27
REMARK   13  A    between atoms: C_27  and  O_29
REMARK   14  A    between atoms: N_30  and  C_31
REMARK   15  A    between atoms: N_30  and  S_32
REMARK   16  A    between atoms: S_32  and  C_33
REMARK                            x       y       z     vdW  Elec       q    Type
REMARK                         _______ _______ _______ _____ _____    ______ ____
ROOT
ATOM      1  C   UNL     1       6.372  -4.614  23.015  0.00  0.00    +0.057 A 
ATOM      2  C   UNL     1       6.893  -3.472  23.646  0.00  0.00    +0.022 A 
ATOM      3  C   UNL     1       6.080  -2.905  24.648  0.00  0.00    +0.083 A 
ATOM      4  N   UNL     1       4.937  -3.509  25.062  0.00  0.00    -0.212 NA
ATOM      5  C   UNL     1       4.572  -4.619  24.433  0.00  0.00    +0.238 A 
ATOM      6  N   UNL     1       3.558  -5.385  25.032  0.00  0.00    -0.178 N 
ATOM      7  C   UNL     1       3.969  -6.715  25.500  0.00  0.00    +0.160 C 
ATOM      8  N   UNL     1       5.219  -5.195  23.420  0.00  0.00    -0.217 NA
ENDROOT
BRANCH   3   9
ATOM      9  C   UNL     1       6.348  -1.633  25.391  0.00  0.00    +0.001 A 
ATOM     10  C   UNL     1       7.191  -1.559  26.518  0.00  0.00    +0.013 A 
ATOM     11  C   UNL     1       7.454  -0.339  27.165  0.00  0.00    +0.039 A 
ATOM     12  C   UNL     1       6.899   0.832  26.674  0.00  0.00    +0.123 A 
ATOM     13  F   UNL     1       7.159   1.995  27.282  0.00  0.00    -0.205 F 
ATOM     14  C   UNL     1       6.090   0.810  25.551  0.00  0.00    +0.039 A 
ATOM     15  C   UNL     1       5.822  -0.408  24.917  0.00  0.00    +0.013 A 
ENDBRANCH   3   9
BRANCH   6  16
ATOM     16  S   UNL     1       2.059  -5.252  24.303  0.00  0.00    +0.045 S 
ATOM     17  O   UNL     1       2.222  -5.262  22.861  0.00  0.00    -0.155 OA
ATOM     18  O   UNL     1       1.356  -4.159  24.945  0.00  0.00    -0.155 OA
ATOM     19  C   UNL     1       1.195  -6.753  24.741  0.00  0.00    +0.219 C 
ENDBRANCH   6  16
BRANCH   1  21
ATOM     20  C   UNL     1       7.753  -6.622  22.420  0.00  0.00    +0.014 C 
ATOM     21  C   UNL     1       7.088  -5.351  21.887  0.00  0.00    +0.032 C 
ATOM     22  C   UNL     1       6.134  -5.736  20.741  0.00  0.00    +0.014 C 
ENDBRANCH   1  21
BRANCH   2  23
ATOM     23  C   UNL     1       8.248  -2.972  23.348  0.00  0.00    +0.010 C 
ATOM     24  C   UNL     1       8.455  -1.857  22.623  0.00  0.00    +0.005 C 
BRANCH  24  25
ATOM     25  C   UNL     1       9.803  -1.366  22.169  0.00  0.00    +0.140 C 
BRANCH  25  26
ATOM     26  O   UNL     1       9.583  -0.572  21.002  0.00  0.00    -0.388 OA
ATOM     27  H   UNL     1      10.412  -0.090  20.820  0.00  0.00    +0.210 HD
ENDBRANCH  25  26
BRANCH  25  28
ATOM     28  C   UNL     1      10.535  -0.504  23.215  0.00  0.00    +0.067 C 
BRANCH  28  29
ATOM     29  C   UNL     1       9.552   0.285  24.111  0.00  0.00    +0.128 C 
BRANCH  29  30
ATOM     30  O   UNL     1      10.189   0.657  25.339  0.00  0.00    -0.391 OA
ATOM     31  H   UNL     1       9.478   0.912  25.967  0.00  0.00    +0.210 HD
ENDBRANCH  29  30
BRANCH  29  32
ATOM     32  C   UNL     1       9.076   1.596  23.486  0.00  0.00    +0.151 C 
BRANCH  32  33
ATOM     33  C   UNL     1      10.203   2.397  22.897  0.00  0.00    +0.307 C 
ATOM     34  O   UNL     1      11.014   3.041  23.545  0.00  0.00    -0.251 OA
BRANCH  33  35
ATOM     35  O   UNL     1      10.253   2.324  21.546  0.00  0.00    -0.481 OA
ATOM     36  H   UNL     1      10.896   1.672  21.207  0.00  0.00    +0.295 HD
ENDBRANCH  33  35
ENDBRANCH  32  33
ENDBRANCH  29  32
ENDBRANCH  28  29
ENDBRANCH  25  28
ENDBRANCH  24  25
ENDBRANCH   2  23
TORSDOF 12
ENDMDL
MODEL 2
REMARK VINA RESULT:      -6.3      3.588      8.166
REMARK  Name = 
REMARK  16 active torsions:
REMARK  status: ('A' for Active; 'I' for Inactive)
REMARK    1  A    between atoms: C_1  and  C_2
REMARK    2  A    between atoms: C_2  and  C_3
REMARK    3  A    between atoms: C_2  and  C_4
REMARK    4  A    between atoms: C_8  and  C_9
REMARK    5  A    between atoms: C_16  and  C_17
REMARK    6  A    between atoms: C_18  and  C_19
REMARK    7  A    between atoms: C_19  and  O_21
REMARK    8  A    between atoms: C_19  and  C_22
REMARK    9  A    between atoms: C_22  and  C_23
REMARK   10  A    between atoms: C_23  and  O_25
REMARK   11  A    between atoms: C_23  and  C_26
REMARK   12  A    between atoms: C_26  and  C_27
REMARK   13  A    between atoms: C_27  and  O_29
REMARK   14  A    between atoms: N_30  and  C_31
REMARK   15  A    between atoms: N_30  and  S_32
REMARK   16  A    between atoms: S_32  and  C_33
REMARK                            x       y       z     vdW  Elec       q    Type
REMARK                         _______ _______ _______ _____ _____    ______ ____
ROOT
ATOM      1  C   UNL     1       6.037   0.115  25.295  0.00  0.00    +0.057 A 
ATOM      2  C   UNL     1       5.867  -1.247  24.994  0.00  0.00    +0.022 A 
ATOM      3  C   UNL     1       6.741  -1.770  24.020  0.00  0.00    +0.083 A 
ATOM      4  N   UNL     1       7.764  -1.034  23.514  0.00  0.00    -0.212 NA
ATOM      5  C   UNL     1       7.865   0.226  23.917  0.00  0.00    +0.238 A 
ATOM      6  N   UNL     1       9.063   0.895  23.616  0.00  0.00    -0.178 N 
ATOM      7  C   UNL     1       9.877   1.278  24.777  0.00  0.00    +0.160 C 
ATOM      8  N   UNL     1       7.046   0.846  24.767  0.00  0.00    -0.217 NA
ENDROOT
BRANCH   3   9
ATOM      9  C   UNL     1       6.699  -3.151  23.442  0.00  0.00    +0.001 A 
ATOM     10  C   UNL     1       5.878  -3.510  22.354  0.00  0.00    +0.013 A 
ATOM     11  C   UNL     1       5.897  -4.806  21.811  0.00  0.00    +0.039 A 
ATOM     12  C   UNL     1       6.759  -5.757  22.332  0.00  0.00    +0.123 A 
ATOM     13  F   UNL     1       6.785  -6.987  21.807  0.00  0.00    -0.205 F 
ATOM     14  C   UNL     1       7.605  -5.440  23.382  0.00  0.00    +0.039 A 
ATOM     15  C   UNL     1       7.575  -4.151  23.926  0.00  0.00    +0.013 A 
ENDBRANCH   3   9
BRANCH   6  16
ATOM     16  S   UNL     1       8.955   1.987  22.354  0.00  0.00    +0.045 S 
ATOM     17  O   UNL     1       7.832   1.635  21.506  0.00  0.00    -0.155 OA
ATOM     18  O   UNL     1      10.280   2.126  21.782  0.00  0.00    -0.155 OA
ATOM     19  C   UNL     1       8.558   3.549  23.125  0.00  0.00    +0.219 C 
ENDBRANCH   6  16
BRANCH   1  21
ATOM     20  C   UNL     1       5.984   1.230  27.541  0.00  0.00    +0.014 C 
ATOM     21  C   UNL     1       5.169   0.868  26.298  0.00  0.00    +0.032 C 
ATOM     22  C   UNL     1       4.574   2.159  25.704  0.00  0.00    +0.014 C 
ENDBRANCH   1  21
BRANCH   2  23
ATOM     23  C   UNL     1       4.907  -2.090  25.732  0.00  0.00    +0.010 C 
ATOM     24  C   UNL     1       5.209  -2.642  26.922  0.00  0.00    +0.005 C 
BRANCH  24  25
ATOM     25  C   UNL     1       4.334  -3.617  27.662  0.00  0.00    +0.140 C 
BRANCH  25  26
ATOM     26  O   UNL     1       3.192  -3.856  26.838  0.00  0.00    -0.388 OA
ATOM     27  H   UNL     1       3.516  -3.991  25.927  0.00  0.00    +0.210 HD
ENDBRANCH  25  26
BRANCH  25  28
ATOM     28  C   UNL     1       5.016  -4.967  27.953  0.00  0.00    +0.067 C 
BRANCH  28  29
ATOM     29  C   UNL     1       5.675  -5.572  26.692  0.00  0.00    +0.128 C 
BRANCH  29  30
ATOM     30  O   UNL     1       6.997  -6.033  26.995  0.00  0.00    -0.391 OA
ATOM     31  H   UNL     1       7.064  -6.097  27.972  0.00  0.00    +0.210 HD
ENDBRANCH  29  30
BRANCH  29  32
ATOM     32  C   UNL     1       4.934  -6.791  26.143  0.00  0.00    +0.151 C 
BRANCH  32  33
ATOM     33  C   UNL     1       4.272  -6.515  24.822  0.00  0.00    +0.307 C 
ATOM     34  O   UNL     1       3.795  -5.439  24.492  0.00  0.00    -0.251 OA
BRANCH  33  35
ATOM     35  O   UNL     1       4.267  -7.590  23.999  0.00  0.00    -0.481 OA
ATOM     36  H   UNL     1       3.778  -7.451  23.166  0.00  0.00    +0.295 HD
ENDBRANCH  33  35
ENDBRANCH  32  33
ENDBRANCH  29  32
ENDBRANCH  28  29
ENDBRANCH  25  28
ENDBRANCH  24  25
ENDBRANCH   2  23
TORSDOF 12
ENDMDL
MODEL 3
REMARK VINA RESULT:      -6.3      3.604      8.395
REMARK  Name = 
REMARK  16 active torsions:
REMARK  status: ('A' for Active; 'I' for Inactive)
REMARK    1  A    between atoms: C_1  and  C_2
REMARK    2  A    between atoms: C_2  and  C_3
REMARK    3  A    between atoms: C_2  and  C_4
REMARK    4  A    between atoms: C_8  and  C_9
REMARK    5  A    between atoms: C_16  and  C_17
REMARK    6  A    between atoms: C_18  and  C_19
REMARK    7  A    between atoms: C_19  and  O_21
REMARK    8  A    between atoms: C_19  and  C_22
REMARK    9  A    between atoms: C_22  and  C_23
REMARK   10  A    between atoms: C_23  and  O_25
REMARK   11  A    between atoms: C_23  and  C_26
REMARK   12  A    between atoms: C_26  and  C_27
REMARK   13  A    between atoms: C_27  and  O_29
REMARK   14  A    between atoms: N_30  and  C_31
REMARK   15  A    between atoms: N_30  and  S_32
REMARK   16  A    between atoms: S_32  and  C_33
REMARK                            x       y       z     vdW  Elec       q    Type
REMARK                         _______ _______ _______ _____ _____    ______ ____
ROOT
ATOM      1  C   UNL     1       7.186  -0.798  25.965  0.00  0.00    +0.057 A 
ATOM      2  C   UNL     1       6.889  -2.036  25.370  0.00  0.00    +0.022 A 
ATOM      3  C   UNL     1       7.440  -2.245  24.089  0.00  0.00    +0.083 A 
ATOM      4  N   UNL     1       8.307  -1.360  23.536  0.00  0.00    -0.212 NA
ATOM      5  C   UNL     1       8.561  -0.249  24.216  0.00  0.00    +0.238 A 
ATOM      6  N   UNL     1       9.652   0.525  23.785  0.00  0.00    -0.178 N 
ATOM      7  C   UNL     1      10.769   0.618  24.733  0.00  0.00    +0.160 C 
ATOM      8  N   UNL     1       8.033   0.088  25.393  0.00  0.00    -0.217 NA
ENDROOT
BRANCH   3   9
ATOM      9  C   UNL     1       7.189  -3.423  23.200  0.00  0.00    +0.001 A 
ATOM     10  C   UNL     1       7.789  -4.682  23.398  0.00  0.00    +0.013 A 
ATOM     11  C   UNL     1       7.496  -5.779  22.567  0.00  0.00    +0.039 A 
ATOM     12  C   UNL     1       6.575  -5.637  21.541  0.00  0.00    +0.123 A 
ATOM     13  F   UNL     1       6.288  -6.683  20.759  0.00  0.00    -0.205 F 
ATOM     14  C   UNL     1       5.939  -4.425  21.330  0.00  0.00    +0.039 A 
ATOM     15  C   UNL     1       6.242  -3.335  22.153  0.00  0.00    +0.013 A 
ENDBRANCH   3   9
BRANCH   6  16
ATOM     16  S   UNL     1       9.237   1.908  22.942  0.00  0.00    +0.045 S 
ATOM     17  O   UNL     1       7.827   1.862  22.604  0.00  0.00    -0.155 OA
ATOM     18  O   UNL     1      10.227   2.098  21.899  0.00  0.00    -0.155 OA
ATOM     19  C   UNL     1       9.451   3.244  24.108  0.00  0.00    +0.219 C 
ENDBRANCH   6  16
BRANCH   1  21
ATOM     20  C   UNL     1       7.601   0.644  27.975  0.00  0.00    +0.014 C 
ATOM     21  C   UNL     1       6.658  -0.375  27.332  0.00  0.00    +0.032 C 
ATOM     22  C   UNL     1       5.248   0.240  27.251  0.00  0.00    +0.014 C 
ENDBRANCH   1  21
BRANCH   2  23
ATOM     23  C   UNL     1       6.143  -3.084  26.092  0.00  0.00    +0.010 C 
ATOM     24  C   UNL     1       6.764  -4.025  26.827  0.00  0.00    +0.005 C 
BRANCH  24  25
ATOM     25  C   UNL     1       6.078  -5.197  27.476  0.00  0.00    +0.140 C 
BRANCH  25  26
ATOM     26  O   UNL     1       5.987  -4.902  28.871  0.00  0.00    -0.388 OA
ATOM     27  H   UNL     1       6.273  -3.977  28.990  0.00  0.00    +0.210 HD
ENDBRANCH  25  26
BRANCH  25  28
ATOM     28  C   UNL     1       4.659  -5.462  26.939  0.00  0.00    +0.067 C 
BRANCH  28  29
ATOM     29  C   UNL     1       4.592  -6.741  26.075  0.00  0.00    +0.128 C 
BRANCH  29  30
ATOM     30  O   UNL     1       3.420  -7.499  26.399  0.00  0.00    -0.391 OA
ATOM     31  H   UNL     1       3.053  -7.839  25.553  0.00  0.00    +0.210 HD
ENDBRANCH  29  30
BRANCH  29  32
ATOM     32  C   UNL     1       4.492  -6.459  24.575  0.00  0.00    +0.151 C 
BRANCH  32  33
ATOM     33  C   UNL     1       3.138  -6.796  24.014  0.00  0.00    +0.307 C 
ATOM     34  O   UNL     1       2.237  -5.990  23.838  0.00  0.00    -0.251 OA
BRANCH  33  35
ATOM     35  O   UNL     1       3.011  -8.104  23.694  0.00  0.00    -0.481 OA
ATOM     36  H   UNL     1       3.333  -8.716  24.383  0.00  0.00    +0.295 HD
ENDBRANCH  33  35
ENDBRANCH  32  33
ENDBRANCH  29  32
ENDBRANCH  28  29
ENDBRANCH  25  28
ENDBRANCH  24  25
ENDBRANCH   2  23
TORSDOF 12
ENDMDL
MODEL 4
REMARK VINA RESULT:      -6.2      3.117      5.071
REMARK  Name = 
REMARK  16 active torsions:
REMARK  status: ('A' for Active; 'I' for Inactive)
REMARK    1  A    between atoms: C_1  and  C_2
REMARK    2  A    between atoms: C_2  and  C_3
REMARK    3  A    between atoms: C_2  and  C_4
REMARK    4  A    between atoms: C_8  and  C_9
REMARK    5  A    between atoms: C_16  and  C_17
REMARK    6  A    between atoms: C_18  and  C_19
REMARK    7  A    between atoms: C_19  and  O_21
REMARK    8  A    between atoms: C_19  and  C_22
REMARK    9  A    between atoms: C_22  and  C_23
REMARK   10  A    between atoms: C_23  and  O_25
REMARK   11  A    between atoms: C_23  and  C_26
REMARK   12  A    between atoms: C_26  and  C_27
REMARK   13  A    between atoms: C_27  and  O_29
REMARK   14  A    between atoms: N_30  and  C_31
REMARK   15  A    between atoms: N_30  and  S_32
REMARK   16  A    between atoms: S_32  and  C_33
REMARK                            x       y       z     vdW  Elec       q    Type
REMARK                         _______ _______ _______ _____ _____    ______ ____
ROOT
ATOM      1  C   UNL     1       6.840  -1.316  26.296  0.00  0.00    +0.057 A 
ATOM      2  C   UNL     1       6.986  -1.849  25.004  0.00  0.00    +0.022 A 
ATOM      3  C   UNL     1       6.211  -2.994  24.726  0.00  0.00    +0.083 A 
ATOM      4  N   UNL     1       5.289  -3.459  25.607  0.00  0.00    -0.212 NA
ATOM      5  C   UNL     1       5.196  -2.838  26.777  0.00  0.00    +0.238 A 
ATOM      6  N   UNL     1       4.072  -3.135  27.566  0.00  0.00    -0.178 N 
ATOM      7  C   UNL     1       3.144  -2.018  27.782  0.00  0.00    +0.160 C 
ATOM      8  N   UNL     1       5.934  -1.802  27.175  0.00  0.00    -0.217 NA
ENDROOT
BRANCH   3   9
ATOM      9  C   UNL     1       6.262  -3.814  23.475  0.00  0.00    +0.001 A 
ATOM     10  C   UNL     1       6.732  -5.142  23.439  0.00  0.00    +0.013 A 
ATOM     11  C   UNL     1       6.724  -5.897  22.253  0.00  0.00    +0.039 A 
ATOM     12  C   UNL     1       6.219  -5.341  21.089  0.00  0.00    +0.123 A 
ATOM     13  F   UNL     1       6.200  -6.063  19.963  0.00  0.00    -0.205 F 
ATOM     14  C   UNL     1       5.718  -4.050  21.085  0.00  0.00    +0.039 A 
ATOM     15  C   UNL     1       5.738  -3.300  22.266  0.00  0.00    +0.013 A 
ENDBRANCH   3   9
BRANCH   6  16
ATOM     16  S   UNL     1       4.377  -4.147  28.862  0.00  0.00    +0.045 S 
ATOM     17  O   UNL     1       4.144  -3.428  30.101  0.00  0.00    -0.155 OA
ATOM     18  O   UNL     1       5.656  -4.787  28.625  0.00  0.00    -0.155 OA
ATOM     19  C   UNL     1       3.131  -5.423  28.756  0.00  0.00    +0.219 C 
ENDBRANCH   6  16
BRANCH   1  21
ATOM     20  C   UNL     1       6.855   0.587  27.932  0.00  0.00    +0.014 C 
ATOM     21  C   UNL     1       7.615  -0.099  26.795  0.00  0.00    +0.032 C 
ATOM     22  C   UNL     1       9.024  -0.468  27.294  0.00  0.00    +0.014 C 
ENDBRANCH   1  21
BRANCH   2  23
ATOM     23  C   UNL     1       7.813  -1.184  23.980  0.00  0.00    +0.010 C 
ATOM     24  C   UNL     1       9.079  -1.565  23.727  0.00  0.00    +0.005 C 
BRANCH  24  25
ATOM     25  C   UNL     1      10.021  -0.849  22.796  0.00  0.00    +0.140 C 
BRANCH  25  26
ATOM     26  O   UNL     1      10.684  -1.854  22.026  0.00  0.00    -0.388 OA
ATOM     27  H   UNL     1      10.221  -1.913  21.169  0.00  0.00    +0.210 HD
ENDBRANCH  25  26
BRANCH  25  28
ATOM     28  C   UNL     1       9.319   0.123  21.829  0.00  0.00    +0.067 C 
BRANCH  28  29
ATOM     29  C   UNL     1       9.911   1.548  21.903  0.00  0.00    +0.128 C 
BRANCH  29  30
ATOM     30  O   UNL     1       8.907   2.521  21.586  0.00  0.00    -0.391 OA
ATOM     31  H   UNL     1       8.238   2.489  22.304  0.00  0.00    +0.210 HD
ENDBRANCH  29  30
BRANCH  29  32
ATOM     32  C   UNL     1      10.419   1.926  23.295  0.00  0.00    +0.151 C 
BRANCH  32  33
ATOM     33  C   UNL     1       9.690   3.106  23.873  0.00  0.00    +0.307 C 
ATOM     34  O   UNL     1       8.761   3.033  24.663  0.00  0.00    -0.251 OA
BRANCH  33  35
ATOM     35  O   UNL     1      10.181   4.292  23.445  0.00  0.00    -0.481 OA
ATOM     36  H   UNL     1       9.916   5.055  23.993  0.00  0.00    +0.295 HD
ENDBRANCH  33  35
ENDBRANCH  32  33
ENDBRANCH  29  32
ENDBRANCH  28  29
ENDBRANCH  25  28
ENDBRANCH  24  25
ENDBRANCH   2  23
TORSDOF 12
ENDMDL
MODEL 5
REMARK VINA RESULT:      -6.2      3.973      8.308
REMARK  Name = 
REMARK  16 active torsions:
REMARK  status: ('A' for Active; 'I' for Inactive)
REMARK    1  A    between atoms: C_1  and  C_2
REMARK    2  A    between atoms: C_2  and  C_3
REMARK    3  A    between atoms: C_2  and  C_4
REMARK    4  A    between atoms: C_8  and  C_9
REMARK    5  A    between atoms: C_16  and  C_17
REMARK    6  A    between atoms: C_18  and  C_19
REMARK    7  A    between atoms: C_19  and  O_21
REMARK    8  A    between atoms: C_19  and  C_22
REMARK    9  A    between atoms: C_22  and  C_23
REMARK   10  A    between atoms: C_23  and  O_25
REMARK   11  A    between atoms: C_23  and  C_26
REMARK   12  A    between atoms: C_26  and  C_27
REMARK   13  A    between atoms: C_27  and  O_29
REMARK   14  A    between atoms: N_30  and  C_31
REMARK   15  A    between atoms: N_30  and  S_32
REMARK   16  A    between atoms: S_32  and  C_33
REMARK                            x       y       z     vdW  Elec       q    Type
REMARK                         _______ _______ _______ _____ _____    ______ ____
ROOT
ATOM      1  C   UNL     1       7.118  -0.552  25.897  0.00  0.00    +0.057 A 
ATOM      2  C   UNL     1       6.798  -1.796  25.327  0.00  0.00    +0.022 A 
ATOM      3  C   UNL     1       7.379  -2.059  24.070  0.00  0.00    +0.083 A 
ATOM      4  N   UNL     1       8.294  -1.219  23.521  0.00  0.00    -0.212 NA
ATOM      5  C   UNL     1       8.565  -0.099  24.179  0.00  0.00    +0.238 A 
ATOM      6  N   UNL     1       9.694   0.625  23.762  0.00  0.00    -0.178 N 
ATOM      7  C   UNL     1      10.785   0.707  24.742  0.00  0.00    +0.160 C 
ATOM      8  N   UNL     1       8.013   0.288  25.329  0.00  0.00    -0.217 NA
ENDROOT
BRANCH   3   9
ATOM      9  C   UNL     1       7.116  -3.253  23.205  0.00  0.00    +0.001 A 
ATOM     10  C   UNL     1       7.704  -4.514  23.428  0.00  0.00    +0.013 A 
ATOM     11  C   UNL     1       7.399  -5.624  22.620  0.00  0.00    +0.039 A 
ATOM     12  C   UNL     1       6.478  -5.493  21.593  0.00  0.00    +0.123 A 
ATOM     13  F   UNL     1       6.179  -6.552  20.833  0.00  0.00    -0.205 F 
ATOM     14  C   UNL     1       5.854  -4.280  21.358  0.00  0.00    +0.039 A 
ATOM     15  C   UNL     1       6.168  -3.176  22.158  0.00  0.00    +0.013 A 
ENDBRANCH   3   9
BRANCH   6  16
ATOM     16  S   UNL     1       9.354   1.997  22.869  0.00  0.00    +0.045 S 
ATOM     17  O   UNL     1       7.990   1.926  22.377  0.00  0.00    -0.155 OA
ATOM     18  O   UNL     1      10.450   2.199  21.942  0.00  0.00    -0.155 OA
ATOM     19  C   UNL     1       9.415   3.342  24.043  0.00  0.00    +0.219 C 
ENDBRANCH   6  16
BRANCH   1  21
ATOM     20  C   UNL     1       7.654   0.635  28.041  0.00  0.00    +0.014 C 
ATOM     21  C   UNL     1       6.564  -0.074  27.235  0.00  0.00    +0.032 C 
ATOM     22  C   UNL     1       5.372   0.887  27.065  0.00  0.00    +0.014 C 
ENDBRANCH   1  21
BRANCH   2  23
ATOM     23  C   UNL     1       5.994  -2.798  26.053  0.00  0.00    +0.010 C 
ATOM     24  C   UNL     1       4.668  -2.926  25.859  0.00  0.00    +0.005 C 
BRANCH  24  25
ATOM     25  C   UNL     1       3.767  -3.828  26.658  0.00  0.00    +0.140 C 
BRANCH  25  26
ATOM     26  O   UNL     1       2.429  -3.380  26.435  0.00  0.00    -0.388 OA
ATOM     27  H   UNL     1       2.327  -2.530  26.903  0.00  0.00    +0.210 HD
ENDBRANCH  25  26
BRANCH  25  28
ATOM     28  C   UNL     1       3.858  -5.312  26.255  0.00  0.00    +0.067 C 
BRANCH  28  29
ATOM     29  C   UNL     1       4.255  -6.217  27.443  0.00  0.00    +0.128 C 
BRANCH  29  30
ATOM     30  O   UNL     1       4.925  -7.392  26.972  0.00  0.00    -0.391 OA
ATOM     31  H   UNL     1       4.243  -8.091  26.866  0.00  0.00    +0.210 HD
ENDBRANCH  29  30
BRANCH  29  32
ATOM     32  C   UNL     1       5.231  -5.553  28.415  0.00  0.00    +0.151 C 
BRANCH  32  33
ATOM     33  C   UNL     1       6.481  -6.364  28.619  0.00  0.00    +0.307 C 
ATOM     34  O   UNL     1       6.583  -7.303  29.393  0.00  0.00    -0.251 OA
BRANCH  33  35
ATOM     35  O   UNL     1       7.506  -5.961  27.833  0.00  0.00    -0.481 OA
ATOM     36  H   UNL     1       8.372  -6.333  28.086  0.00  0.00    +0.295 HD
ENDBRANCH  33  35
ENDBRANCH  32  33
ENDBRANCH  29  32
ENDBRANCH  28  29
ENDBRANCH  25  28
ENDBRANCH  24  25
ENDBRANCH   2  23
TORSDOF 12
ENDMDL
MODEL 6
REMARK VINA RESULT:      -5.9      3.350      5.517
REMARK  Name = 
REMARK  16 active torsions:
REMARK  status: ('A' for Active; 'I' for Inactive)
REMARK    1  A    between atoms: C_1  and  C_2
REMARK    2  A    between atoms: C_2  and  C_3
REMARK    3  A    between atoms: C_2  and  C_4
REMARK    4  A    between atoms: C_8  and  C_9
REMARK    5  A    between atoms: C_16  and  C_17
REMARK    6  A    between atoms: C_18  and  C_19
REMARK    7  A    between atoms: C_19  and  O_21
REMARK    8  A    between atoms: C_19  and  C_22
REMARK    9  A    between atoms: C_22  and  C_23
REMARK   10  A    between atoms: C_23  and  O_25
REMARK   11  A    between atoms: C_23  and  C_26
REMARK   12  A    between atoms: C_26  and  C_27
REMARK   13  A    between atoms: C_27  and  O_29
REMARK   14  A    between atoms: N_30  and  C_31
REMARK   15  A    between atoms: N_30  and  S_32
REMARK   16  A    between atoms: S_32  and  C_33
REMARK                            x       y       z     vdW  Elec       q    Type
REMARK                         _______ _______ _______ _____ _____    ______ ____
ROOT
ATOM      1  C   UNL     1       5.484  -1.072  25.932  0.00  0.00    +0.057 A 
ATOM      2  C   UNL     1       6.181  -0.131  25.155  0.00  0.00    +0.022 A 
ATOM      3  C   UNL     1       7.314  -0.620  24.475  0.00  0.00    +0.083 A 
ATOM      4  N   UNL     1       7.622  -1.942  24.467  0.00  0.00    -0.212 NA
ATOM      5  C   UNL     1       6.857  -2.750  25.189  0.00  0.00    +0.238 A 
ATOM      6  N   UNL     1       7.001  -4.130  24.966  0.00  0.00    -0.178 N 
ATOM      7  C   UNL     1       5.824  -4.800  24.397  0.00  0.00    +0.160 C 
ATOM      8  N   UNL     1       5.815  -2.384  25.936  0.00  0.00    -0.217 NA
ENDROOT
BRANCH   3   9
ATOM      9  C   UNL     1       8.285   0.192  23.675  0.00  0.00    +0.001 A 
ATOM     10  C   UNL     1       8.076   0.540  22.326  0.00  0.00    +0.013 A 
ATOM     11  C   UNL     1       8.990   1.342  21.619  0.00  0.00    +0.039 A 
ATOM     12  C   UNL     1      10.116   1.830  22.263  0.00  0.00    +0.123 A 
ATOM     13  F   UNL     1      10.979   2.601  21.594  0.00  0.00    -0.205 F 
ATOM     14  C   UNL     1      10.346   1.537  23.597  0.00  0.00    +0.039 A 
ATOM     15  C   UNL     1       9.439   0.731  24.292  0.00  0.00    +0.013 A 
ENDBRANCH   3   9
BRANCH   6  16
ATOM     16  S   UNL     1       7.857  -4.944  26.149  0.00  0.00    +0.045 S 
ATOM     17  O   UNL     1       7.059  -6.050  26.646  0.00  0.00    -0.155 OA
ATOM     18  O   UNL     1       8.378  -3.953  27.071  0.00  0.00    -0.155 OA
ATOM     19  C   UNL     1       9.261  -5.653  25.302  0.00  0.00    +0.219 C 
ENDBRANCH   6  16
BRANCH   1  21
ATOM     20  C   UNL     1       3.290  -1.917  26.806  0.00  0.00    +0.014 C 
ATOM     21  C   UNL     1       4.252  -0.729  26.764  0.00  0.00    +0.032 C 
ATOM     22  C   UNL     1       4.613  -0.333  28.208  0.00  0.00    +0.014 C 
ENDBRANCH   1  21
BRANCH   2  23
ATOM     23  C   UNL     1       5.688   1.249  24.984  0.00  0.00    +0.010 C 
ATOM     24  C   UNL     1       6.282   2.299  25.581  0.00  0.00    +0.005 C 
BRANCH  24  25
ATOM     25  C   UNL     1       5.755   3.709  25.560  0.00  0.00    +0.140 C 
BRANCH  25  26
ATOM     26  O   UNL     1       6.165   4.322  26.784  0.00  0.00    -0.388 OA
ATOM     27  H   UNL     1       5.857   3.749  27.511  0.00  0.00    +0.210 HD
ENDBRANCH  25  26
BRANCH  25  28
ATOM     28  C   UNL     1       6.291   4.554  24.388  0.00  0.00    +0.067 C 
BRANCH  28  29
ATOM     29  C   UNL     1       7.675   4.067  23.903  0.00  0.00    +0.128 C 
BRANCH  29  30
ATOM     30  O   UNL     1       7.852   4.377  22.515  0.00  0.00    -0.391 OA
ATOM     31  H   UNL     1       8.683   3.940  22.226  0.00  0.00    +0.210 HD
ENDBRANCH  29  30
BRANCH  29  32
ATOM     32  C   UNL     1       8.844   4.739  24.622  0.00  0.00    +0.151 C 
BRANCH  32  33
ATOM     33  C   UNL     1       9.546   5.752  23.761  0.00  0.00    +0.307 C 
ATOM     34  O   UNL     1       9.130   6.876  23.527  0.00  0.00    -0.251 OA
BRANCH  33  35
ATOM     35  O   UNL     1      10.723   5.300  23.268  0.00  0.00    -0.481 OA
ATOM     36  H   UNL     1      11.273   4.827  23.922  0.00  0.00    +0.295 HD
ENDBRANCH  33  35
ENDBRANCH  32  33
ENDBRANCH  29  32
ENDBRANCH  28  29
ENDBRANCH  25  28
ENDBRANCH  24  25
ENDBRANCH   2  23
TORSDOF 12
ENDMDL
MODEL 7
REMARK VINA RESULT:      -5.9      1.968      2.699
REMARK  Name = 
REMARK  16 active torsions:
REMARK  status: ('A' for Active; 'I' for Inactive)
REMARK    1  A    between atoms: C_1  and  C_2
REMARK    2  A    between atoms: C_2  and  C_3
REMARK    3  A    between atoms: C_2  and  C_4
REMARK    4  A    between atoms: C_8  and  C_9
REMARK    5  A    between atoms: C_16  and  C_17
REMARK    6  A    between atoms: C_18  and  C_19
REMARK    7  A    between atoms: C_19  and  O_21
REMARK    8  A    between atoms: C_19  and  C_22
REMARK    9  A    between atoms: C_22  and  C_23
REMARK   10  A    between atoms: C_23  and  O_25
REMARK   11  A    between atoms: C_23  and  C_26
REMARK   12  A    between atoms: C_26  and  C_27
REMARK   13  A    between atoms: C_27  and  O_29
REMARK   14  A    between atoms: N_30  and  C_31
REMARK   15  A    between atoms: N_30  and  S_32
REMARK   16  A    between atoms: S_32  and  C_33
REMARK                            x       y       z     vdW  Elec       q    Type
REMARK                         _______ _______ _______ _____ _____    ______ ____
ROOT
ATOM      1  C   UNL     1       7.470  -3.706  25.133  0.00  0.00    +0.057 A 
ATOM      2  C   UNL     1       7.556  -2.306  25.225  0.00  0.00    +0.022 A 
ATOM      3  C   UNL     1       6.582  -1.687  26.033  0.00  0.00    +0.083 A 
ATOM      4  N   UNL     1       5.709  -2.413  26.777  0.00  0.00    -0.212 NA
ATOM      5  C   UNL     1       5.758  -3.734  26.657  0.00  0.00    +0.238 A 
ATOM      6  N   UNL     1       5.059  -4.486  27.616  0.00  0.00    -0.178 N 
ATOM      7  C   UNL     1       5.895  -5.316  28.493  0.00  0.00    +0.160 C 
ATOM      8  N   UNL     1       6.580  -4.419  25.862  0.00  0.00    -0.217 NA
ENDROOT
BRANCH   3   9
ATOM      9  C   UNL     1       6.385  -0.213  26.210  0.00  0.00    +0.001 A 
ATOM     10  C   UNL     1       5.667   0.586  25.297  0.00  0.00    +0.013 A 
ATOM     11  C   UNL     1       5.465   1.960  25.518  0.00  0.00    +0.039 A 
ATOM     12  C   UNL     1       5.957   2.550  26.672  0.00  0.00    +0.123 A 
ATOM     13  F   UNL     1       5.755   3.854  26.887  0.00  0.00    -0.205 F 
ATOM     14  C   UNL     1       6.642   1.796  27.610  0.00  0.00    +0.039 A 
ATOM     15  C   UNL     1       6.849   0.432  27.380  0.00  0.00    +0.013 A 
ENDBRANCH   3   9
BRANCH   6  16
ATOM     16  S   UNL     1       3.618  -5.140  27.076  0.00  0.00    +0.045 S 
ATOM     17  O   UNL     1       3.175  -4.421  25.896  0.00  0.00    -0.155 OA
ATOM     18  O   UNL     1       2.739  -5.265  28.222  0.00  0.00    -0.155 OA
ATOM     19  C   UNL     1       4.028  -6.799  26.554  0.00  0.00    +0.219 C 
ENDBRANCH   6  16
BRANCH   1  21
ATOM     20  C   UNL     1       9.235  -5.489  25.174  0.00  0.00    +0.014 C 
ATOM     21  C   UNL     1       8.414  -4.552  24.285  0.00  0.00    +0.032 C 
ATOM     22  C   UNL     1       7.663  -5.396  23.238  0.00  0.00    +0.014 C 
ENDBRANCH   1  21
BRANCH   2  23
ATOM     23  C   UNL     1       8.662  -1.555  24.601  0.00  0.00    +0.010 C 
ATOM     24  C   UNL     1       8.653  -1.222  23.297  0.00  0.00    +0.005 C 
BRANCH  24  25
ATOM     25  C   UNL     1       9.801  -0.579  22.568  0.00  0.00    +0.140 C 
BRANCH  25  26
ATOM     26  O   UNL     1      10.545  -1.634  21.954  0.00  0.00    -0.388 OA
ATOM     27  H   UNL     1      10.477  -1.512  20.989  0.00  0.00    +0.210 HD
ENDBRANCH  25  26
BRANCH  25  28
ATOM     28  C   UNL     1       9.365   0.411  21.471  0.00  0.00    +0.067 C 
BRANCH  28  29
ATOM     29  C   UNL     1       9.767   1.866  21.805  0.00  0.00    +0.128 C 
BRANCH  29  30
ATOM     30  O   UNL     1       8.602   2.694  21.904  0.00  0.00    -0.391 OA
ATOM     31  H   UNL     1       8.908   3.596  22.143  0.00  0.00    +0.210 HD
ENDBRANCH  29  30
BRANCH  29  32
ATOM     32  C   UNL     1      10.482   2.007  23.148  0.00  0.00    +0.151 C 
BRANCH  32  33
ATOM     33  C   UNL     1       9.683   2.798  24.146  0.00  0.00    +0.307 C 
ATOM     34  O   UNL     1       9.594   4.017  24.160  0.00  0.00    -0.251 OA
BRANCH  33  35
ATOM     35  O   UNL     1       9.035   2.017  25.042  0.00  0.00    -0.481 OA
ATOM     36  H   UNL     1       8.197   1.642  24.710  0.00  0.00    +0.295 HD
ENDBRANCH  33  35
ENDBRANCH  32  33
ENDBRANCH  29  32
ENDBRANCH  28  29
ENDBRANCH  25  28
ENDBRANCH  24  25
ENDBRANCH   2  23
TORSDOF 12
ENDMDL
MODEL 8
REMARK VINA RESULT:      -5.9      2.592      4.591
REMARK  Name = 
REMARK  16 active torsions:
REMARK  status: ('A' for Active; 'I' for Inactive)
REMARK    1  A    between atoms: C_1  and  C_2
REMARK    2  A    between atoms: C_2  and  C_3
REMARK    3  A    between atoms: C_2  and  C_4
REMARK    4  A    between atoms: C_8  and  C_9
REMARK    5  A    between atoms: C_16  and  C_17
REMARK    6  A    between atoms: C_18  and  C_19
REMARK    7  A    between atoms: C_19  and  O_21
REMARK    8  A    between atoms: C_19  and  C_22
REMARK    9  A    between atoms: C_22  and  C_23
REMARK   10  A    between atoms: C_23  and  O_25
REMARK   11  A    between atoms: C_23  and  C_26
REMARK   12  A    between atoms: C_26  and  C_27
REMARK   13  A    between atoms: C_27  and  O_29
REMARK   14  A    between atoms: N_30  and  C_31
REMARK   15  A    between atoms: N_30  and  S_32
REMARK   16  A    between atoms: S_32  and  C_33
REMARK                            x       y       z     vdW  Elec       q    Type
REMARK                         _______ _______ _______ _____ _____    ______ ____
ROOT
ATOM      1  C   UNL     1       4.822  -2.494  26.921  0.00  0.00    +0.057 A 
ATOM      2  C   UNL     1       5.877  -1.936  26.180  0.00  0.00    +0.022 A 
ATOM      3  C   UNL     1       6.345  -2.715  25.103  0.00  0.00    +0.083 A 
ATOM      4  N   UNL     1       5.720  -3.862  24.732  0.00  0.00    -0.212 NA
ATOM      5  C   UNL     1       4.694  -4.264  25.471  0.00  0.00    +0.238 A 
ATOM      6  N   UNL     1       3.886  -5.281  24.936  0.00  0.00    -0.178 N 
ATOM      7  C   UNL     1       2.505  -4.889  24.627  0.00  0.00    +0.160 C 
ATOM      8  N   UNL     1       4.222  -3.651  26.556  0.00  0.00    -0.217 NA
ENDROOT
BRANCH   3   9
ATOM      9  C   UNL     1       7.522  -2.404  24.230  0.00  0.00    +0.001 A 
ATOM     10  C   UNL     1       7.423  -1.666  23.034  0.00  0.00    +0.013 A 
ATOM     11  C   UNL     1       8.557  -1.355  22.262  0.00  0.00    +0.039 A 
ATOM     12  C   UNL     1       9.811  -1.756  22.692  0.00  0.00    +0.123 A 
ATOM     13  F   UNL     1      10.891  -1.451  21.964  0.00  0.00    -0.205 F 
ATOM     14  C   UNL     1       9.958  -2.458  23.877  0.00  0.00    +0.039 A 
ATOM     15  C   UNL     1       8.826  -2.773  24.636  0.00  0.00    +0.013 A 
ENDBRANCH   3   9
BRANCH   6  16
ATOM     16  S   UNL     1       4.127  -6.792  25.611  0.00  0.00    +0.045 S 
ATOM     17  O   UNL     1       5.370  -6.792  26.361  0.00  0.00    -0.155 OA
ATOM     18  O   UNL     1       3.908  -7.776  24.569  0.00  0.00    -0.155 OA
ATOM     19  C   UNL     1       2.803  -6.988  26.795  0.00  0.00    +0.219 C 
ENDBRANCH   6  16
BRANCH   1  21
ATOM     20  C   UNL     1       2.921  -1.079  27.744  0.00  0.00    +0.014 C 
ATOM     21  C   UNL     1       4.201  -1.818  28.140  0.00  0.00    +0.032 C 
ATOM     22  C   UNL     1       3.867  -2.821  29.259  0.00  0.00    +0.014 C 
ENDBRANCH   1  21
BRANCH   2  23
ATOM     23  C   UNL     1       6.381  -0.577  26.452  0.00  0.00    +0.010 C 
ATOM     24  C   UNL     1       5.993   0.488  25.726  0.00  0.00    +0.005 C 
BRANCH  24  25
ATOM     25  C   UNL     1       6.566   1.873  25.860  0.00  0.00    +0.140 C 
BRANCH  25  26
ATOM     26  O   UNL     1       7.957   1.719  26.146  0.00  0.00    -0.388 OA
ATOM     27  H   UNL     1       8.042   1.610  27.112  0.00  0.00    +0.210 HD
ENDBRANCH  25  26
BRANCH  25  28
ATOM     28  C   UNL     1       6.422   2.730  24.588  0.00  0.00    +0.067 C 
BRANCH  28  29
ATOM     29  C   UNL     1       6.973   2.012  23.335  0.00  0.00    +0.128 C 
BRANCH  29  30
ATOM     30  O   UNL     1       5.929   1.817  22.373  0.00  0.00    -0.391 OA
ATOM     31  H   UNL     1       5.174   1.405  22.847  0.00  0.00    +0.210 HD
ENDBRANCH  29  30
BRANCH  29  32
ATOM     32  C   UNL     1       8.056   2.807  22.605  0.00  0.00    +0.151 C 
BRANCH  32  33
ATOM     33  C   UNL     1       9.419   2.191  22.749  0.00  0.00    +0.307 C 
ATOM     34  O   UNL     1       9.910   1.823  23.806  0.00  0.00    -0.251 OA
BRANCH  33  35
ATOM     35  O   UNL     1      10.066   2.057  21.568  0.00  0.00    -0.481 OA
ATOM     36  H   UNL     1      11.019   2.263  21.610  0.00  0.00    +0.295 HD
ENDBRANCH  33  35
ENDBRANCH  32  33
ENDBRANCH  29  32
ENDBRANCH  28  29
ENDBRANCH  25  28
ENDBRANCH  24  25
ENDBRANCH   2  23
TORSDOF 12
ENDMDL
MODEL 9
REMARK VINA RESULT:      -5.9      3.396      7.432
REMARK  Name = 
REMARK  16 active torsions:
REMARK  status: ('A' for Active; 'I' for Inactive)
REMARK    1  A    between atoms: C_1  and  C_2
REMARK    2  A    between atoms: C_2  and  C_3
REMARK    3  A    between atoms: C_2  and  C_4
REMARK    4  A    between atoms: C_8  and  C_9
REMARK    5  A    between atoms: C_16  and  C_17
REMARK    6  A    between atoms: C_18  and  C_19
REMARK    7  A    between atoms: C_19  and  O_21
REMARK    8  A    between atoms: C_19  and  C_22
REMARK    9  A    between atoms: C_22  and  C_23
REMARK   10  A    between atoms: C_23  and  O_25
REMARK   11  A    between atoms: C_23  and  C_26
REMARK   12  A    between atoms: C_26  and  C_27
REMARK   13  A    between atoms: C_27  and  O_29
REMARK   14  A    between atoms: N_30  and  C_31
REMARK   15  A    between atoms: N_30  and  S_32
REMARK   16  A    between atoms: S_32  and  C_33
REMARK                            x       y       z     vdW  Elec       q    Type
REMARK                         _______ _______ _______ _____ _____    ______ ____
ROOT
ATOM      1  C   UNL     1       8.065  -0.713  23.138  0.00  0.00    +0.057 A 
ATOM      2  C   UNL     1       7.449  -1.816  23.753  0.00  0.00    +0.022 A 
ATOM      3  C   UNL     1       6.577  -1.512  24.818  0.00  0.00    +0.083 A 
ATOM      4  N   UNL     1       6.256  -0.231  25.130  0.00  0.00    -0.212 NA
ATOM      5  C   UNL     1       6.855   0.733  24.441  0.00  0.00    +0.238 A 
ATOM      6  N   UNL     1       6.327   2.028  24.570  0.00  0.00    -0.178 N 
ATOM      7  C   UNL     1       5.739   2.590  23.347  0.00  0.00    +0.160 C 
ATOM      8  N   UNL     1       7.755   0.561  23.474  0.00  0.00    -0.217 NA
ENDROOT
BRANCH   3   9
ATOM      9  C   UNL     1       5.885  -2.501  25.705  0.00  0.00    +0.001 A 
ATOM     10  C   UNL     1       6.560  -3.289  26.658  0.00  0.00    +0.013 A 
ATOM     11  C   UNL     1       5.871  -4.177  27.504  0.00  0.00    +0.039 A 
ATOM     12  C   UNL     1       4.491  -4.266  27.427  0.00  0.00    +0.123 A 
ATOM     13  F   UNL     1       3.835  -5.101  28.240  0.00  0.00    -0.205 F 
ATOM     14  C   UNL     1       3.784  -3.488  26.526  0.00  0.00    +0.039 A 
ATOM     15  C   UNL     1       4.475  -2.614  25.680  0.00  0.00    +0.013 A 
ENDBRANCH   3   9
BRANCH   6  16
ATOM     16  S   UNL     1       7.222   3.055  25.539  0.00  0.00    +0.045 S 
ATOM     17  O   UNL     1       8.461   3.397  24.863  0.00  0.00    -0.155 OA
ATOM     18  O   UNL     1       7.257   2.480  26.870  0.00  0.00    -0.155 OA
ATOM     19  C   UNL     1       6.255   4.553  25.646  0.00  0.00    +0.219 C 
ENDBRANCH   6  16
BRANCH   1  21
ATOM     20  C   UNL     1       9.288   0.522  21.329  0.00  0.00    +0.014 C 
ATOM     21  C   UNL     1       9.061  -0.839  21.990  0.00  0.00    +0.032 C 
ATOM     22  C   UNL     1      10.421  -1.395  22.454  0.00  0.00    +0.014 C 
ENDBRANCH   1  21
BRANCH   2  23
ATOM     23  C   UNL     1       7.625  -3.188  23.240  0.00  0.00    +0.010 C 
ATOM     24  C   UNL     1       6.759  -3.742  22.370  0.00  0.00    +0.005 C 
BRANCH  24  25
ATOM     25  C   UNL     1       6.802  -5.174  21.912  0.00  0.00    +0.140 C 
BRANCH  25  26
ATOM     26  O   UNL     1       7.747  -5.847  22.747  0.00  0.00    -0.388 OA
ATOM     27  H   UNL     1       7.686  -6.799  22.542  0.00  0.00    +0.210 HD
ENDBRANCH  25  26
BRANCH  25  28
ATOM     28  C   UNL     1       5.449  -5.902  22.023  0.00  0.00    +0.067 C 
BRANCH  28  29
ATOM     29  C   UNL     1       4.644  -5.453  23.263  0.00  0.00    +0.128 C 
BRANCH  29  30
ATOM     30  O   UNL     1       3.259  -5.298  22.929  0.00  0.00    -0.391 OA
ATOM     31  H   UNL     1       2.915  -4.552  23.466  0.00  0.00    +0.210 HD
ENDBRANCH  29  30
BRANCH  29  32
ATOM     32  C   UNL     1       4.675  -6.465  24.409  0.00  0.00    +0.151 C 
BRANCH  32  33
ATOM     33  C   UNL     1       3.347  -7.136  24.622  0.00  0.00    +0.307 C 
ATOM     34  O   UNL     1       3.001  -8.182  24.093  0.00  0.00    -0.251 OA
BRANCH  33  35
ATOM     35  O   UNL     1       2.552  -6.469  25.491  0.00  0.00    -0.481 OA
ATOM     36  H   UNL     1       2.404  -6.937  26.335  0.00  0.00    +0.295 HD
ENDBRANCH  33  35
ENDBRANCH  32  33
ENDBRANCH  29  32
ENDBRANCH  28  29
ENDBRANCH  25  28
ENDBRANCH  24  25
ENDBRANCH   2  23
TORSDOF 12
ENDMDL
