MODEL 1
REMARK VINA RESULT:      -6.9      0.000      0.000
REMARK  Name = 
REMARK  11 active torsions:
REMARK  status: ('A' for Active; 'I' for Inactive)
REMARK    1  A    between atoms: C_1  and  O_2
REMARK    2  A    between atoms: O_2  and  C_3
REMARK    3  A    between atoms: C_5  and  C_11
REMARK    4  A    between atoms: C_7  and  O_8
REMARK    5  A    between atoms: O_8  and  C_9
REMARK    6  A    between atoms: N_13  and  C_14
REMARK    7  A    between atoms: C_16  and  O_18
REMARK    8  A    between atoms: C_19  and  C_21
REMARK    9  A    between atoms: C_21  and  O_22
REMARK   10  A    between atoms: C_24  and  N_26
REMARK   11  A    between atoms: N_35  and  C_36
REMARK                            x       y       z     vdW  Elec       q    Type
REMARK                         _______ _______ _______ _____ _____    ______ ____
ROOT
ATOM      1  C   UNL     1       7.206  -3.112  24.158  0.00  0.00    +0.154 C 
ATOM      2  C   UNL     1       7.679  -2.345  25.412  0.00  0.00    +0.245 C 
ATOM      3  O   UNL     1       8.681  -3.152  26.073  0.00  0.00    -0.346 OA
ATOM      4  C   UNL     1       8.987  -4.301  25.247  0.00  0.00    +0.176 C 
ATOM      5  C   UNL     1       8.405  -4.013  23.865  0.00  0.00    +0.170 C 
ENDROOT
BRANCH   2   6
ATOM      6  N   UNL     1       8.204  -1.008  25.158  0.00  0.00    -0.286 N 
ATOM      7  C   UNL     1       7.436   0.098  24.881  0.00  0.00    +0.167 A 
ATOM      8  N   UNL     1       6.102   0.140  24.718  0.00  0.00    -0.216 NA
ATOM      9  C   UNL     1       5.699   1.401  24.446  0.00  0.00    +0.225 A 
ATOM     10  N   UNL     1       6.447   2.521  24.334  0.00  0.00    -0.219 NA
ATOM     11  C   UNL     1       7.795   2.440  24.510  0.00  0.00    +0.150 A 
ATOM     12  N   UNL     1       8.605   3.559  24.382  0.00  0.00    -0.320 N 
ATOM     13  H   UNL     1       9.536   3.429  24.763  0.00  0.00    +0.148 HD
ATOM     14  C   UNL     1       8.327   1.159  24.802  0.00  0.00    +0.147 A 
ATOM     15  N   UNL     1       9.614   0.719  25.042  0.00  0.00    -0.231 NA
ATOM     16  C   UNL     1       9.498  -0.575  25.270  0.00  0.00    +0.203 A 
BRANCH  12  17
ATOM     17  C   UNL     1       8.068   4.915  24.359  0.00  0.00    +0.102 C 
ATOM     18  C   UNL     1       8.048   5.530  25.752  0.00  0.00    -0.024 A 
ATOM     19  C   UNL     1       8.973   6.518  26.150  0.00  0.00    -0.042 A 
ATOM     20  C   UNL     1       8.856   7.108  27.421  0.00  0.00    +0.004 A 
ATOM     21  C   UNL     1       7.848   6.719  28.300  0.00  0.00    +0.000 A 
ATOM     22  C   UNL     1       6.948   5.729  27.922  0.00  0.00    +0.000 A 
ATOM     23  C   UNL     1      10.043   7.036  25.222  0.00  0.00    +0.035 C 
ATOM     24  C   UNL     1      10.251   6.161  23.992  0.00  0.00    +0.007 C 
ATOM     25  C   UNL     1       7.048   5.138  26.660  0.00  0.00    +0.006 A 
ATOM     26  C   UNL     1       8.908   5.768  23.385  0.00  0.00    +0.027 C 
ENDBRANCH  12  17
ENDBRANCH   2   6
BRANCH   1  28
ATOM     27  C   UNL     1       5.057  -4.130  23.380  0.00  0.00    +0.245 C 
ATOM     28  N   UNL     1       5.967  -3.876  24.390  0.00  0.00    -0.302 N 
ATOM     29  H   UNL     1       5.693  -4.023  25.353  0.00  0.00    +0.150 HD
ATOM     30  O   UNL     1       5.336  -3.914  22.200  0.00  0.00    -0.270 OA
BRANCH  27  35
ATOM     31  C   UNL     1       1.870  -4.726  25.358  0.00  0.00    +0.124 A 
ATOM     32  C   UNL     1       1.278  -5.772  24.644  0.00  0.00    +0.091 A 
ATOM     33  C   UNL     1       1.871  -6.237  23.475  0.00  0.00    +0.124 A 
ATOM     34  C   UNL     1       3.058  -5.660  23.017  0.00  0.00    +0.059 A 
ATOM     35  C   UNL     1       3.707  -4.661  23.757  0.00  0.00    +0.044 A 
ATOM     36  C   UNL     1       3.095  -4.195  24.936  0.00  0.00    +0.059 A 
BRANCH  31  38
ATOM     37  C   UNL     1       2.041  -4.500  27.707  0.00  0.00    +0.277 C 
ATOM     38  O   UNL     1       1.349  -4.181  26.501  0.00  0.00    -0.495 OA
ENDBRANCH  31  38
BRANCH  33  39
ATOM     39  O   UNL     1       1.409  -7.257  22.686  0.00  0.00    -0.495 OA
ATOM     40  C   UNL     1       1.197  -8.516  23.313  0.00  0.00    +0.277 C 
ENDBRANCH  33  39
ENDBRANCH  27  35
ENDBRANCH   1  28
BRANCH   5  41
ATOM     41  O   UNL     1       9.385  -3.285  23.112  0.00  0.00    -0.387 OA
ATOM     42  H   UNL     1       9.289  -2.338  23.321  0.00  0.00    +0.210 HD
ENDBRANCH   5  41
BRANCH   4  43
ATOM     43  C   UNL     1       8.407  -5.572  25.887  0.00  0.00    +0.190 C 
BRANCH  43  44
ATOM     44  O   UNL     1       7.985  -5.337  27.230  0.00  0.00    -0.392 OA
ATOM     45  H   UNL     1       7.286  -4.662  27.213  0.00  0.00    +0.210 HD
ENDBRANCH  43  44
ENDBRANCH   4  43
TORSDOF 9
ENDMDL
MODEL 2
REMARK VINA RESULT:      -6.8      3.165     10.802
REMARK  Name = 
REMARK  11 active torsions:
REMARK  status: ('A' for Active; 'I' for Inactive)
REMARK    1  A    between atoms: C_1  and  O_2
REMARK    2  A    between atoms: O_2  and  C_3
REMARK    3  A    between atoms: C_5  and  C_11
REMARK    4  A    between atoms: C_7  and  O_8
REMARK    5  A    between atoms: O_8  and  C_9
REMARK    6  A    between atoms: N_13  and  C_14
REMARK    7  A    between atoms: C_16  and  O_18
REMARK    8  A    between atoms: C_19  and  C_21
REMARK    9  A    between atoms: C_21  and  O_22
REMARK   10  A    between atoms: C_24  and  N_26
REMARK   11  A    between atoms: N_35  and  C_36
REMARK                            x       y       z     vdW  Elec       q    Type
REMARK                         _______ _______ _______ _____ _____    ______ ____
ROOT
ATOM      1  C   UNL     1       8.240  -0.260  24.238  0.00  0.00    +0.154 C 
ATOM      2  C   UNL     1       7.228  -0.982  23.322  0.00  0.00    +0.245 C 
ATOM      3  O   UNL     1       7.971  -1.859  22.444  0.00  0.00    -0.346 OA
ATOM      4  C   UNL     1       9.363  -1.860  22.841  0.00  0.00    +0.176 C 
ATOM      5  C   UNL     1       9.423  -1.229  24.230  0.00  0.00    +0.170 C 
ENDROOT
BRANCH   2   6
ATOM      6  N   UNL     1       6.191  -1.735  24.019  0.00  0.00    -0.286 N 
ATOM      7  C   UNL     1       6.019  -3.096  23.937  0.00  0.00    +0.167 A 
ATOM      8  N   UNL     1       6.703  -3.956  23.163  0.00  0.00    -0.216 NA
ATOM      9  C   UNL     1       6.249  -5.216  23.341  0.00  0.00    +0.225 A 
ATOM     10  N   UNL     1       5.262  -5.652  24.155  0.00  0.00    -0.219 NA
ATOM     11  C   UNL     1       4.594  -4.751  24.929  0.00  0.00    +0.150 A 
ATOM     12  N   UNL     1       3.559  -5.149  25.762  0.00  0.00    -0.320 N 
ATOM     13  H   UNL     1       3.304  -4.449  26.452  0.00  0.00    +0.148 HD
ATOM     14  C   UNL     1       4.991  -3.395  24.821  0.00  0.00    +0.147 A 
ATOM     15  N   UNL     1       4.550  -2.244  25.446  0.00  0.00    -0.231 NA
ATOM     16  C   UNL     1       5.303  -1.278  24.956  0.00  0.00    +0.203 A 
BRANCH  12  17
ATOM     17  C   UNL     1       3.317  -6.547  26.098  0.00  0.00    +0.102 C 
ATOM     18  C   UNL     1       3.058  -6.726  27.588  0.00  0.00    -0.024 A 
ATOM     19  C   UNL     1       1.768  -6.976  28.101  0.00  0.00    -0.042 A 
ATOM     20  C   UNL     1       1.601  -7.212  29.477  0.00  0.00    +0.004 A 
ATOM     21  C   UNL     1       2.690  -7.187  30.344  0.00  0.00    +0.000 A 
ATOM     22  C   UNL     1       3.961  -6.918  29.847  0.00  0.00    +0.000 A 
ATOM     23  C   UNL     1       0.557  -7.087  27.209  0.00  0.00    +0.035 C 
ATOM     24  C   UNL     1       0.795  -6.559  25.800  0.00  0.00    +0.007 C 
ATOM     25  C   UNL     1       4.143  -6.687  28.482  0.00  0.00    +0.006 A 
ATOM     26  C   UNL     1       2.129  -7.064  25.260  0.00  0.00    +0.027 C 
ENDBRANCH  12  17
ENDBRANCH   2   6
BRANCH   1  28
ATOM     27  C   UNL     1       9.769   1.716  24.126  0.00  0.00    +0.245 C 
ATOM     28  N   UNL     1       8.603   1.080  23.743  0.00  0.00    -0.302 N 
ATOM     29  H   UNL     1       7.873   1.613  23.287  0.00  0.00    +0.150 HD
ATOM     30  O   UNL     1      10.658   1.114  24.729  0.00  0.00    -0.270 OA
BRANCH  27  35
ATOM     31  C   UNL     1      11.390   5.099  23.527  0.00  0.00    +0.124 A 
ATOM     32  C   UNL     1      10.276   5.939  23.425  0.00  0.00    +0.091 A 
ATOM     33  C   UNL     1       8.995   5.401  23.473  0.00  0.00    +0.124 A 
ATOM     34  C   UNL     1       8.821   4.023  23.626  0.00  0.00    +0.059 A 
ATOM     35  C   UNL     1       9.922   3.173  23.805  0.00  0.00    +0.044 A 
ATOM     36  C   UNL     1      11.215   3.728  23.748  0.00  0.00    +0.059 A 
BRANCH  31  38
ATOM     37  C   UNL     1      13.278   5.511  22.163  0.00  0.00    +0.277 C 
ATOM     38  O   UNL     1      12.688   5.529  23.462  0.00  0.00    -0.495 OA
ENDBRANCH  31  38
BRANCH  33  39
ATOM     39  O   UNL     1       7.822   6.104  23.398  0.00  0.00    -0.495 OA
ATOM     40  C   UNL     1       7.308   6.371  22.098  0.00  0.00    +0.277 C 
ENDBRANCH  33  39
ENDBRANCH  27  35
ENDBRANCH   1  28
BRANCH   5  41
ATOM     41  O   UNL     1       9.207  -2.263  25.200  0.00  0.00    -0.387 OA
ATOM     42  H   UNL     1       9.065  -1.843  26.068  0.00  0.00    +0.210 HD
ENDBRANCH   5  41
BRANCH   4  43
ATOM     43  C   UNL     1      10.202  -1.099  21.802  0.00  0.00    +0.190 C 
BRANCH  43  44
ATOM     44  O   UNL     1       9.376  -0.364  20.899  0.00  0.00    -0.392 OA
ATOM     45  H   UNL     1       9.182   0.498  21.303  0.00  0.00    +0.210 HD
ENDBRANCH  43  44
ENDBRANCH   4  43
TORSDOF 9
ENDMDL
MODEL 3
REMARK VINA RESULT:      -6.7      3.218     10.644
REMARK  Name = 
REMARK  11 active torsions:
REMARK  status: ('A' for Active; 'I' for Inactive)
REMARK    1  A    between atoms: C_1  and  O_2
REMARK    2  A    between atoms: O_2  and  C_3
REMARK    3  A    between atoms: C_5  and  C_11
REMARK    4  A    between atoms: C_7  and  O_8
REMARK    5  A    between atoms: O_8  and  C_9
REMARK    6  A    between atoms: N_13  and  C_14
REMARK    7  A    between atoms: C_16  and  O_18
REMARK    8  A    between atoms: C_19  and  C_21
REMARK    9  A    between atoms: C_21  and  O_22
REMARK   10  A    between atoms: C_24  and  N_26
REMARK   11  A    between atoms: N_35  and  C_36
REMARK                            x       y       z     vdW  Elec       q    Type
REMARK                         _______ _______ _______ _____ _____    ______ ____
ROOT
ATOM      1  C   UNL     1       8.525  -0.033  24.399  0.00  0.00    +0.154 C 
ATOM      2  C   UNL     1       7.296  -0.413  23.546  0.00  0.00    +0.245 C 
ATOM      3  O   UNL     1       7.774  -1.043  22.336  0.00  0.00    -0.346 OA
ATOM      4  C   UNL     1       9.206  -1.229  22.430  0.00  0.00    +0.176 C 
ATOM      5  C   UNL     1       9.578  -1.021  23.896  0.00  0.00    +0.170 C 
ENDROOT
BRANCH   2   6
ATOM      6  N   UNL     1       6.326  -1.277  24.209  0.00  0.00    -0.286 N 
ATOM      7  C   UNL     1       6.233  -2.636  24.030  0.00  0.00    +0.167 A 
ATOM      8  N   UNL     1       6.944  -3.394  23.178  0.00  0.00    -0.216 NA
ATOM      9  C   UNL     1       6.572  -4.689  23.272  0.00  0.00    +0.225 A 
ATOM     10  N   UNL     1       5.635  -5.243  24.074  0.00  0.00    -0.219 NA
ATOM     11  C   UNL     1       4.937  -4.444  24.929  0.00  0.00    +0.150 A 
ATOM     12  N   UNL     1       3.951  -4.964  25.754  0.00  0.00    -0.320 N 
ATOM     13  H   UNL     1       3.675  -4.334  26.500  0.00  0.00    +0.148 HD
ATOM     14  C   UNL     1       5.250  -3.061  24.913  0.00  0.00    +0.147 A 
ATOM     15  N   UNL     1       4.759  -1.989  25.632  0.00  0.00    -0.231 NA
ATOM     16  C   UNL     1       5.439  -0.945  25.198  0.00  0.00    +0.203 A 
BRANCH  12  17
ATOM     17  C   UNL     1       3.803  -6.396  25.990  0.00  0.00    +0.102 C 
ATOM     18  C   UNL     1       3.292  -6.678  27.397  0.00  0.00    -0.024 A 
ATOM     19  C   UNL     1       1.964  -7.082  27.648  0.00  0.00    -0.042 A 
ATOM     20  C   UNL     1       1.571  -7.407  28.957  0.00  0.00    +0.004 A 
ATOM     21  C   UNL     1       2.472  -7.321  30.016  0.00  0.00    +0.000 A 
ATOM     22  C   UNL     1       3.777  -6.902  29.779  0.00  0.00    +0.000 A 
ATOM     23  C   UNL     1       0.958  -7.264  26.539  0.00  0.00    +0.035 C 
ATOM     24  C   UNL     1       1.395  -6.640  25.219  0.00  0.00    +0.007 C 
ATOM     25  C   UNL     1       4.183  -6.581  28.482  0.00  0.00    +0.006 A 
ATOM     26  C   UNL     1       2.853  -6.981  24.925  0.00  0.00    +0.027 C 
ENDBRANCH  12  17
ENDBRANCH   2   6
BRANCH   1  28
ATOM     27  C   UNL     1       8.282   2.416  24.847  0.00  0.00    +0.245 C 
ATOM     28  N   UNL     1       8.934   1.371  24.218  0.00  0.00    -0.302 N 
ATOM     29  H   UNL     1       9.566   1.569  23.453  0.00  0.00    +0.150 HD
ATOM     30  O   UNL     1       7.467   2.212  25.747  0.00  0.00    -0.270 OA
BRANCH  27  35
ATOM     31  C   UNL     1       7.761   5.920  23.475  0.00  0.00    +0.124 A 
ATOM     32  C   UNL     1       9.076   6.367  23.320  0.00  0.00    +0.091 A 
ATOM     33  C   UNL     1      10.136   5.566  23.730  0.00  0.00    +0.124 A 
ATOM     34  C   UNL     1       9.884   4.313  24.296  0.00  0.00    +0.059 A 
ATOM     35  C   UNL     1       8.578   3.814  24.392  0.00  0.00    +0.044 A 
ATOM     36  C   UNL     1       7.512   4.637  23.978  0.00  0.00    +0.059 A 
BRANCH  31  38
ATOM     37  C   UNL     1       6.614   7.108  21.781  0.00  0.00    +0.277 C 
ATOM     38  O   UNL     1       6.653   6.646  23.130  0.00  0.00    -0.495 OA
ENDBRANCH  31  38
BRANCH  33  39
ATOM     39  O   UNL     1      11.467   5.872  23.627  0.00  0.00    -0.495 OA
ATOM     40  C   UNL     1      12.353   4.809  23.300  0.00  0.00    +0.277 C 
ENDBRANCH  33  39
ENDBRANCH  27  35
ENDBRANCH   1  28
BRANCH   5  41
ATOM     41  O   UNL     1       9.431  -2.274  24.577  0.00  0.00    -0.387 OA
ATOM     42  H   UNL     1      10.316  -2.581  24.848  0.00  0.00    +0.210 HD
ENDBRANCH   5  41
BRANCH   4  43
ATOM     43  C   UNL     1       9.922  -0.250  21.486  0.00  0.00    +0.190 C 
BRANCH  43  44
ATOM     44  O   UNL     1       9.069   0.828  21.103  0.00  0.00    -0.392 OA
ATOM     45  H   UNL     1       9.115   0.919  20.137  0.00  0.00    +0.210 HD
ENDBRANCH  43  44
ENDBRANCH   4  43
TORSDOF 9
ENDMDL
MODEL 4
REMARK VINA RESULT:      -6.6      3.118     10.426
REMARK  Name = 
REMARK  11 active torsions:
REMARK  status: ('A' for Active; 'I' for Inactive)
REMARK    1  A    between atoms: C_1  and  O_2
REMARK    2  A    between atoms: O_2  and  C_3
REMARK    3  A    between atoms: C_5  and  C_11
REMARK    4  A    between atoms: C_7  and  O_8
REMARK    5  A    between atoms: O_8  and  C_9
REMARK    6  A    between atoms: N_13  and  C_14
REMARK    7  A    between atoms: C_16  and  O_18
REMARK    8  A    between atoms: C_19  and  C_21
REMARK    9  A    between atoms: C_21  and  O_22
REMARK   10  A    between atoms: C_24  and  N_26
REMARK   11  A    between atoms: N_35  and  C_36
REMARK                            x       y       z     vdW  Elec       q    Type
REMARK                         _______ _______ _______ _____ _____    ______ ____
ROOT
ATOM      1  C   UNL     1       8.626   0.445  24.314  0.00  0.00    +0.154 C 
ATOM      2  C   UNL     1       7.681   0.119  23.137  0.00  0.00    +0.245 C 
ATOM      3  O   UNL     1       8.457   0.176  21.917  0.00  0.00    -0.346 OA
ATOM      4  C   UNL     1       9.853   0.361  22.250  0.00  0.00    +0.176 C 
ATOM      5  C   UNL     1       9.990   0.062  23.741  0.00  0.00    +0.170 C 
ENDROOT
BRANCH   2   6
ATOM      6  N   UNL     1       6.994  -1.164  23.232  0.00  0.00    -0.286 N 
ATOM      7  C   UNL     1       5.994  -1.456  24.129  0.00  0.00    +0.167 A 
ATOM      8  N   UNL     1       5.528  -0.665  25.111  0.00  0.00    -0.216 NA
ATOM      9  C   UNL     1       4.550  -1.292  25.799  0.00  0.00    +0.225 A 
ATOM     10  N   UNL     1       4.041  -2.530  25.606  0.00  0.00    -0.219 NA
ATOM     11  C   UNL     1       4.535  -3.301  24.598  0.00  0.00    +0.150 A 
ATOM     12  N   UNL     1       4.060  -4.585  24.376  0.00  0.00    -0.320 N 
ATOM     13  H   UNL     1       4.324  -4.964  23.473  0.00  0.00    +0.148 HD
ATOM     14  C   UNL     1       5.570  -2.737  23.809  0.00  0.00    +0.147 A 
ATOM     15  N   UNL     1       6.281  -3.219  22.727  0.00  0.00    -0.231 NA
ATOM     16  C   UNL     1       7.108  -2.245  22.399  0.00  0.00    +0.203 A 
BRANCH  12  17
ATOM     17  C   UNL     1       2.828  -5.078  24.981  0.00  0.00    +0.102 C 
ATOM     18  C   UNL     1       2.041  -5.950  24.011  0.00  0.00    -0.024 A 
ATOM     19  C   UNL     1       1.988  -7.354  24.135  0.00  0.00    -0.042 A 
ATOM     20  C   UNL     1       1.181  -8.099  23.258  0.00  0.00    +0.004 A 
ATOM     21  C   UNL     1       0.443  -7.471  22.257  0.00  0.00    +0.000 A 
ATOM     22  C   UNL     1       0.509  -6.089  22.115  0.00  0.00    +0.000 A 
ATOM     23  C   UNL     1       2.704  -8.089  25.239  0.00  0.00    +0.035 C 
ATOM     24  C   UNL     1       3.745  -7.238  25.956  0.00  0.00    +0.007 C 
ATOM     25  C   UNL     1       1.303  -5.335  22.983  0.00  0.00    +0.006 A 
ATOM     26  C   UNL     1       3.179  -5.855  26.267  0.00  0.00    +0.027 C 
ENDBRANCH  12  17
ENDBRANCH   2   6
BRANCH   1  28
ATOM     27  C   UNL     1       7.817   2.277  25.812  0.00  0.00    +0.245 C 
ATOM     28  N   UNL     1       8.560   1.859  24.724  0.00  0.00    -0.302 N 
ATOM     29  H   UNL     1       8.897   2.544  24.060  0.00  0.00    +0.150 HD
ATOM     30  O   UNL     1       7.346   1.469  26.613  0.00  0.00    -0.270 OA
BRANCH  27  35
ATOM     31  C   UNL     1       6.870   5.583  27.425  0.00  0.00    +0.124 A 
ATOM     32  C   UNL     1       6.905   6.457  26.334  0.00  0.00    +0.091 A 
ATOM     33  C   UNL     1       7.310   5.995  25.087  0.00  0.00    +0.124 A 
ATOM     34  C   UNL     1       7.679   4.657  24.925  0.00  0.00    +0.059 A 
ATOM     35  C   UNL     1       7.580   3.748  25.987  0.00  0.00    +0.044 A 
ATOM     36  C   UNL     1       7.174   4.228  27.247  0.00  0.00    +0.059 A 
BRANCH  31  38
ATOM     37  C   UNL     1       6.830   5.007  29.720  0.00  0.00    +0.277 C 
ATOM     38  O   UNL     1       6.515   5.950  28.696  0.00  0.00    -0.495 OA
ENDBRANCH  31  38
BRANCH  33  39
ATOM     39  O   UNL     1       7.379   6.734  23.936  0.00  0.00    -0.495 OA
ATOM     40  C   UNL     1       8.373   6.364  22.987  0.00  0.00    +0.277 C 
ENDBRANCH  33  39
ENDBRANCH  27  35
ENDBRANCH   1  28
BRANCH   5  41
ATOM     41  O   UNL     1      10.202  -1.347  23.896  0.00  0.00    -0.387 OA
ATOM     42  H   UNL     1       9.494  -1.817  23.418  0.00  0.00    +0.210 HD
ENDBRANCH   5  41
BRANCH   4  43
ATOM     43  C   UNL     1      10.291   1.788  21.884  0.00  0.00    +0.190 C 
BRANCH  43  44
ATOM     44  O   UNL     1       9.177   2.677  21.813  0.00  0.00    -0.392 OA
ATOM     45  H   UNL     1       9.455   3.470  21.326  0.00  0.00    +0.210 HD
ENDBRANCH  43  44
ENDBRANCH   4  43
TORSDOF 9
ENDMDL
MODEL 5
REMARK VINA RESULT:      -6.0      1.898      3.074
REMARK  Name = 
REMARK  11 active torsions:
REMARK  status: ('A' for Active; 'I' for Inactive)
REMARK    1  A    between atoms: C_1  and  O_2
REMARK    2  A    between atoms: O_2  and  C_3
REMARK    3  A    between atoms: C_5  and  C_11
REMARK    4  A    between atoms: C_7  and  O_8
REMARK    5  A    between atoms: O_8  and  C_9
REMARK    6  A    between atoms: N_13  and  C_14
REMARK    7  A    between atoms: C_16  and  O_18
REMARK    8  A    between atoms: C_19  and  C_21
REMARK    9  A    between atoms: C_21  and  O_22
REMARK   10  A    between atoms: C_24  and  N_26
REMARK   11  A    between atoms: N_35  and  C_36
REMARK                            x       y       z     vdW  Elec       q    Type
REMARK                         _______ _______ _______ _____ _____    ______ ____
ROOT
ATOM      1  C   UNL     1       6.773  -2.278  24.102  0.00  0.00    +0.154 C 
ATOM      2  C   UNL     1       8.114  -2.155  24.858  0.00  0.00    +0.245 C 
ATOM      3  O   UNL     1       8.993  -3.196  24.372  0.00  0.00    -0.346 OA
ATOM      4  C   UNL     1       8.362  -3.870  23.258  0.00  0.00    +0.176 C 
ATOM      5  C   UNL     1       7.197  -2.988  22.816  0.00  0.00    +0.170 C 
ENDROOT
BRANCH   2   6
ATOM      6  N   UNL     1       8.769  -0.856  24.747  0.00  0.00    -0.286 N 
ATOM      7  C   UNL     1       8.154   0.302  24.338  0.00  0.00    +0.167 A 
ATOM      8  N   UNL     1       6.891   0.440  23.900  0.00  0.00    -0.216 NA
ATOM      9  C   UNL     1       6.640   1.727  23.576  0.00  0.00    +0.225 A 
ATOM     10  N   UNL     1       7.469   2.793  23.647  0.00  0.00    -0.219 NA
ATOM     11  C   UNL     1       8.741   2.615  24.100  0.00  0.00    +0.150 A 
ATOM     12  N   UNL     1       9.633   3.675  24.168  0.00  0.00    -0.320 N 
ATOM     13  H   UNL     1      10.453   3.478  24.733  0.00  0.00    +0.148 HD
ATOM     14  C   UNL     1       9.111   1.298  24.470  0.00  0.00    +0.147 A 
ATOM     15  N   UNL     1      10.286   0.767  24.966  0.00  0.00    -0.231 NA
ATOM     16  C   UNL     1      10.038  -0.517  25.137  0.00  0.00    +0.203 A 
BRANCH  12  17
ATOM     17  C   UNL     1       9.206   5.066  24.061  0.00  0.00    +0.102 C 
ATOM     18  C   UNL     1       8.825   5.638  25.420  0.00  0.00    -0.024 A 
ATOM     19  C   UNL     1       9.654   6.545  26.113  0.00  0.00    -0.042 A 
ATOM     20  C   UNL     1       9.213   7.102  27.326  0.00  0.00    +0.004 A 
ATOM     21  C   UNL     1       7.975   6.758  27.863  0.00  0.00    +0.000 A 
ATOM     22  C   UNL     1       7.163   5.846  27.196  0.00  0.00    +0.000 A 
ATOM     23  C   UNL     1      10.973   7.014  25.554  0.00  0.00    +0.035 C 
ATOM     24  C   UNL     1      11.473   6.165  24.391  0.00  0.00    +0.007 C 
ATOM     25  C   UNL     1       7.586   5.289  25.987  0.00  0.00    +0.006 A 
ATOM     26  C   UNL     1      10.338   5.887  23.409  0.00  0.00    +0.027 C 
ENDBRANCH  12  17
ENDBRANCH   2   6
BRANCH   1  28
ATOM     27  C   UNL     1       5.281  -2.607  26.083  0.00  0.00    +0.245 C 
ATOM     28  N   UNL     1       5.759  -3.034  24.858  0.00  0.00    -0.302 N 
ATOM     29  H   UNL     1       5.582  -3.986  24.561  0.00  0.00    +0.150 HD
ATOM     30  O   UNL     1       5.520  -1.474  26.502  0.00  0.00    -0.270 OA
BRANCH  27  35
ATOM     31  C   UNL     1       3.351  -5.723  27.079  0.00  0.00    +0.124 A 
ATOM     32  C   UNL     1       2.780  -5.333  28.294  0.00  0.00    +0.091 A 
ATOM     33  C   UNL     1       3.079  -4.086  28.833  0.00  0.00    +0.124 A 
ATOM     34  C   UNL     1       3.948  -3.225  28.159  0.00  0.00    +0.059 A 
ATOM     35  C   UNL     1       4.473  -3.566  26.905  0.00  0.00    +0.044 A 
ATOM     36  C   UNL     1       4.168  -4.833  26.371  0.00  0.00    +0.059 A 
BRANCH  31  38
ATOM     37  C   UNL     1       4.001  -7.243  25.386  0.00  0.00    +0.277 C 
ATOM     38  O   UNL     1       3.142  -6.938  26.483  0.00  0.00    -0.495 OA
ENDBRANCH  31  38
BRANCH  33  39
ATOM     39  O   UNL     1       2.584  -3.573  30.003  0.00  0.00    -0.495 OA
ATOM     40  C   UNL     1       2.833  -2.197  30.264  0.00  0.00    +0.277 C 
ENDBRANCH  33  39
ENDBRANCH  27  35
ENDBRANCH   1  28
BRANCH   5  41
ATOM     41  O   UNL     1       7.696  -2.028  21.875  0.00  0.00    -0.387 OA
ATOM     42  H   UNL     1       8.368  -1.482  22.323  0.00  0.00    +0.210 HD
ENDBRANCH   5  41
BRANCH   4  43
ATOM     43  C   UNL     1       7.918  -5.278  23.684  0.00  0.00    +0.190 C 
BRANCH  43  44
ATOM     44  O   UNL     1       6.579  -5.553  23.272  0.00  0.00    -0.392 OA
ATOM     45  H   UNL     1       6.018  -5.577  24.066  0.00  0.00    +0.210 HD
ENDBRANCH  43  44
ENDBRANCH   4  43
TORSDOF 9
ENDMDL
MODEL 6
REMARK VINA RESULT:      -6.0      1.780      2.591
REMARK  Name = 
REMARK  11 active torsions:
REMARK  status: ('A' for Active; 'I' for Inactive)
REMARK    1  A    between atoms: C_1  and  O_2
REMARK    2  A    between atoms: O_2  and  C_3
REMARK    3  A    between atoms: C_5  and  C_11
REMARK    4  A    between atoms: C_7  and  O_8
REMARK    5  A    between atoms: O_8  and  C_9
REMARK    6  A    between atoms: N_13  and  C_14
REMARK    7  A    between atoms: C_16  and  O_18
REMARK    8  A    between atoms: C_19  and  C_21
REMARK    9  A    between atoms: C_21  and  O_22
REMARK   10  A    between atoms: C_24  and  N_26
REMARK   11  A    between atoms: N_35  and  C_36
REMARK                            x       y       z     vdW  Elec       q    Type
REMARK                         _______ _______ _______ _____ _____    ______ ____
ROOT
ATOM      1  C   UNL     1       7.973  -1.516  23.449  0.00  0.00    +0.154 C 
ATOM      2  C   UNL     1       8.767  -0.803  24.564  0.00  0.00    +0.245 C 
ATOM      3  O   UNL     1       9.825  -1.691  24.993  0.00  0.00    -0.346 OA
ATOM      4  C   UNL     1       9.854  -2.849  24.125  0.00  0.00    +0.176 C 
ATOM      5  C   UNL     1       9.007  -2.501  22.903  0.00  0.00    +0.170 C 
ENDROOT
BRANCH   2   6
ATOM      6  N   UNL     1       9.323   0.495  24.195  0.00  0.00    -0.286 N 
ATOM      7  C   UNL     1       8.616   1.672  24.164  0.00  0.00    +0.167 A 
ATOM      8  N   UNL     1       7.300   1.836  24.384  0.00  0.00    -0.216 NA
ATOM      9  C   UNL     1       6.958   3.136  24.257  0.00  0.00    +0.225 A 
ATOM     10  N   UNL     1       7.746   4.193  23.958  0.00  0.00    -0.219 NA
ATOM     11  C   UNL     1       9.076   3.989  23.745  0.00  0.00    +0.150 A 
ATOM     12  N   UNL     1       9.920   5.039  23.414  0.00  0.00    -0.320 N 
ATOM     13  H   UNL     1      10.904   4.814  23.515  0.00  0.00    +0.148 HD
ATOM     14  C   UNL     1       9.545   2.656  23.855  0.00  0.00    +0.147 A 
ATOM     15  N   UNL     1      10.801   2.098  23.715  0.00  0.00    -0.231 NA
ATOM     16  C   UNL     1      10.632   0.810  23.945  0.00  0.00    +0.203 A 
BRANCH  12  17
ATOM     17  C   UNL     1       9.527   6.435  23.565  0.00  0.00    +0.102 C 
ATOM     18  C   UNL     1       8.023   6.612  23.401  0.00  0.00    -0.024 A 
ATOM     19  C   UNL     1       7.170   6.850  24.498  0.00  0.00    -0.042 A 
ATOM     20  C   UNL     1       5.802   7.086  24.277  0.00  0.00    +0.004 A 
ATOM     21  C   UNL     1       5.274   7.073  22.989  0.00  0.00    +0.000 A 
ATOM     22  C   UNL     1       6.105   6.816  21.904  0.00  0.00    +0.000 A 
ATOM     23  C   UNL     1       7.689   6.949  25.911  0.00  0.00    +0.035 C 
ATOM     24  C   UNL     1       9.109   6.422  26.071  0.00  0.00    +0.007 C 
ATOM     25  C   UNL     1       7.468   6.585  22.109  0.00  0.00    +0.006 A 
ATOM     26  C   UNL     1       9.999   6.940  24.945  0.00  0.00    +0.027 C 
ENDBRANCH  12  17
ENDBRANCH   2   6
BRANCH   1  28
ATOM     27  C   UNL     1       6.170  -3.241  23.277  0.00  0.00    +0.245 C 
ATOM     28  N   UNL     1       6.761  -2.188  23.950  0.00  0.00    -0.302 N 
ATOM     29  H   UNL     1       6.247  -1.718  24.685  0.00  0.00    +0.150 HD
ATOM     30  O   UNL     1       6.742  -3.805  22.343  0.00  0.00    -0.270 OA
BRANCH  27  35
ATOM     31  C   UNL     1       3.026  -3.628  25.374  0.00  0.00    +0.124 A 
ATOM     32  C   UNL     1       2.329  -4.614  24.669  0.00  0.00    +0.091 A 
ATOM     33  C   UNL     1       2.838  -5.103  23.471  0.00  0.00    +0.124 A 
ATOM     34  C   UNL     1       4.047  -4.609  22.974  0.00  0.00    +0.059 A 
ATOM     35  C   UNL     1       4.798  -3.675  23.701  0.00  0.00    +0.044 A 
ATOM     36  C   UNL     1       4.270  -3.183  24.910  0.00  0.00    +0.059 A 
BRANCH  31  38
ATOM     37  C   UNL     1       3.214  -1.830  26.900  0.00  0.00    +0.277 C 
ATOM     38  O   UNL     1       2.593  -3.064  26.544  0.00  0.00    -0.495 OA
ENDBRANCH  31  38
BRANCH  33  39
ATOM     39  O   UNL     1       2.268  -6.071  22.688  0.00  0.00    -0.495 OA
ATOM     40  C   UNL     1       0.936  -6.459  23.002  0.00  0.00    +0.277 C 
ENDBRANCH  33  39
ENDBRANCH  27  35
ENDBRANCH   1  28
BRANCH   5  41
ATOM     41  O   UNL     1       9.849  -1.841  21.950  0.00  0.00    -0.387 OA
ATOM     42  H   UNL     1       9.817  -0.882  22.126  0.00  0.00    +0.210 HD
ENDBRANCH   5  41
BRANCH   4  43
ATOM     43  C   UNL     1       9.333  -4.080  24.883  0.00  0.00    +0.190 C 
BRANCH  43  44
ATOM     44  O   UNL     1      10.301  -5.130  24.905  0.00  0.00    -0.392 OA
ATOM     45  H   UNL     1      10.610  -5.274  23.995  0.00  0.00    +0.210 HD
ENDBRANCH  43  44
ENDBRANCH   4  43
TORSDOF 9
ENDMDL
MODEL 7
REMARK VINA RESULT:      -6.0      2.377      3.580
REMARK  Name = 
REMARK  11 active torsions:
REMARK  status: ('A' for Active; 'I' for Inactive)
REMARK    1  A    between atoms: C_1  and  O_2
REMARK    2  A    between atoms: O_2  and  C_3
REMARK    3  A    between atoms: C_5  and  C_11
REMARK    4  A    between atoms: C_7  and  O_8
REMARK    5  A    between atoms: O_8  and  C_9
REMARK    6  A    between atoms: N_13  and  C_14
REMARK    7  A    between atoms: C_16  and  O_18
REMARK    8  A    between atoms: C_19  and  C_21
REMARK    9  A    between atoms: C_21  and  O_22
REMARK   10  A    between atoms: C_24  and  N_26
REMARK   11  A    between atoms: N_35  and  C_36
REMARK                            x       y       z     vdW  Elec       q    Type
REMARK                         _______ _______ _______ _____ _____    ______ ____
ROOT
ATOM      1  C   UNL     1       5.942  -3.029  24.392  0.00  0.00    +0.154 C 
ATOM      2  C   UNL     1       7.446  -2.829  24.678  0.00  0.00    +0.245 C 
ATOM      3  O   UNL     1       8.188  -3.433  23.593  0.00  0.00    -0.346 OA
ATOM      4  C   UNL     1       7.262  -3.864  22.567  0.00  0.00    +0.176 C 
ATOM      5  C   UNL     1       5.926  -3.191  22.872  0.00  0.00    +0.170 C 
ENDROOT
BRANCH   2   6
ATOM      6  N   UNL     1       7.863  -1.442  24.856  0.00  0.00    -0.286 N 
ATOM      7  C   UNL     1       8.357  -0.636  23.859  0.00  0.00    +0.167 A 
ATOM      8  N   UNL     1       8.618  -0.984  22.587  0.00  0.00    -0.216 NA
ATOM      9  C   UNL     1       9.105   0.070  21.898  0.00  0.00    +0.225 A 
ATOM     10  N   UNL     1       9.333   1.331  22.331  0.00  0.00    -0.219 NA
ATOM     11  C   UNL     1       9.053   1.648  23.626  0.00  0.00    +0.150 A 
ATOM     12  N   UNL     1       9.292   2.921  24.121  0.00  0.00    -0.320 N 
ATOM     13  H   UNL     1       8.831   3.103  25.007  0.00  0.00    +0.148 HD
ATOM     14  C   UNL     1       8.533   0.611  24.442  0.00  0.00    +0.147 A 
ATOM     15  N   UNL     1       8.140   0.578  25.765  0.00  0.00    -0.231 NA
ATOM     16  C   UNL     1       7.728  -0.658  25.970  0.00  0.00    +0.203 A 
BRANCH  12  17
ATOM     17  C   UNL     1       9.558   4.061  23.252  0.00  0.00    +0.102 C 
ATOM     18  C   UNL     1       8.362   5.003  23.186  0.00  0.00    -0.024 A 
ATOM     19  C   UNL     1       8.347   6.246  23.853  0.00  0.00    -0.042 A 
ATOM     20  C   UNL     1       7.249   7.108  23.690  0.00  0.00    +0.004 A 
ATOM     21  C   UNL     1       6.167   6.746  22.891  0.00  0.00    +0.000 A 
ATOM     22  C   UNL     1       6.166   5.512  22.250  0.00  0.00    +0.000 A 
ATOM     23  C   UNL     1       9.515   6.730  24.674  0.00  0.00    +0.035 C 
ATOM     24  C   UNL     1      10.519   5.632  25.002  0.00  0.00    +0.007 C 
ATOM     25  C   UNL     1       7.253   4.647  22.397  0.00  0.00    +0.006 A 
ATOM     26  C   UNL     1      10.816   4.795  23.761  0.00  0.00    +0.027 C 
ENDBRANCH  12  17
ENDBRANCH   2   6
BRANCH   1  28
ATOM     27  C   UNL     1       4.107  -4.188  25.635  0.00  0.00    +0.245 C 
ATOM     28  N   UNL     1       5.378  -4.197  25.091  0.00  0.00    -0.302 N 
ATOM     29  H   UNL     1       6.026  -4.930  25.354  0.00  0.00    +0.150 HD
ATOM     30  O   UNL     1       3.309  -3.286  25.381  0.00  0.00    -0.270 OA
BRANCH  27  35
ATOM     31  C   UNL     1       1.987  -6.758  27.460  0.00  0.00    +0.124 A 
ATOM     32  C   UNL     1       2.878  -7.234  28.427  0.00  0.00    +0.091 A 
ATOM     33  C   UNL     1       4.192  -6.780  28.443  0.00  0.00    +0.124 A 
ATOM     34  C   UNL     1       4.620  -5.847  27.494  0.00  0.00    +0.059 A 
ATOM     35  C   UNL     1       3.724  -5.302  26.564  0.00  0.00    +0.044 A 
ATOM     36  C   UNL     1       2.397  -5.773  26.553  0.00  0.00    +0.059 A 
BRANCH  31  38
ATOM     37  C   UNL     1       0.451  -8.554  27.569  0.00  0.00    +0.277 C 
ATOM     38  O   UNL     1       0.684  -7.166  27.344  0.00  0.00    -0.495 OA
ENDBRANCH  31  38
BRANCH  33  39
ATOM     39  O   UNL     1       5.163  -7.150  29.336  0.00  0.00    -0.495 OA
ATOM     40  C   UNL     1       6.363  -6.386  29.342  0.00  0.00    +0.277 C 
ENDBRANCH  33  39
ENDBRANCH  27  35
ENDBRANCH   1  28
BRANCH   5  41
ATOM     41  O   UNL     1       5.924  -1.900  22.248  0.00  0.00    -0.387 OA
ATOM     42  H   UNL     1       5.024  -1.722  21.918  0.00  0.00    +0.210 HD
ENDBRANCH   5  41
BRANCH   4  43
ATOM     43  C   UNL     1       7.171  -5.398  22.559  0.00  0.00    +0.190 C 
BRANCH  43  44
ATOM     44  O   UNL     1       8.331  -5.995  23.139  0.00  0.00    -0.392 OA
ATOM     45  H   UNL     1       8.134  -6.194  24.070  0.00  0.00    +0.210 HD
ENDBRANCH  43  44
ENDBRANCH   4  43
TORSDOF 9
ENDMDL
MODEL 8
REMARK VINA RESULT:      -6.0      2.221      3.243
REMARK  Name = 
REMARK  11 active torsions:
REMARK  status: ('A' for Active; 'I' for Inactive)
REMARK    1  A    between atoms: C_1  and  O_2
REMARK    2  A    between atoms: O_2  and  C_3
REMARK    3  A    between atoms: C_5  and  C_11
REMARK    4  A    between atoms: C_7  and  O_8
REMARK    5  A    between atoms: O_8  and  C_9
REMARK    6  A    between atoms: N_13  and  C_14
REMARK    7  A    between atoms: C_16  and  O_18
REMARK    8  A    between atoms: C_19  and  C_21
REMARK    9  A    between atoms: C_21  and  O_22
REMARK   10  A    between atoms: C_24  and  N_26
REMARK   11  A    between atoms: N_35  and  C_36
REMARK                            x       y       z     vdW  Elec       q    Type
REMARK                         _______ _______ _______ _____ _____    ______ ____
ROOT
ATOM      1  C   UNL     1       6.615  -3.190  25.264  0.00  0.00    +0.154 C 
ATOM      2  C   UNL     1       7.827  -2.629  26.039  0.00  0.00    +0.245 C 
ATOM      3  O   UNL     1       9.014  -3.291  25.545  0.00  0.00    -0.346 OA
ATOM      4  C   UNL     1       8.661  -4.116  24.410  0.00  0.00    +0.176 C 
ATOM      5  C   UNL     1       7.265  -3.681  23.970  0.00  0.00    +0.170 C 
ENDROOT
BRANCH   2   6
ATOM      6  N   UNL     1       7.994  -1.182  25.962  0.00  0.00    -0.286 N 
ATOM      7  C   UNL     1       8.708  -0.524  24.990  0.00  0.00    +0.167 A 
ATOM      8  N   UNL     1       9.431  -1.075  24.000  0.00  0.00    -0.216 NA
ATOM      9  C   UNL     1      10.003  -0.115  23.242  0.00  0.00    +0.225 A 
ATOM     10  N   UNL     1       9.920   1.228  23.374  0.00  0.00    -0.219 NA
ATOM     11  C   UNL     1       9.174   1.750  24.386  0.00  0.00    +0.150 A 
ATOM     12  N   UNL     1       9.078   3.121  24.575  0.00  0.00    -0.320 N 
ATOM     13  H   UNL     1       8.321   3.392  25.194  0.00  0.00    +0.148 HD
ATOM     14  C   UNL     1       8.526   0.828  25.246  0.00  0.00    +0.147 A 
ATOM     15  N   UNL     1       7.704   0.999  26.343  0.00  0.00    -0.231 NA
ATOM     16  C   UNL     1       7.391  -0.222  26.731  0.00  0.00    +0.203 A 
BRANCH  12  17
ATOM     17  C   UNL     1       9.497   4.081  23.560  0.00  0.00    +0.102 C 
ATOM     18  C   UNL     1       8.339   4.969  23.121  0.00  0.00    -0.024 A 
ATOM     19  C   UNL     1       8.227   6.315  23.527  0.00  0.00    -0.042 A 
ATOM     20  C   UNL     1       7.181   7.108  23.026  0.00  0.00    +0.004 A 
ATOM     21  C   UNL     1       6.242   6.578  22.144  0.00  0.00    +0.000 A 
ATOM     22  C   UNL     1       6.333   5.246  21.757  0.00  0.00    +0.000 A 
ATOM     23  C   UNL     1       9.249   6.970  24.422  0.00  0.00    +0.035 C 
ATOM     24  C   UNL     1      10.174   5.974  25.113  0.00  0.00    +0.007 C 
ATOM     25  C   UNL     1       7.371   4.447  22.243  0.00  0.00    +0.006 A 
ATOM     26  C   UNL     1      10.662   4.924  24.120  0.00  0.00    +0.027 C 
ENDBRANCH  12  17
ENDBRANCH   2   6
BRANCH   1  28
ATOM     27  C   UNL     1       4.550  -4.438  25.926  0.00  0.00    +0.245 C 
ATOM     28  N   UNL     1       5.921  -4.267  25.992  0.00  0.00    -0.302 N 
ATOM     29  H   UNL     1       6.446  -4.744  26.714  0.00  0.00    +0.150 HD
ATOM     30  O   UNL     1       3.871  -3.834  25.095  0.00  0.00    -0.270 OA
BRANCH  27  35
ATOM     31  C   UNL     1       4.083  -6.709  28.934  0.00  0.00    +0.124 A 
ATOM     32  C   UNL     1       2.833  -7.280  28.674  0.00  0.00    +0.091 A 
ATOM     33  C   UNL     1       2.103  -6.875  27.562  0.00  0.00    +0.124 A 
ATOM     34  C   UNL     1       2.620  -5.899  26.705  0.00  0.00    +0.059 A 
ATOM     35  C   UNL     1       3.902  -5.368  26.907  0.00  0.00    +0.044 A 
ATOM     36  C   UNL     1       4.630  -5.781  28.039  0.00  0.00    +0.059 A 
BRANCH  31  38
ATOM     37  C   UNL     1       6.058  -6.254  30.155  0.00  0.00    +0.277 C 
ATOM     38  O   UNL     1       4.862  -7.020  30.017  0.00  0.00    -0.495 OA
ENDBRANCH  31  38
BRANCH  33  39
ATOM     39  O   UNL     1       0.878  -7.356  27.182  0.00  0.00    -0.495 OA
ATOM     40  C   UNL     1       0.645  -7.506  25.786  0.00  0.00    +0.277 C 
ENDBRANCH  33  39
ENDBRANCH  27  35
ENDBRANCH   1  28
BRANCH   5  41
ATOM     41  O   UNL     1       7.406  -2.586  23.055  0.00  0.00    -0.387 OA
ATOM     42  H   UNL     1       8.311  -2.607  22.692  0.00  0.00    +0.210 HD
ENDBRANCH   5  41
BRANCH   4  43
ATOM     43  C   UNL     1       8.728  -5.600  24.803  0.00  0.00    +0.190 C 
BRANCH  43  44
ATOM     44  O   UNL     1       8.741  -5.766  26.221  0.00  0.00    -0.392 OA
ATOM     45  H   UNL     1       7.856  -5.550  26.558  0.00  0.00    +0.210 HD
ENDBRANCH  43  44
ENDBRANCH   4  43
TORSDOF 9
ENDMDL
MODEL 9
REMARK VINA RESULT:      -5.9      1.324      2.260
REMARK  Name = 
REMARK  11 active torsions:
REMARK  status: ('A' for Active; 'I' for Inactive)
REMARK    1  A    between atoms: C_1  and  O_2
REMARK    2  A    between atoms: O_2  and  C_3
REMARK    3  A    between atoms: C_5  and  C_11
REMARK    4  A    between atoms: C_7  and  O_8
REMARK    5  A    between atoms: O_8  and  C_9
REMARK    6  A    between atoms: N_13  and  C_14
REMARK    7  A    between atoms: C_16  and  O_18
REMARK    8  A    between atoms: C_19  and  C_21
REMARK    9  A    between atoms: C_21  and  O_22
REMARK   10  A    between atoms: C_24  and  N_26
REMARK   11  A    between atoms: N_35  and  C_36
REMARK                            x       y       z     vdW  Elec       q    Type
REMARK                         _______ _______ _______ _____ _____    ______ ____
ROOT
ATOM      1  C   UNL     1       6.600  -3.469  23.974  0.00  0.00    +0.154 C 
ATOM      2  C   UNL     1       7.023  -2.411  25.015  0.00  0.00    +0.245 C 
ATOM      3  O   UNL     1       8.230  -2.880  25.658  0.00  0.00    -0.346 OA
ATOM      4  C   UNL     1       8.687  -4.082  24.994  0.00  0.00    +0.176 C 
ATOM      5  C   UNL     1       7.926  -4.167  23.673  0.00  0.00    +0.170 C 
ENDROOT
BRANCH   2   6
ATOM      6  N   UNL     1       7.229  -1.068  24.483  0.00  0.00    -0.286 N 
ATOM      7  C   UNL     1       6.401   0.004  24.712  0.00  0.00    +0.167 A 
ATOM      8  N   UNL     1       5.237   0.002  25.384  0.00  0.00    -0.216 NA
ATOM      9  C   UNL     1       4.696   1.239  25.396  0.00  0.00    +0.225 A 
ATOM     10  N   UNL     1       5.175   2.377  24.846  0.00  0.00    -0.219 NA
ATOM     11  C   UNL     1       6.361   2.342  24.176  0.00  0.00    +0.150 A 
ATOM     12  N   UNL     1       6.881   3.479  23.576  0.00  0.00    -0.320 N 
ATOM     13  H   UNL     1       7.859   3.390  23.321  0.00  0.00    +0.148 HD
ATOM     14  C   UNL     1       7.018   1.087  24.103  0.00  0.00    +0.147 A 
ATOM     15  N   UNL     1       8.209   0.695  23.525  0.00  0.00    -0.231 NA
ATOM     16  C   UNL     1       8.311  -0.594  23.790  0.00  0.00    +0.203 A 
BRANCH  12  17
ATOM     17  C   UNL     1       6.378   4.816  23.867  0.00  0.00    +0.102 C 
ATOM     18  C   UNL     1       7.149   5.466  25.009  0.00  0.00    -0.024 A 
ATOM     19  C   UNL     1       8.093   6.491  24.791  0.00  0.00    -0.042 A 
ATOM     20  C   UNL     1       8.715   7.108  25.890  0.00  0.00    +0.004 A 
ATOM     21  C   UNL     1       8.423   6.711  27.193  0.00  0.00    +0.000 A 
ATOM     22  C   UNL     1       7.511   5.685  27.413  0.00  0.00    +0.000 A 
ATOM     23  C   UNL     1       8.402   7.017  23.412  0.00  0.00    +0.035 C 
ATOM     24  C   UNL     1       7.889   6.119  22.293  0.00  0.00    +0.007 C 
ATOM     25  C   UNL     1       6.881   5.066  26.330  0.00  0.00    +0.006 A 
ATOM     26  C   UNL     1       6.460   5.670  22.584  0.00  0.00    +0.027 C 
ENDBRANCH  12  17
ENDBRANCH   2   6
BRANCH   1  28
ATOM     27  C   UNL     1       4.623  -4.971  23.666  0.00  0.00    +0.245 C 
ATOM     28  N   UNL     1       5.576  -4.397  24.487  0.00  0.00    -0.302 N 
ATOM     29  H   UNL     1       5.454  -4.435  25.491  0.00  0.00    +0.150 HD
ATOM     30  O   UNL     1       4.710  -4.901  22.440  0.00  0.00    -0.270 OA
BRANCH  27  35
ATOM     31  C   UNL     1       2.183  -7.722  24.620  0.00  0.00    +0.124 A 
ATOM     32  C   UNL     1       1.189  -7.006  25.293  0.00  0.00    +0.091 A 
ATOM     33  C   UNL     1       1.342  -5.640  25.509  0.00  0.00    +0.124 A 
ATOM     34  C   UNL     1       2.488  -4.985  25.049  0.00  0.00    +0.059 A 
ATOM     35  C   UNL     1       3.461  -5.670  24.307  0.00  0.00    +0.044 A 
ATOM     36  C   UNL     1       3.298  -7.053  24.100  0.00  0.00    +0.059 A 
BRANCH  31  38
ATOM     37  C   UNL     1       1.251  -9.811  25.222  0.00  0.00    +0.277 C 
ATOM     38  O   UNL     1       2.138  -9.070  24.386  0.00  0.00    -0.495 OA
ENDBRANCH  31  38
BRANCH  33  39
ATOM     39  O   UNL     1       0.447  -4.818  26.140  0.00  0.00    -0.495 OA
ATOM     40  C   UNL     1       0.502  -3.433  25.819  0.00  0.00    +0.277 C 
ENDBRANCH  33  39
ENDBRANCH  27  35
ENDBRANCH   1  28
BRANCH   5  41
ATOM     41  O   UNL     1       8.654  -3.418  22.690  0.00  0.00    -0.387 OA
ATOM     42  H   UNL     1       8.249  -3.584  21.819  0.00  0.00    +0.210 HD
ENDBRANCH   5  41
BRANCH   4  43
ATOM     43  C   UNL     1       8.450  -5.300  25.900  0.00  0.00    +0.190 C 
BRANCH  43  44
ATOM     44  O   UNL     1       7.432  -5.043  26.868  0.00  0.00    -0.392 OA
ATOM     45  H   UNL     1       7.829  -5.125  27.751  0.00  0.00    +0.210 HD
ENDBRANCH  43  44
ENDBRANCH   4  43
TORSDOF 9
ENDMDL
