MODEL 1
REMARK VINA RESULT:      -5.3      0.000      0.000
REMARK  Name = 
REMARK  6 active torsions:
REMARK  status: ('A' for Active; 'I' for Inactive)
REMARK    1  A    between atoms: C_1  and  C_2
REMARK    2  A    between atoms: C_4  and  C_5
REMARK    3  A    between atoms: C_5  and  C_6
REMARK    4  A    between atoms: C_6  and  C_7
REMARK    5  A    between atoms: C_7  and  N_8
REMARK    6  A    between atoms: N_8  and  O_9
REMARK                            x       y       z     vdW  Elec       q    Type
REMARK                         _______ _______ _______ _____ _____    ______ ____
ROOT
ATOM      1  C   UNL     1       9.355  -1.767  24.745  0.00  0.00    +0.057 C 
ENDROOT
BRANCH   1   7
ATOM      2  C   UNL     1      10.636   2.796  23.595  0.00  0.00    +0.065 C 
ATOM      3  C   UNL     1      10.148   1.454  23.133  0.00  0.00    +0.039 A 
ATOM      4  C   UNL     1       9.856   1.244  21.791  0.00  0.00    +0.023 A 
ATOM      5  C   UNL     1       9.397  -0.007  21.394  0.00  0.00    +0.003 A 
ATOM      6  C   UNL     1       9.234  -1.006  22.348  0.00  0.00    +0.023 A 
ATOM      7  C   UNL     1       9.525  -0.717  23.677  0.00  0.00    +0.042 A 
ATOM      8  N   UNL     1       9.990   0.492  24.075  0.00  0.00    -0.257 NA
ENDBRANCH   1   7
BRANCH   1   9
ATOM      9  C   UNL     1       9.710  -3.155  24.221  0.00  0.00    +0.028 C 
BRANCH   9  10
ATOM     10  C   UNL     1       8.551  -4.131  24.412  0.00  0.00    +0.140 C 
BRANCH  10  11
ATOM     11  N   UNL     1       8.875  -5.166  25.387  0.00  0.00    -0.186 N 
ATOM     12  C   UNL     1       8.481  -5.025  26.706  0.00  0.00    +0.352 C 
ATOM     13  O   UNL     1       7.586  -4.300  27.120  0.00  0.00    -0.277 OA
BRANCH  11  14
ATOM     14  O   UNL     1      10.218  -5.604  25.276  0.00  0.00    -0.293 OA
ATOM     15  H   UNL     1      10.630  -4.847  24.817  0.00  0.00    +0.242 HD
ENDBRANCH  11  14
ENDBRANCH  10  11
ENDBRANCH   9  10
ENDBRANCH   1   9
TORSDOF 5
ENDMDL
MODEL 2
REMARK VINA RESULT:      -5.1      3.425      4.910
REMARK  Name = 
REMARK  6 active torsions:
REMARK  status: ('A' for Active; 'I' for Inactive)
REMARK    1  A    between atoms: C_1  and  C_2
REMARK    2  A    between atoms: C_4  and  C_5
REMARK    3  A    between atoms: C_5  and  C_6
REMARK    4  A    between atoms: C_6  and  C_7
REMARK    5  A    between atoms: C_7  and  N_8
REMARK    6  A    between atoms: N_8  and  O_9
REMARK                            x       y       z     vdW  Elec       q    Type
REMARK                         _______ _______ _______ _____ _____    ______ ____
ROOT
ATOM      1  C   UNL     1       9.666   1.803  23.628  0.00  0.00    +0.057 C 
ENDROOT
BRANCH   1   7
ATOM      2  C   UNL     1      13.171   5.146  23.057  0.00  0.00    +0.065 C 
ATOM      3  C   UNL     1      11.736   4.845  23.379  0.00  0.00    +0.039 A 
ATOM      4  C   UNL     1      10.868   5.877  23.713  0.00  0.00    +0.023 A 
ATOM      5  C   UNL     1       9.546   5.566  24.015  0.00  0.00    +0.003 A 
ATOM      6  C   UNL     1       9.134   4.238  23.985  0.00  0.00    +0.023 A 
ATOM      7  C   UNL     1      10.065   3.257  23.664  0.00  0.00    +0.042 A 
ATOM      8  N   UNL     1      11.352   3.546  23.350  0.00  0.00    -0.257 NA
ENDBRANCH   1   7
BRANCH   1   9
ATOM      9  C   UNL     1      10.275   1.090  22.424  0.00  0.00    +0.028 C 
BRANCH   9  10
ATOM     10  C   UNL     1       9.191   0.563  21.487  0.00  0.00    +0.140 C 
BRANCH  10  11
ATOM     11  N   UNL     1       9.078  -0.890  21.560  0.00  0.00    -0.186 N 
ATOM     12  C   UNL     1       8.220  -1.475  22.474  0.00  0.00    +0.352 C 
ATOM     13  O   UNL     1       7.265  -0.935  23.017  0.00  0.00    -0.277 OA
BRANCH  11  14
ATOM     14  O   UNL     1      10.344  -1.527  21.535  0.00  0.00    -0.293 OA
ATOM     15  H   UNL     1      10.297  -2.081  22.337  0.00  0.00    +0.242 HD
ENDBRANCH  11  14
ENDBRANCH  10  11
ENDBRANCH   9  10
ENDBRANCH   1   9
TORSDOF 5
ENDMDL
MODEL 3
REMARK VINA RESULT:      -5.1      1.000      1.698
REMARK  Name = 
REMARK  6 active torsions:
REMARK  status: ('A' for Active; 'I' for Inactive)
REMARK    1  A    between atoms: C_1  and  C_2
REMARK    2  A    between atoms: C_4  and  C_5
REMARK    3  A    between atoms: C_5  and  C_6
REMARK    4  A    between atoms: C_6  and  C_7
REMARK    5  A    between atoms: C_7  and  N_8
REMARK    6  A    between atoms: N_8  and  O_9
REMARK                            x       y       z     vdW  Elec       q    Type
REMARK                         _______ _______ _______ _____ _____    ______ ____
ROOT
ATOM      1  C   UNL     1       9.080  -1.694  24.951  0.00  0.00    +0.057 C 
ENDROOT
BRANCH   1   7
ATOM      2  C   UNL     1       8.194   1.637  21.501  0.00  0.00    +0.065 C 
ATOM      3  C   UNL     1       9.045   1.191  22.653  0.00  0.00    +0.039 A 
ATOM      4  C   UNL     1      10.145   1.947  23.039  0.00  0.00    +0.023 A 
ATOM      5  C   UNL     1      10.920   1.504  24.106  0.00  0.00    +0.003 A 
ATOM      6  C   UNL     1      10.581   0.317  24.747  0.00  0.00    +0.023 A 
ATOM      7  C   UNL     1       9.479  -0.398  24.292  0.00  0.00    +0.042 A 
ATOM      8  N   UNL     1       8.705   0.030  23.265  0.00  0.00    -0.257 NA
ENDBRANCH   1   7
BRANCH   1   9
ATOM      9  C   UNL     1       9.439  -2.894  24.079  0.00  0.00    +0.028 C 
BRANCH   9  10
ATOM     10  C   UNL     1       8.482  -4.058  24.320  0.00  0.00    +0.140 C 
BRANCH  10  11
ATOM     11  N   UNL     1       9.043  -5.033  25.249  0.00  0.00    -0.186 N 
ATOM     12  C   UNL     1       8.741  -4.961  26.597  0.00  0.00    +0.352 C 
ATOM     13  O   UNL     1       7.779  -4.388  27.093  0.00  0.00    -0.277 OA
BRANCH  11  14
ATOM     14  O   UNL     1      10.425  -5.252  25.023  0.00  0.00    -0.293 OA
ATOM     15  H   UNL     1      10.406  -6.074  24.497  0.00  0.00    +0.242 HD
ENDBRANCH  11  14
ENDBRANCH  10  11
ENDBRANCH   9  10
ENDBRANCH   1   9
TORSDOF 5
ENDMDL
MODEL 4
REMARK VINA RESULT:      -5.0      3.617      6.187
REMARK  Name = 
REMARK  6 active torsions:
REMARK  status: ('A' for Active; 'I' for Inactive)
REMARK    1  A    between atoms: C_1  and  C_2
REMARK    2  A    between atoms: C_4  and  C_5
REMARK    3  A    between atoms: C_5  and  C_6
REMARK    4  A    between atoms: C_6  and  C_7
REMARK    5  A    between atoms: C_7  and  N_8
REMARK    6  A    between atoms: N_8  and  O_9
REMARK                            x       y       z     vdW  Elec       q    Type
REMARK                         _______ _______ _______ _____ _____    ______ ____
ROOT
ATOM      1  C   UNL     1       9.365  -1.125  23.399  0.00  0.00    +0.057 C 
ENDROOT
BRANCH   1   7
ATOM      2  C   UNL     1       6.389  -4.612  21.738  0.00  0.00    +0.065 C 
ATOM      3  C   UNL     1       7.438  -4.197  22.727  0.00  0.00    +0.039 A 
ATOM      4  C   UNL     1       7.861  -5.086  23.708  0.00  0.00    +0.023 A 
ATOM      5  C   UNL     1       8.829  -4.669  24.615  0.00  0.00    +0.003 A 
ATOM      6  C   UNL     1       9.337  -3.377  24.524  0.00  0.00    +0.023 A 
ATOM      7  C   UNL     1       8.850  -2.535  23.530  0.00  0.00    +0.042 A 
ATOM      8  N   UNL     1       7.920  -2.934  22.628  0.00  0.00    -0.257 NA
ENDBRANCH   1   7
BRANCH   1   9
ATOM      9  C   UNL     1      10.015  -0.896  22.037  0.00  0.00    +0.028 C 
BRANCH   9  10
ATOM     10  C   UNL     1       9.277   0.183  21.247  0.00  0.00    +0.140 C 
BRANCH  10  11
ATOM     11  N   UNL     1       9.248   1.451  21.966  0.00  0.00    -0.186 N 
ATOM     12  C   UNL     1       8.056   2.138  22.115  0.00  0.00    +0.352 C 
ATOM     13  O   UNL     1       6.931   1.663  22.020  0.00  0.00    -0.277 OA
BRANCH  11  14
ATOM     14  O   UNL     1      10.311   2.307  21.585  0.00  0.00    -0.293 OA
ATOM     15  H   UNL     1      10.330   2.172  20.618  0.00  0.00    +0.242 HD
ENDBRANCH  11  14
ENDBRANCH  10  11
ENDBRANCH   9  10
ENDBRANCH   1   9
TORSDOF 5
ENDMDL
MODEL 5
REMARK VINA RESULT:      -5.0      1.705      2.362
REMARK  Name = 
REMARK  6 active torsions:
REMARK  status: ('A' for Active; 'I' for Inactive)
REMARK    1  A    between atoms: C_1  and  C_2
REMARK    2  A    between atoms: C_4  and  C_5
REMARK    3  A    between atoms: C_5  and  C_6
REMARK    4  A    between atoms: C_6  and  C_7
REMARK    5  A    between atoms: C_7  and  N_8
REMARK    6  A    between atoms: N_8  and  O_9
REMARK                            x       y       z     vdW  Elec       q    Type
REMARK                         _______ _______ _______ _____ _____    ______ ____
ROOT
ATOM      1  C   UNL     1       7.140  -3.289  23.381  0.00  0.00    +0.057 C 
ENDROOT
BRANCH   1   7
ATOM      2  C   UNL     1      10.009   0.123  25.357  0.00  0.00    +0.065 C 
ATOM      3  C   UNL     1       9.563  -0.611  24.127  0.00  0.00    +0.039 A 
ATOM      4  C   UNL     1      10.096  -0.279  22.887  0.00  0.00    +0.023 A 
ATOM      5  C   UNL     1       9.658  -0.972  21.764  0.00  0.00    +0.003 A 
ATOM      6  C   UNL     1       8.695  -1.965  21.909  0.00  0.00    +0.023 A 
ATOM      7  C   UNL     1       8.191  -2.227  23.178  0.00  0.00    +0.042 A 
ATOM      8  N   UNL     1       8.621  -1.573  24.284  0.00  0.00    -0.257 NA
ENDBRANCH   1   7
BRANCH   1   9
ATOM      9  C   UNL     1       6.871  -3.527  24.865  0.00  0.00    +0.028 C 
BRANCH   9  10
ATOM     10  C   UNL     1       7.265  -4.942  25.278  0.00  0.00    +0.140 C 
BRANCH  10  11
ATOM     11  N   UNL     1       8.345  -4.936  26.258  0.00  0.00    -0.186 N 
ATOM     12  C   UNL     1       9.661  -5.041  25.844  0.00  0.00    +0.352 C 
ATOM     13  O   UNL     1      10.087  -4.794  24.723  0.00  0.00    -0.277 OA
BRANCH  11  14
ATOM     14  O   UNL     1       8.067  -5.777  27.365  0.00  0.00    -0.293 OA
ATOM     15  H   UNL     1       7.584  -6.508  26.935  0.00  0.00    +0.242 HD
ENDBRANCH  11  14
ENDBRANCH  10  11
ENDBRANCH   9  10
ENDBRANCH   1   9
TORSDOF 5
ENDMDL
MODEL 6
REMARK VINA RESULT:      -4.9      1.662      2.559
REMARK  Name = 
REMARK  6 active torsions:
REMARK  status: ('A' for Active; 'I' for Inactive)
REMARK    1  A    between atoms: C_1  and  C_2
REMARK    2  A    between atoms: C_4  and  C_5
REMARK    3  A    between atoms: C_5  and  C_6
REMARK    4  A    between atoms: C_6  and  C_7
REMARK    5  A    between atoms: C_7  and  N_8
REMARK    6  A    between atoms: N_8  and  O_9
REMARK                            x       y       z     vdW  Elec       q    Type
REMARK                         _______ _______ _______ _____ _____    ______ ____
ROOT
ATOM      1  C   UNL     1       7.075  -1.737  25.017  0.00  0.00    +0.057 C 
ENDROOT
BRANCH   1   7
ATOM      2  C   UNL     1       9.319   0.664  21.415  0.00  0.00    +0.065 C 
ATOM      3  C   UNL     1       9.315   0.239  22.853  0.00  0.00    +0.039 A 
ATOM      4  C   UNL     1      10.375   0.584  23.684  0.00  0.00    +0.023 A 
ATOM      5  C   UNL     1      10.346   0.168  25.011  0.00  0.00    +0.003 A 
ATOM      6  C   UNL     1       9.270  -0.587  25.465  0.00  0.00    +0.023 A 
ATOM      7  C   UNL     1       8.257  -0.913  24.571  0.00  0.00    +0.042 A 
ATOM      8  N   UNL     1       8.262  -0.500  23.280  0.00  0.00    -0.257 NA
ENDBRANCH   1   7
BRANCH   1   9
ATOM      9  C   UNL     1       7.385  -2.500  26.302  0.00  0.00    +0.028 C 
BRANCH   9  10
ATOM     10  C   UNL     1       7.295  -4.008  26.085  0.00  0.00    +0.140 C 
BRANCH  10  11
ATOM     11  N   UNL     1       8.491  -4.693  26.559  0.00  0.00    -0.186 N 
ATOM     12  C   UNL     1       9.542  -4.937  25.692  0.00  0.00    +0.352 C 
ATOM     13  O   UNL     1       9.763  -4.350  24.641  0.00  0.00    -0.277 OA
BRANCH  11  14
ATOM     14  O   UNL     1       8.180  -5.828  27.350  0.00  0.00    -0.293 OA
ATOM     15  H   UNL     1       7.658  -6.363  26.722  0.00  0.00    +0.242 HD
ENDBRANCH  11  14
ENDBRANCH  10  11
ENDBRANCH   9  10
ENDBRANCH   1   9
TORSDOF 5
ENDMDL
MODEL 7
REMARK VINA RESULT:      -4.9      3.258      5.954
REMARK  Name = 
REMARK  6 active torsions:
REMARK  status: ('A' for Active; 'I' for Inactive)
REMARK    1  A    between atoms: C_1  and  C_2
REMARK    2  A    between atoms: C_4  and  C_5
REMARK    3  A    between atoms: C_5  and  C_6
REMARK    4  A    between atoms: C_6  and  C_7
REMARK    5  A    between atoms: C_7  and  N_8
REMARK    6  A    between atoms: N_8  and  O_9
REMARK                            x       y       z     vdW  Elec       q    Type
REMARK                         _______ _______ _______ _____ _____    ______ ____
ROOT
ATOM      1  C   UNL     1       9.810  -1.639  23.183  0.00  0.00    +0.057 C 
ENDROOT
BRANCH   1   7
ATOM      2  C   UNL     1       8.285  -5.336  25.973  0.00  0.00    +0.065 C 
ATOM      3  C   UNL     1       8.108  -4.526  24.723  0.00  0.00    +0.039 A 
ATOM      4  C   UNL     1       7.108  -4.856  23.816  0.00  0.00    +0.023 A 
ATOM      5  C   UNL     1       6.974  -4.091  22.662  0.00  0.00    +0.003 A 
ATOM      6  C   UNL     1       7.846  -3.030  22.442  0.00  0.00    +0.023 A 
ATOM      7  C   UNL     1       8.837  -2.773  23.384  0.00  0.00    +0.042 A 
ATOM      8  N   UNL     1       8.969  -3.498  24.521  0.00  0.00    -0.257 NA
ENDBRANCH   1   7
BRANCH   1   9
ATOM      9  C   UNL     1       9.529  -0.890  21.883  0.00  0.00    +0.028 C 
BRANCH   9  10
ATOM     10  C   UNL     1       9.019   0.522  22.158  0.00  0.00    +0.140 C 
BRANCH  10  11
ATOM     11  N   UNL     1      10.106   1.426  22.517  0.00  0.00    -0.186 N 
ATOM     12  C   UNL     1      10.164   1.973  23.786  0.00  0.00    +0.352 C 
ATOM     13  O   UNL     1       9.611   1.537  24.787  0.00  0.00    -0.277 OA
BRANCH  11  14
ATOM     14  O   UNL     1      10.352   2.392  21.509  0.00  0.00    -0.293 OA
ATOM     15  H   UNL     1       9.714   2.120  20.821  0.00  0.00    +0.242 HD
ENDBRANCH  11  14
ENDBRANCH  10  11
ENDBRANCH   9  10
ENDBRANCH   1   9
TORSDOF 5
ENDMDL
MODEL 8
REMARK VINA RESULT:      -4.7      3.271      5.443
REMARK  Name = 
REMARK  6 active torsions:
REMARK  status: ('A' for Active; 'I' for Inactive)
REMARK    1  A    between atoms: C_1  and  C_2
REMARK    2  A    between atoms: C_4  and  C_5
REMARK    3  A    between atoms: C_5  and  C_6
REMARK    4  A    between atoms: C_6  and  C_7
REMARK    5  A    between atoms: C_7  and  N_8
REMARK    6  A    between atoms: N_8  and  O_9
REMARK                            x       y       z     vdW  Elec       q    Type
REMARK                         _______ _______ _______ _____ _____    ______ ____
ROOT
ATOM      1  C   UNL     1      10.659   2.048  23.872  0.00  0.00    +0.057 C 
ENDROOT
BRANCH   1   7
ATOM      2  C   UNL     1       9.833  -2.756  24.001  0.00  0.00    +0.065 C 
ATOM      3  C   UNL     1       9.787  -1.476  23.221  0.00  0.00    +0.039 A 
ATOM      4  C   UNL     1       9.353  -1.481  21.901  0.00  0.00    +0.023 A 
ATOM      5  C   UNL     1       9.328  -0.280  21.201  0.00  0.00    +0.003 A 
ATOM      6  C   UNL     1       9.747   0.886  21.833  0.00  0.00    +0.023 A 
ATOM      7  C   UNL     1      10.189   0.811  23.150  0.00  0.00    +0.042 A 
ATOM      8  N   UNL     1      10.202  -0.349  23.850  0.00  0.00    -0.257 NA
ENDBRANCH   1   7
BRANCH   1   9
ATOM      9  C   UNL     1       9.573   3.119  23.905  0.00  0.00    +0.028 C 
BRANCH   9  10
ATOM     10  C   UNL     1       8.412   2.701  24.804  0.00  0.00    +0.140 C 
BRANCH  10  11
ATOM     11  N   UNL     1       7.144   2.704  24.084  0.00  0.00    -0.186 N 
ATOM     12  C   UNL     1       6.587   1.513  23.653  0.00  0.00    +0.352 C 
ATOM     13  O   UNL     1       6.838   0.398  24.091  0.00  0.00    -0.277 OA
BRANCH  11  14
ATOM     14  O   UNL     1       7.102   3.705  23.081  0.00  0.00    -0.293 OA
ATOM     15  H   UNL     1       8.034   3.995  23.058  0.00  0.00    +0.242 HD
ENDBRANCH  11  14
ENDBRANCH  10  11
ENDBRANCH   9  10
ENDBRANCH   1   9
TORSDOF 5
ENDMDL
MODEL 9
REMARK VINA RESULT:      -4.7      1.667      1.942
REMARK  Name = 
REMARK  6 active torsions:
REMARK  status: ('A' for Active; 'I' for Inactive)
REMARK    1  A    between atoms: C_1  and  C_2
REMARK    2  A    between atoms: C_4  and  C_5
REMARK    3  A    between atoms: C_5  and  C_6
REMARK    4  A    between atoms: C_6  and  C_7
REMARK    5  A    between atoms: C_7  and  N_8
REMARK    6  A    between atoms: N_8  and  O_9
REMARK                            x       y       z     vdW  Elec       q    Type
REMARK                         _______ _______ _______ _____ _____    ______ ____
ROOT
ATOM      1  C   UNL     1       9.463  -3.545  24.438  0.00  0.00    +0.057 C 
ENDROOT
BRANCH   1   7
ATOM      2  C   UNL     1      10.816   1.139  24.320  0.00  0.00    +0.065 C 
ATOM      3  C   UNL     1      10.213  -0.032  23.602  0.00  0.00    +0.039 A 
ATOM      4  C   UNL     1       9.753   0.114  22.298  0.00  0.00    +0.023 A 
ATOM      5  C   UNL     1       9.191  -0.988  21.661  0.00  0.00    +0.003 A 
ATOM      6  C   UNL     1       9.095  -2.195  22.345  0.00  0.00    +0.023 A 
ATOM      7  C   UNL     1       9.556  -2.260  23.655  0.00  0.00    +0.042 A 
ATOM      8  N   UNL     1      10.121  -1.200  24.283  0.00  0.00    -0.257 NA
ENDBRANCH   1   7
BRANCH   1   9
ATOM      9  C   UNL     1       8.609  -3.371  25.691  0.00  0.00    +0.028 C 
BRANCH   9  10
ATOM     10  C   UNL     1       7.212  -3.953  25.493  0.00  0.00    +0.140 C 
BRANCH  10  11
ATOM     11  N   UNL     1       7.144  -5.347  25.917  0.00  0.00    -0.186 N 
ATOM     12  C   UNL     1       5.928  -5.911  26.257  0.00  0.00    +0.352 C 
ATOM     13  O   UNL     1       4.823  -5.501  25.925  0.00  0.00    -0.277 OA
BRANCH  11  14
ATOM     14  O   UNL     1       8.161  -5.672  26.850  0.00  0.00    -0.293 OA
ATOM     15  H   UNL     1       7.825  -6.512  27.216  0.00  0.00    +0.242 HD
ENDBRANCH  11  14
ENDBRANCH  10  11
ENDBRANCH   9  10
ENDBRANCH   1   9
TORSDOF 5
ENDMDL
