MODEL 1
REMARK VINA RESULT:      -6.7      0.000      0.000
REMARK  Name = 
REMARK  17 active torsions:
REMARK  status: ('A' for Active; 'I' for Inactive)
REMARK    1  A    between atoms: C_1  and  O_2
REMARK    2  A    between atoms: O_2  and  C_3
REMARK    3  A    between atoms: C_6  and  C_8
REMARK    4  A    between atoms: C_11  and  N_12
REMARK    5  A    between atoms: N_12  and  C_13
REMARK    6  A    between atoms: C_13  and  C_14
REMARK    7  A    between atoms: C_14  and  N_15
REMARK    8  A    between atoms: N_15  and  C_16
REMARK    9  A    between atoms: N_15  and  C_17
REMARK   10  A    between atoms: C_25  and  C_26
REMARK   11  A    between atoms: C_30  and  O_32
REMARK   12  A    between atoms: O_32  and  C_33
REMARK   13  A    between atoms: C_34  and  O_36
REMARK   14  A    between atoms: O_36  and  C_37
REMARK   15  A    between atoms: C_40  and  C_41
REMARK   16  A    between atoms: C_43  and  C_45
REMARK   17  A    between atoms: C_46  and  O_48
REMARK                            x       y       z     vdW  Elec       q    Type
REMARK                         _______ _______ _______ _____ _____    ______ ____
ROOT
ATOM      1  C   UNL     1       8.285  -1.381  23.416  0.00  0.00    +0.147 C 
ATOM      2  C   UNL     1       7.318  -2.913  23.994  0.00  0.00    +0.150 C 
ATOM      3  C   UNL     1       6.327  -4.439  23.454  0.00  0.00    +0.040 C 
ATOM      4  C   UNL     1       6.925  -5.550  22.521  0.00  0.00    +0.014 C 
ATOM      5  C   UNL     1       5.492  -5.631  24.473  0.00  0.00    -0.019 C 
ATOM      6  C   UNL     1       4.280  -6.325  24.271  0.00  0.00    -0.033 C 
ATOM      7  C   UNL     1       3.334  -5.973  23.146  0.00  0.00    +0.042 C 
ATOM      8  C   UNL     1       3.439  -7.418  25.279  0.00  0.00    +0.236 C 
ATOM      9  C   UNL     1       3.195  -6.714  26.669  0.00  0.00    +0.186 C 
ATOM     10  C   UNL     1       3.095  -5.236  26.400  0.00  0.00    +0.008 C 
ATOM     11  C   UNL     1       4.007  -4.374  26.852  0.00  0.00    -0.001 C 
ATOM     12  C   UNL     1       4.205  -3.093  26.221  0.00  0.00    +0.008 C 
ATOM     13  C   UNL     1       4.532  -2.009  26.931  0.00  0.00    +0.012 C 
ATOM     14  C   UNL     1       4.480  -1.994  28.430  0.00  0.00    +0.049 C 
ATOM     15  C   UNL     1       4.883  -0.722  26.237  0.00  0.00    +0.244 C 
ATOM     16  O   UNL     1       4.944  -0.606  25.021  0.00  0.00    -0.270 OA
ATOM     17  N   UNL     1       5.180   0.246  27.171  0.00  0.00    -0.279 N 
ATOM     18  H   UNL     1       5.415  -0.051  28.097  0.00  0.00    +0.155 HD
ATOM     19  C   UNL     1       5.228   1.587  27.022  0.00  0.00    +0.085 C 
ATOM     20  C   UNL     1       4.928   2.233  25.756  0.00  0.00    +0.205 C 
ATOM     21  O   UNL     1       3.957   2.037  25.051  0.00  0.00    -0.286 OA
ATOM     22  C   UNL     1       5.959   3.204  25.420  0.00  0.00    +0.026 C 
ATOM     23  C   UNL     1       6.180   4.161  26.349  0.00  0.00    +0.081 C 
ATOM     24  C   UNL     1       5.759   3.796  27.772  0.00  0.00    +0.202 C 
ATOM     25  O   UNL     1       5.724   4.657  28.657  0.00  0.00    -0.286 OA
ATOM     26  C   UNL     1       6.646   2.824  24.124  0.00  0.00    +0.044 C 
ATOM     27  C   UNL     1       7.823   1.729  24.416  0.00  0.00    -0.007 C 
ATOM     28  C   UNL     1       9.031   2.729  24.740  0.00  0.00    +0.008 C 
ATOM     29  C   UNL     1       5.517   2.396  28.033  0.00  0.00    +0.080 C 
ATOM     30  C   UNL     1       7.986   0.430  23.270  0.00  0.00    +0.037 C 
ENDROOT
BRANCH   1  32
ATOM     31  C   UNL     1      10.498  -1.534  22.235  0.00  0.00    +0.194 C 
ATOM     32  O   UNL     1       9.068  -1.730  22.217  0.00  0.00    -0.377 OA
ENDBRANCH   1  32
BRANCH   2  33
ATOM     33  O   UNL     1       8.315  -3.571  24.844  0.00  0.00    -0.389 OA
ATOM     34  H   UNL     1       9.144  -3.609  24.340  0.00  0.00    +0.210 HD
ENDBRANCH   2  33
BRANCH   9  35
ATOM     35  O   UNL     1       2.025  -7.099  27.398  0.00  0.00    -0.372 OA
ATOM     36  C   UNL     1       2.321  -7.306  28.785  0.00  0.00    +0.195 C 
ENDBRANCH   9  35
BRANCH  23  37
ATOM     37  N   UNL     1       6.842   5.372  26.179  0.00  0.00    -0.339 N 
ATOM     38  H   UNL     1       6.829   5.877  27.072  0.00  0.00    +0.146 HD
BRANCH  37  39
ATOM     39  C   UNL     1       6.240   6.326  25.205  0.00  0.00    +0.117 C 
BRANCH  39  40
ATOM     40  C   UNL     1       7.324   6.978  24.312  0.00  0.00    +0.102 C 
BRANCH  40  41
ATOM     41  N   UNL     1       8.035   6.018  23.448  0.00  0.00    -0.307 NA
ATOM     42  C   UNL     1       9.452   6.358  23.360  0.00  0.00    +0.104 C 
ATOM     43  C   UNL     1       7.434   5.958  22.114  0.00  0.00    +0.104 C 
ENDBRANCH  40  41
ENDBRANCH  39  40
ENDBRANCH  37  39
ENDBRANCH  23  37
BRANCH   8  44
ATOM     44  O   UNL     1       2.115  -7.753  24.641  0.00  0.00    -0.440 OA
BRANCH  44  45
ATOM     45  C   UNL     1       1.571  -8.995  24.540  0.00  0.00    +0.398 C 
ATOM     46  O   UNL     1       0.822  -9.414  23.672  0.00  0.00    -0.227 OA
ATOM     47  N   UNL     1       1.941  -9.766  25.608  0.00  0.00    -0.295 N 
ATOM     48  H   UNL     1       1.607 -10.718  25.698  0.00  0.00    +0.148 HD
ATOM     49  H   UNL     1       2.558  -9.399  26.315  0.00  0.00    +0.148 HD
ENDBRANCH  44  45
ENDBRANCH   8  44
TORSDOF 9
ENDMDL
MODEL 2
REMARK VINA RESULT:      -6.3      2.562     10.518
REMARK  Name = 
REMARK  17 active torsions:
REMARK  status: ('A' for Active; 'I' for Inactive)
REMARK    1  A    between atoms: C_1  and  O_2
REMARK    2  A    between atoms: O_2  and  C_3
REMARK    3  A    between atoms: C_6  and  C_8
REMARK    4  A    between atoms: C_11  and  N_12
REMARK    5  A    between atoms: N_12  and  C_13
REMARK    6  A    between atoms: C_13  and  C_14
REMARK    7  A    between atoms: C_14  and  N_15
REMARK    8  A    between atoms: N_15  and  C_16
REMARK    9  A    between atoms: N_15  and  C_17
REMARK   10  A    between atoms: C_25  and  C_26
REMARK   11  A    between atoms: C_30  and  O_32
REMARK   12  A    between atoms: O_32  and  C_33
REMARK   13  A    between atoms: C_34  and  O_36
REMARK   14  A    between atoms: O_36  and  C_37
REMARK   15  A    between atoms: C_40  and  C_41
REMARK   16  A    between atoms: C_43  and  C_45
REMARK   17  A    between atoms: C_46  and  O_48
REMARK                            x       y       z     vdW  Elec       q    Type
REMARK                         _______ _______ _______ _____ _____    ______ ____
ROOT
ATOM      1  C   UNL     1       6.357  -4.601  23.058  0.00  0.00    +0.147 C 
ATOM      2  C   UNL     1       6.770  -2.745  22.995  0.00  0.00    +0.150 C 
ATOM      3  C   UNL     1       8.123  -1.447  22.706  0.00  0.00    +0.040 C 
ATOM      4  C   UNL     1       8.941  -1.358  21.370  0.00  0.00    +0.014 C 
ATOM      5  C   UNL     1       8.008   0.320  22.847  0.00  0.00    -0.019 C 
ATOM      6  C   UNL     1       8.946   1.269  23.307  0.00  0.00    -0.033 C 
ATOM      7  C   UNL     1      10.228   0.859  23.994  0.00  0.00    +0.042 C 
ATOM      8  C   UNL     1       8.813   2.960  23.510  0.00  0.00    +0.236 C 
ATOM      9  C   UNL     1       7.566   3.247  24.431  0.00  0.00    +0.186 C 
ATOM     10  C   UNL     1       7.412   2.060  25.344  0.00  0.00    +0.008 C 
ATOM     11  C   UNL     1       6.359   1.245  25.270  0.00  0.00    -0.001 C 
ATOM     12  C   UNL     1       6.424  -0.111  25.756  0.00  0.00    +0.008 C 
ATOM     13  C   UNL     1       5.367  -0.701  26.320  0.00  0.00    +0.012 C 
ATOM     14  C   UNL     1       4.136   0.068  26.701  0.00  0.00    +0.049 C 
ATOM     15  C   UNL     1       5.411  -2.160  26.679  0.00  0.00    +0.244 C 
ATOM     16  O   UNL     1       6.365  -2.887  26.434  0.00  0.00    -0.270 OA
ATOM     17  N   UNL     1       4.214  -2.539  27.246  0.00  0.00    -0.279 N 
ATOM     18  H   UNL     1       3.416  -1.955  27.091  0.00  0.00    +0.155 HD
ATOM     19  C   UNL     1       3.931  -3.629  27.990  0.00  0.00    +0.085 C 
ATOM     20  C   UNL     1       4.943  -4.615  28.330  0.00  0.00    +0.205 C 
ATOM     21  O   UNL     1       6.044  -4.394  28.797  0.00  0.00    -0.286 OA
ATOM     22  C   UNL     1       4.459  -5.960  28.058  0.00  0.00    +0.026 C 
ATOM     23  C   UNL     1       3.305  -6.299  28.674  0.00  0.00    +0.081 C 
ATOM     24  C   UNL     1       2.420  -5.124  29.089  0.00  0.00    +0.202 C 
ATOM     25  O   UNL     1       1.451  -5.300  29.834  0.00  0.00    -0.286 OA
ATOM     26  C   UNL     1       5.327  -6.636  27.015  0.00  0.00    +0.044 C 
ATOM     27  C   UNL     1       4.845  -6.197  25.518  0.00  0.00    -0.007 C 
ATOM     28  C   UNL     1       3.720  -7.310  25.273  0.00  0.00    +0.008 C 
ATOM     29  C   UNL     1       2.719  -3.847  28.483  0.00  0.00    +0.080 C 
ATOM     30  C   UNL     1       6.099  -5.885  24.352  0.00  0.00    +0.037 C 
ENDROOT
BRANCH   1  32
ATOM     31  C   UNL     1       6.355  -5.787  20.842  0.00  0.00    +0.194 C 
ATOM     32  O   UNL     1       7.090  -5.293  21.982  0.00  0.00    -0.377 OA
ENDBRANCH   1  32
BRANCH   2  33
ATOM     33  O   UNL     1       5.780  -2.269  22.022  0.00  0.00    -0.389 OA
ATOM     34  H   UNL     1       5.683  -1.312  22.155  0.00  0.00    +0.210 HD
ENDBRANCH   2  33
BRANCH   9  35
ATOM     35  O   UNL     1       7.618   4.418  25.252  0.00  0.00    -0.372 OA
ATOM     36  C   UNL     1       6.853   5.488  24.682  0.00  0.00    +0.195 C 
ENDBRANCH   9  35
BRANCH  23  37
ATOM     37  N   UNL     1       2.788  -7.575  28.865  0.00  0.00    -0.339 N 
ATOM     38  H   UNL     1       3.297  -8.226  28.259  0.00  0.00    +0.146 HD
BRANCH  37  39
ATOM     39  C   UNL     1       1.356  -7.771  28.499  0.00  0.00    +0.117 C 
BRANCH  39  40
ATOM     40  C   UNL     1       1.200  -8.125  27.001  0.00  0.00    +0.102 C 
BRANCH  40  41
ATOM     41  N   UNL     1       0.444  -9.368  26.762  0.00  0.00    -0.307 NA
ATOM     42  C   UNL     1       0.466 -10.218  27.949  0.00  0.00    +0.104 C 
ATOM     43  C   UNL     1       0.961 -10.090  25.599  0.00  0.00    +0.104 C 
ENDBRANCH  40  41
ENDBRANCH  39  40
ENDBRANCH  37  39
ENDBRANCH  23  37
BRANCH   8  44
ATOM     44  O   UNL     1      10.065   3.472  24.177  0.00  0.00    -0.440 OA
BRANCH  44  45
ATOM     45  C   UNL     1      10.909   4.411  23.672  0.00  0.00    +0.398 C 
ATOM     46  O   UNL     1      12.083   4.273  23.369  0.00  0.00    -0.227 OA
ATOM     47  N   UNL     1      10.274   5.619  23.572  0.00  0.00    -0.295 N 
ATOM     48  H   UNL     1      10.767   6.434  23.229  0.00  0.00    +0.148 HD
ATOM     49  H   UNL     1       9.304   5.711  23.830  0.00  0.00    +0.148 HD
ENDBRANCH  44  45
ENDBRANCH   8  44
TORSDOF 9
ENDMDL
MODEL 3
REMARK VINA RESULT:      -5.9      1.250      1.562
REMARK  Name = 
REMARK  17 active torsions:
REMARK  status: ('A' for Active; 'I' for Inactive)
REMARK    1  A    between atoms: C_1  and  O_2
REMARK    2  A    between atoms: O_2  and  C_3
REMARK    3  A    between atoms: C_6  and  C_8
REMARK    4  A    between atoms: C_11  and  N_12
REMARK    5  A    between atoms: N_12  and  C_13
REMARK    6  A    between atoms: C_13  and  C_14
REMARK    7  A    between atoms: C_14  and  N_15
REMARK    8  A    between atoms: N_15  and  C_16
REMARK    9  A    between atoms: N_15  and  C_17
REMARK   10  A    between atoms: C_25  and  C_26
REMARK   11  A    between atoms: C_30  and  O_32
REMARK   12  A    between atoms: O_32  and  C_33
REMARK   13  A    between atoms: C_34  and  O_36
REMARK   14  A    between atoms: O_36  and  C_37
REMARK   15  A    between atoms: C_40  and  C_41
REMARK   16  A    between atoms: C_43  and  C_45
REMARK   17  A    between atoms: C_46  and  O_48
REMARK                            x       y       z     vdW  Elec       q    Type
REMARK                         _______ _______ _______ _____ _____    ______ ____
ROOT
ATOM      1  C   UNL     1       8.349  -1.064  23.594  0.00  0.00    +0.147 C 
ATOM      2  C   UNL     1       7.428  -2.571  24.301  0.00  0.00    +0.150 C 
ATOM      3  C   UNL     1       6.510  -4.181  23.896  0.00  0.00    +0.040 C 
ATOM      4  C   UNL     1       7.171  -5.353  23.088  0.00  0.00    +0.014 C 
ATOM      5  C   UNL     1       5.698  -5.300  25.011  0.00  0.00    -0.019 C 
ATOM      6  C   UNL     1       4.518  -6.059  24.855  0.00  0.00    -0.033 C 
ATOM      7  C   UNL     1       3.585  -5.857  23.683  0.00  0.00    +0.042 C 
ATOM      8  C   UNL     1       3.697  -7.081  25.950  0.00  0.00    +0.236 C 
ATOM      9  C   UNL     1       3.394  -6.255  27.259  0.00  0.00    +0.186 C 
ATOM     10  C   UNL     1       3.243  -4.816  26.844  0.00  0.00    +0.008 C 
ATOM     11  C   UNL     1       4.111  -3.878  27.225  0.00  0.00    -0.001 C 
ATOM     12  C   UNL     1       4.275  -2.657  26.476  0.00  0.00    +0.008 C 
ATOM     13  C   UNL     1       4.543  -1.498  27.082  0.00  0.00    +0.012 C 
ATOM     14  C   UNL     1       4.456  -1.339  28.570  0.00  0.00    +0.049 C 
ATOM     15  C   UNL     1       4.861  -0.271  26.271  0.00  0.00    +0.244 C 
ATOM     16  O   UNL     1       4.945  -0.272  25.050  0.00  0.00    -0.270 OA
ATOM     17  N   UNL     1       5.099   0.795  27.110  0.00  0.00    -0.279 N 
ATOM     18  H   UNL     1       5.323   0.599  28.066  0.00  0.00    +0.155 HD
ATOM     19  C   UNL     1       5.099   2.116  26.831  0.00  0.00    +0.085 C 
ATOM     20  C   UNL     1       4.804   2.623  25.502  0.00  0.00    +0.205 C 
ATOM     21  O   UNL     1       3.858   2.319  24.802  0.00  0.00    -0.286 OA
ATOM     22  C   UNL     1       5.804   3.597  25.092  0.00  0.00    +0.026 C 
ATOM     23  C   UNL     1       5.967   4.648  25.926  0.00  0.00    +0.081 C 
ATOM     24  C   UNL     1       5.528   4.407  27.371  0.00  0.00    +0.202 C 
ATOM     25  O   UNL     1       5.439   5.348  28.165  0.00  0.00    -0.286 OA
ATOM     26  C   UNL     1       6.535   3.120  23.853  0.00  0.00    +0.044 C 
ATOM     27  C   UNL     1       7.745   2.107  24.274  0.00  0.00    -0.007 C 
ATOM     28  C   UNL     1       8.907   3.182  24.521  0.00  0.00    +0.008 C 
ATOM     29  C   UNL     1       5.334   3.031  27.763  0.00  0.00    +0.080 C 
ATOM     30  C   UNL     1       7.984   0.710  23.265  0.00  0.00    +0.037 C 
ENDROOT
BRANCH   1  32
ATOM     31  C   UNL     1      10.607  -1.543  22.601  0.00  0.00    +0.194 C 
ATOM     32  O   UNL     1       9.172  -1.497  22.450  0.00  0.00    -0.377 OA
ENDBRANCH   1  32
BRANCH   2  33
ATOM     33  O   UNL     1       8.430  -3.102  25.232  0.00  0.00    -0.389 OA
ATOM     34  H   UNL     1       8.408  -4.070  25.157  0.00  0.00    +0.210 HD
ENDBRANCH   2  33
BRANCH   9  35
ATOM     35  O   UNL     1       2.223  -6.615  27.999  0.00  0.00    -0.372 OA
ATOM     36  C   UNL     1       2.282  -6.113  29.341  0.00  0.00    +0.195 C 
ENDBRANCH   9  35
BRANCH  23  37
ATOM     37  N   UNL     1       6.586   5.862  25.651  0.00  0.00    -0.339 N 
ATOM     38  H   UNL     1       6.491   6.469  26.472  0.00  0.00    +0.146 HD
BRANCH  37  39
ATOM     39  C   UNL     1       6.012   6.660  24.531  0.00  0.00    +0.117 C 
BRANCH  39  40
ATOM     40  C   UNL     1       4.531   7.023  24.799  0.00  0.00    +0.102 C 
BRANCH  40  41
ATOM     41  N   UNL     1       3.579   6.293  23.941  0.00  0.00    -0.307 NA
ATOM     42  C   UNL     1       4.141   6.087  22.610  0.00  0.00    +0.104 C 
ATOM     43  C   UNL     1       2.295   6.992  23.858  0.00  0.00    +0.104 C 
ENDBRANCH  40  41
ENDBRANCH  39  40
ENDBRANCH  37  39
ENDBRANCH  23  37
BRANCH   8  44
ATOM     44  O   UNL     1       2.401  -7.530  25.322  0.00  0.00    -0.440 OA
BRANCH  44  45
ATOM     45  C   UNL     1       1.895  -8.791  25.356  0.00  0.00    +0.398 C 
ATOM     46  O   UNL     1       1.986  -9.656  24.499  0.00  0.00    -0.227 OA
ATOM     47  N   UNL     1       1.189  -8.991  26.511  0.00  0.00    -0.295 N 
ATOM     48  H   UNL     1       0.730  -9.877  26.689  0.00  0.00    +0.148 HD
ATOM     49  H   UNL     1       1.126  -8.263  27.205  0.00  0.00    +0.148 HD
ENDBRANCH  44  45
ENDBRANCH   8  44
TORSDOF 9
ENDMDL
MODEL 4
REMARK VINA RESULT:      -5.7      2.581      5.508
REMARK  Name = 
REMARK  17 active torsions:
REMARK  status: ('A' for Active; 'I' for Inactive)
REMARK    1  A    between atoms: C_1  and  O_2
REMARK    2  A    between atoms: O_2  and  C_3
REMARK    3  A    between atoms: C_6  and  C_8
REMARK    4  A    between atoms: C_11  and  N_12
REMARK    5  A    between atoms: N_12  and  C_13
REMARK    6  A    between atoms: C_13  and  C_14
REMARK    7  A    between atoms: C_14  and  N_15
REMARK    8  A    between atoms: N_15  and  C_16
REMARK    9  A    between atoms: N_15  and  C_17
REMARK   10  A    between atoms: C_25  and  C_26
REMARK   11  A    between atoms: C_30  and  O_32
REMARK   12  A    between atoms: O_32  and  C_33
REMARK   13  A    between atoms: C_34  and  O_36
REMARK   14  A    between atoms: O_36  and  C_37
REMARK   15  A    between atoms: C_40  and  C_41
REMARK   16  A    between atoms: C_43  and  C_45
REMARK   17  A    between atoms: C_46  and  O_48
REMARK                            x       y       z     vdW  Elec       q    Type
REMARK                         _______ _______ _______ _____ _____    ______ ____
ROOT
ATOM      1  C   UNL     1       3.160   2.281  27.042  0.00  0.00    +0.147 C 
ATOM      2  C   UNL     1       2.542   0.500  27.294  0.00  0.00    +0.150 C 
ATOM      3  C   UNL     1       1.990  -0.805  28.556  0.00  0.00    +0.040 C 
ATOM      4  C   UNL     1       0.789  -0.578  29.540  0.00  0.00    +0.014 C 
ATOM      5  C   UNL     1       1.537  -2.499  28.267  0.00  0.00    -0.019 C 
ATOM      6  C   UNL     1       1.759  -3.656  29.045  0.00  0.00    -0.033 C 
ATOM      7  C   UNL     1       2.671  -3.647  30.250  0.00  0.00    +0.042 C 
ATOM      8  C   UNL     1       1.387  -5.294  28.737  0.00  0.00    +0.236 C 
ATOM      9  C   UNL     1       2.031  -5.692  27.353  0.00  0.00    +0.186 C 
ATOM     10  C   UNL     1       3.258  -4.838  27.180  0.00  0.00    +0.008 C 
ATOM     11  C   UNL     1       3.345  -3.913  26.223  0.00  0.00    -0.001 C 
ATOM     12  C   UNL     1       4.248  -2.795  26.339  0.00  0.00    +0.008 C 
ATOM     13  C   UNL     1       4.860  -2.280  25.269  0.00  0.00    +0.012 C 
ATOM     14  C   UNL     1       4.842  -2.965  23.935  0.00  0.00    +0.049 C 
ATOM     15  C   UNL     1       5.676  -1.023  25.391  0.00  0.00    +0.244 C 
ATOM     16  O   UNL     1       5.780  -0.384  26.430  0.00  0.00    -0.270 OA
ATOM     17  N   UNL     1       6.208  -0.689  24.165  0.00  0.00    -0.279 N 
ATOM     18  H   UNL     1       5.790  -1.089  23.348  0.00  0.00    +0.155 HD
ATOM     19  C   UNL     1       7.232   0.143  23.878  0.00  0.00    +0.085 C 
ATOM     20  C   UNL     1       7.976   0.836  24.916  0.00  0.00    +0.205 C 
ATOM     21  O   UNL     1       8.457   0.343  25.917  0.00  0.00    -0.286 OA
ATOM     22  C   UNL     1       8.106   2.249  24.595  0.00  0.00    +0.026 C 
ATOM     23  C   UNL     1       8.677   2.524  23.401  0.00  0.00    +0.081 C 
ATOM     24  C   UNL     1       8.593   1.402  22.366  0.00  0.00    +0.202 C 
ATOM     25  O   UNL     1       9.251   1.460  21.322  0.00  0.00    -0.286 OA
ATOM     26  C   UNL     1       7.435   3.099  25.656  0.00  0.00    +0.044 C 
ATOM     27  C   UNL     1       5.835   3.213  25.349  0.00  0.00    -0.007 C 
ATOM     28  C   UNL     1       5.849   4.481  24.371  0.00  0.00    +0.008 C 
ATOM     29  C   UNL     1       7.640   0.350  22.633  0.00  0.00    +0.080 C 
ATOM     30  C   UNL     1       4.767   3.121  26.720  0.00  0.00    +0.037 C 
ENDROOT
BRANCH   1  32
ATOM     31  C   UNL     1       1.446   4.072  27.456  0.00  0.00    +0.194 C 
ATOM     32  O   UNL     1       2.450   3.173  27.975  0.00  0.00    -0.377 OA
ENDBRANCH   1  32
BRANCH   2  33
ATOM     33  O   UNL     1       1.371   0.480  26.412  0.00  0.00    -0.389 OA
ATOM     34  H   UNL     1       0.591   0.659  26.963  0.00  0.00    +0.210 HD
ENDBRANCH   2  33
BRANCH   9  35
ATOM     35  O   UNL     1       2.428  -7.057  27.188  0.00  0.00    -0.372 OA
ATOM     36  C   UNL     1       1.616  -7.720  26.211  0.00  0.00    +0.195 C 
ENDBRANCH   9  35
BRANCH  23  37
ATOM     37  N   UNL     1       9.216   3.733  22.976  0.00  0.00    -0.339 N 
ATOM     38  H   UNL     1       9.637   3.594  22.051  0.00  0.00    +0.146 HD
BRANCH  37  39
ATOM     39  C   UNL     1      10.321   4.293  23.805  0.00  0.00    +0.117 C 
BRANCH  39  40
ATOM     40  C   UNL     1      11.704   3.991  23.179  0.00  0.00    +0.102 C 
BRANCH  40  41
ATOM     41  N   UNL     1      12.701   5.054  23.406  0.00  0.00    -0.307 NA
ATOM     42  C   UNL     1      12.137   6.119  24.230  0.00  0.00    +0.104 C 
ATOM     43  C   UNL     1      13.204   5.591  22.141  0.00  0.00    +0.104 C 
ENDBRANCH  40  41
ENDBRANCH  39  40
ENDBRANCH  37  39
ENDBRANCH  23  37
BRANCH   8  44
ATOM     44  O   UNL     1       1.978  -6.144  29.834  0.00  0.00    -0.440 OA
BRANCH  44  45
ATOM     45  C   UNL     1       1.663  -7.441  30.093  0.00  0.00    +0.398 C 
ATOM     46  O   UNL     1       0.595  -7.888  30.479  0.00  0.00    -0.227 OA
ATOM     47  N   UNL     1       2.755  -8.244  29.903  0.00  0.00    -0.295 N 
ATOM     48  H   UNL     1       2.698  -9.241  30.070  0.00  0.00    +0.148 HD
ATOM     49  H   UNL     1       3.628  -7.854  29.586  0.00  0.00    +0.148 HD
ENDBRANCH  44  45
ENDBRANCH   8  44
TORSDOF 9
ENDMDL
MODEL 5
REMARK VINA RESULT:      -5.6      2.747     10.517
REMARK  Name = 
REMARK  17 active torsions:
REMARK  status: ('A' for Active; 'I' for Inactive)
REMARK    1  A    between atoms: C_1  and  O_2
REMARK    2  A    between atoms: O_2  and  C_3
REMARK    3  A    between atoms: C_6  and  C_8
REMARK    4  A    between atoms: C_11  and  N_12
REMARK    5  A    between atoms: N_12  and  C_13
REMARK    6  A    between atoms: C_13  and  C_14
REMARK    7  A    between atoms: C_14  and  N_15
REMARK    8  A    between atoms: N_15  and  C_16
REMARK    9  A    between atoms: N_15  and  C_17
REMARK   10  A    between atoms: C_25  and  C_26
REMARK   11  A    between atoms: C_30  and  O_32
REMARK   12  A    between atoms: O_32  and  C_33
REMARK   13  A    between atoms: C_34  and  O_36
REMARK   14  A    between atoms: O_36  and  C_37
REMARK   15  A    between atoms: C_40  and  C_41
REMARK   16  A    between atoms: C_43  and  C_45
REMARK   17  A    between atoms: C_46  and  O_48
REMARK                            x       y       z     vdW  Elec       q    Type
REMARK                         _______ _______ _______ _____ _____    ______ ____
ROOT
ATOM      1  C   UNL     1       6.213  -4.206  23.293  0.00  0.00    +0.147 C 
ATOM      2  C   UNL     1       6.832  -2.422  23.063  0.00  0.00    +0.150 C 
ATOM      3  C   UNL     1       8.346  -1.307  22.808  0.00  0.00    +0.040 C 
ATOM      4  C   UNL     1       9.327  -1.476  21.595  0.00  0.00    +0.014 C 
ATOM      5  C   UNL     1       8.409   0.466  22.716  0.00  0.00    -0.019 C 
ATOM      6  C   UNL     1       9.382   1.377  23.182  0.00  0.00    -0.033 C 
ATOM      7  C   UNL     1      10.516   0.945  24.083  0.00  0.00    +0.042 C 
ATOM      8  C   UNL     1       9.412   3.085  23.158  0.00  0.00    +0.236 C 
ATOM      9  C   UNL     1       8.099   3.608  23.858  0.00  0.00    +0.186 C 
ATOM     10  C   UNL     1       7.704   2.575  24.878  0.00  0.00    +0.008 C 
ATOM     11  C   UNL     1       6.585   1.858  24.760  0.00  0.00    -0.001 C 
ATOM     12  C   UNL     1       6.440   0.580  25.411  0.00  0.00    +0.008 C 
ATOM     13  C   UNL     1       5.262   0.173  25.892  0.00  0.00    +0.012 C 
ATOM     14  C   UNL     1       4.086   1.097  26.005  0.00  0.00    +0.049 C 
ATOM     15  C   UNL     1       5.100  -1.223  26.428  0.00  0.00    +0.244 C 
ATOM     16  O   UNL     1       5.991  -2.062  26.406  0.00  0.00    -0.270 OA
ATOM     17  N   UNL     1       3.808  -1.408  26.867  0.00  0.00    -0.279 N 
ATOM     18  H   UNL     1       3.104  -0.779  26.535  0.00  0.00    +0.155 HD
ATOM     19  C   UNL     1       3.316  -2.358  27.692  0.00  0.00    +0.085 C 
ATOM     20  C   UNL     1       4.163  -3.378  28.284  0.00  0.00    +0.205 C 
ATOM     21  O   UNL     1       5.216  -3.201  28.868  0.00  0.00    -0.286 OA
ATOM     22  C   UNL     1       3.572  -4.697  28.114  0.00  0.00    +0.026 C 
ATOM     23  C   UNL     1       2.321  -4.840  28.603  0.00  0.00    +0.081 C 
ATOM     24  C   UNL     1       1.525  -3.543  28.747  0.00  0.00    +0.202 C 
ATOM     25  O   UNL     1       0.458  -3.526  29.368  0.00  0.00    -0.286 OA
ATOM     26  C   UNL     1       4.483  -5.585  27.289  0.00  0.00    +0.044 C 
ATOM     27  C   UNL     1       4.242  -5.309  25.698  0.00  0.00    -0.007 C 
ATOM     28  C   UNL     1       3.039  -6.335  25.438  0.00  0.00    +0.008 C 
ATOM     29  C   UNL     1       2.036  -2.393  28.037  0.00  0.00    +0.080 C 
ATOM     30  C   UNL     1       5.657  -5.274  24.686  0.00  0.00    +0.037 C 
ENDROOT
BRANCH   1  32
ATOM     31  C   UNL     1       6.378  -5.619  21.222  0.00  0.00    +0.194 C 
ATOM     32  O   UNL     1       6.993  -5.102  22.421  0.00  0.00    -0.377 OA
ENDBRANCH   1  32
BRANCH   2  33
ATOM     33  O   UNL     1       6.029  -1.991  21.914  0.00  0.00    -0.389 OA
ATOM     34  H   UNL     1       5.197  -1.630  22.262  0.00  0.00    +0.210 HD
ENDBRANCH   2  33
BRANCH   9  35
ATOM     35  O   UNL     1       8.178   4.869  24.530  0.00  0.00    -0.372 OA
ATOM     36  C   UNL     1       7.304   5.834  23.930  0.00  0.00    +0.195 C 
ENDBRANCH   9  35
BRANCH  23  37
ATOM     37  N   UNL     1       1.646  -6.025  28.874  0.00  0.00    -0.339 N 
ATOM     38  H   UNL     1       1.135  -5.914  29.756  0.00  0.00    +0.146 HD
BRANCH  37  39
ATOM     39  C   UNL     1       2.491  -7.235  29.086  0.00  0.00    +0.117 C 
BRANCH  39  40
ATOM     40  C   UNL     1       1.913  -8.138  30.203  0.00  0.00    +0.102 C 
BRANCH  40  41
ATOM     41  N   UNL     1       0.756  -8.945  29.772  0.00  0.00    -0.307 NA
ATOM     42  C   UNL     1       0.738 -10.228  30.468  0.00  0.00    +0.104 C 
ATOM     43  C   UNL     1       0.757  -9.143  28.322  0.00  0.00    +0.104 C 
ENDBRANCH  40  41
ENDBRANCH  39  40
ENDBRANCH  37  39
ENDBRANCH  23  37
BRANCH   8  44
ATOM     44  O   UNL     1      10.619   3.563  23.923  0.00  0.00    -0.440 OA
BRANCH  44  45
ATOM     45  C   UNL     1      11.497   4.517  23.511  0.00  0.00    +0.398 C 
ATOM     46  O   UNL     1      12.716   4.458  23.507  0.00  0.00    -0.227 OA
ATOM     47  N   UNL     1      10.827   5.642  23.115  0.00  0.00    -0.295 N 
ATOM     48  H   UNL     1      11.333   6.458  22.793  0.00  0.00    +0.148 HD
ATOM     49  H   UNL     1       9.820   5.669  23.128  0.00  0.00    +0.148 HD
ENDBRANCH  44  45
ENDBRANCH   8  44
TORSDOF 9
ENDMDL
MODEL 6
REMARK VINA RESULT:      -5.3      2.567     10.904
REMARK  Name = 
REMARK  17 active torsions:
REMARK  status: ('A' for Active; 'I' for Inactive)
REMARK    1  A    between atoms: C_1  and  O_2
REMARK    2  A    between atoms: O_2  and  C_3
REMARK    3  A    between atoms: C_6  and  C_8
REMARK    4  A    between atoms: C_11  and  N_12
REMARK    5  A    between atoms: N_12  and  C_13
REMARK    6  A    between atoms: C_13  and  C_14
REMARK    7  A    between atoms: C_14  and  N_15
REMARK    8  A    between atoms: N_15  and  C_16
REMARK    9  A    between atoms: N_15  and  C_17
REMARK   10  A    between atoms: C_25  and  C_26
REMARK   11  A    between atoms: C_30  and  O_32
REMARK   12  A    between atoms: O_32  and  C_33
REMARK   13  A    between atoms: C_34  and  O_36
REMARK   14  A    between atoms: O_36  and  C_37
REMARK   15  A    between atoms: C_40  and  C_41
REMARK   16  A    between atoms: C_43  and  C_45
REMARK   17  A    between atoms: C_46  and  O_48
REMARK                            x       y       z     vdW  Elec       q    Type
REMARK                         _______ _______ _______ _____ _____    ______ ____
ROOT
ATOM      1  C   UNL     1       4.189  -0.640  29.349  0.00  0.00    +0.147 C 
ATOM      2  C   UNL     1       5.397   0.435  28.347  0.00  0.00    +0.150 C 
ATOM      3  C   UNL     1       5.733   2.153  27.617  0.00  0.00    +0.040 C 
ATOM      4  C   UNL     1       5.795   3.451  28.498  0.00  0.00    +0.014 C 
ATOM      5  C   UNL     1       7.098   2.677  26.608  0.00  0.00    -0.019 C 
ATOM      6  C   UNL     1       7.150   3.588  25.531  0.00  0.00    -0.033 C 
ATOM      7  C   UNL     1       5.897   4.149  24.897  0.00  0.00    +0.042 C 
ATOM      8  C   UNL     1       8.445   4.040  24.513  0.00  0.00    +0.236 C 
ATOM      9  C   UNL     1       9.047   2.731  23.874  0.00  0.00    +0.186 C 
ATOM     10  C   UNL     1       7.922   1.736  23.770  0.00  0.00    +0.008 C 
ATOM     11  C   UNL     1       7.907   0.609  24.483  0.00  0.00    -0.001 C 
ATOM     12  C   UNL     1       6.675  -0.081  24.772  0.00  0.00    +0.008 C 
ATOM     13  C   UNL     1       6.622  -1.414  24.842  0.00  0.00    +0.012 C 
ATOM     14  C   UNL     1       7.763  -2.280  24.396  0.00  0.00    +0.049 C 
ATOM     15  C   UNL     1       5.365  -2.103  25.294  0.00  0.00    +0.244 C 
ATOM     16  O   UNL     1       4.364  -1.505  25.667  0.00  0.00    -0.270 OA
ATOM     17  N   UNL     1       5.549  -3.468  25.283  0.00  0.00    -0.279 N 
ATOM     18  H   UNL     1       6.488  -3.814  25.280  0.00  0.00    +0.155 HD
ATOM     19  C   UNL     1       4.626  -4.453  25.296  0.00  0.00    +0.085 C 
ATOM     20  C   UNL     1       3.201  -4.173  25.307  0.00  0.00    +0.205 C 
ATOM     21  O   UNL     1       2.603  -3.415  24.568  0.00  0.00    -0.286 OA
ATOM     22  C   UNL     1       2.533  -4.956  26.336  0.00  0.00    +0.026 C 
ATOM     23  C   UNL     1       2.707  -6.294  26.253  0.00  0.00    +0.081 C 
ATOM     24  C   UNL     1       3.956  -6.741  25.493  0.00  0.00    +0.202 C 
ATOM     25  O   UNL     1       4.109  -7.926  25.179  0.00  0.00    -0.286 OA
ATOM     26  C   UNL     1       1.885  -4.045  27.360  0.00  0.00    +0.044 C 
ATOM     27  C   UNL     1       2.987  -3.585  28.474  0.00  0.00    -0.007 C 
ATOM     28  C   UNL     1       2.843  -4.807  29.500  0.00  0.00    +0.008 C 
ATOM     29  C   UNL     1       4.966  -5.735  25.265  0.00  0.00    +0.080 C 
ATOM     30  C   UNL     1       2.920  -1.929  29.003  0.00  0.00    +0.037 C 
ENDROOT
BRANCH   1  32
ATOM     31  C   UNL     1       2.927   1.396  30.108  0.00  0.00    +0.194 C 
ATOM     32  O   UNL     1       3.615   0.171  30.438  0.00  0.00    -0.377 OA
ENDBRANCH   1  32
BRANCH   2  33
ATOM     33  O   UNL     1       6.633   0.263  29.118  0.00  0.00    -0.389 OA
ATOM     34  H   UNL     1       6.536  -0.549  29.642  0.00  0.00    +0.210 HD
ENDBRANCH   2  33
BRANCH   9  35
ATOM     35  O   UNL     1       9.637   2.851  22.576  0.00  0.00    -0.372 OA
ATOM     36  C   UNL     1       9.808   1.568  21.961  0.00  0.00    +0.195 C 
ENDBRANCH   9  35
BRANCH  23  37
ATOM     37  N   UNL     1       1.957  -7.287  26.871  0.00  0.00    -0.339 N 
ATOM     38  H   UNL     1       2.471  -8.172  26.804  0.00  0.00    +0.146 HD
BRANCH  37  39
ATOM     39  C   UNL     1       0.627  -7.585  26.268  0.00  0.00    +0.117 C 
BRANCH  39  40
ATOM     40  C   UNL     1       0.443  -6.852  24.918  0.00  0.00    +0.102 C 
BRANCH  40  41
ATOM     41  N   UNL     1       0.514  -7.744  23.746  0.00  0.00    -0.307 NA
ATOM     42  C   UNL     1       0.832  -9.108  24.157  0.00  0.00    +0.104 C 
ATOM     43  C   UNL     1       1.488  -7.259  22.767  0.00  0.00    +0.104 C 
ENDBRANCH  40  41
ENDBRANCH  39  40
ENDBRANCH  37  39
ENDBRANCH  23  37
BRANCH   8  44
ATOM     44  O   UNL     1       7.920   4.941  23.424  0.00  0.00    -0.440 OA
BRANCH  44  45
ATOM     45  C   UNL     1       8.532   6.059  22.952  0.00  0.00    +0.398 C 
ATOM     46  O   UNL     1       9.453   6.679  23.461  0.00  0.00    -0.227 OA
ATOM     47  N   UNL     1       7.942   6.471  21.788  0.00  0.00    -0.295 N 
ATOM     48  H   UNL     1       8.267   7.303  21.311  0.00  0.00    +0.148 HD
ATOM     49  H   UNL     1       7.182   5.946  21.386  0.00  0.00    +0.148 HD
ENDBRANCH  44  45
ENDBRANCH   8  44
TORSDOF 9
ENDMDL
MODEL 7
REMARK VINA RESULT:      -5.1      2.258      3.036
REMARK  Name = 
REMARK  17 active torsions:
REMARK  status: ('A' for Active; 'I' for Inactive)
REMARK    1  A    between atoms: C_1  and  O_2
REMARK    2  A    between atoms: O_2  and  C_3
REMARK    3  A    between atoms: C_6  and  C_8
REMARK    4  A    between atoms: C_11  and  N_12
REMARK    5  A    between atoms: N_12  and  C_13
REMARK    6  A    between atoms: C_13  and  C_14
REMARK    7  A    between atoms: C_14  and  N_15
REMARK    8  A    between atoms: N_15  and  C_16
REMARK    9  A    between atoms: N_15  and  C_17
REMARK   10  A    between atoms: C_25  and  C_26
REMARK   11  A    between atoms: C_30  and  O_32
REMARK   12  A    between atoms: O_32  and  C_33
REMARK   13  A    between atoms: C_34  and  O_36
REMARK   14  A    between atoms: O_36  and  C_37
REMARK   15  A    between atoms: C_40  and  C_41
REMARK   16  A    between atoms: C_43  and  C_45
REMARK   17  A    between atoms: C_46  and  O_48
REMARK                            x       y       z     vdW  Elec       q    Type
REMARK                         _______ _______ _______ _____ _____    ______ ____
ROOT
ATOM      1  C   UNL     1       8.511  -1.191  24.146  0.00  0.00    +0.147 C 
ATOM      2  C   UNL     1       7.535  -2.159  25.460  0.00  0.00    +0.150 C 
ATOM      3  C   UNL     1       6.579  -3.752  25.848  0.00  0.00    +0.040 C 
ATOM      4  C   UNL     1       7.222  -5.178  25.722  0.00  0.00    +0.014 C 
ATOM      5  C   UNL     1       5.715  -4.187  27.338  0.00  0.00    -0.019 C 
ATOM      6  C   UNL     1       4.517  -4.909  27.529  0.00  0.00    -0.033 C 
ATOM      7  C   UNL     1       3.613  -5.279  26.376  0.00  0.00    +0.042 C 
ATOM      8  C   UNL     1       3.646  -5.268  28.955  0.00  0.00    +0.236 C 
ATOM      9  C   UNL     1       3.342  -3.910  29.698  0.00  0.00    +0.186 C 
ATOM     10  C   UNL     1       3.240  -2.844  28.640  0.00  0.00    +0.008 C 
ATOM     11  C   UNL     1       4.127  -1.851  28.551  0.00  0.00    -0.001 C 
ATOM     12  C   UNL     1       4.339  -1.143  27.314  0.00  0.00    +0.008 C 
ATOM     13  C   UNL     1       4.629   0.161  27.298  0.00  0.00    +0.012 C 
ATOM     14  C   UNL     1       4.517   1.016  28.525  0.00  0.00    +0.049 C 
ATOM     15  C   UNL     1       4.996   0.843  26.009  0.00  0.00    +0.244 C 
ATOM     16  O   UNL     1       5.104   0.256  24.941  0.00  0.00    -0.270 OA
ATOM     17  N   UNL     1       5.248   2.177  26.242  0.00  0.00    -0.279 N 
ATOM     18  H   UNL     1       5.449   2.460  27.180  0.00  0.00    +0.155 HD
ATOM     19  C   UNL     1       5.291   3.202  25.364  0.00  0.00    +0.085 C 
ATOM     20  C   UNL     1       5.036   3.013  23.946  0.00  0.00    +0.205 C 
ATOM     21  O   UNL     1       4.095   2.426  23.448  0.00  0.00    -0.286 OA
ATOM     22  C   UNL     1       6.071   3.657  23.150  0.00  0.00    +0.026 C 
ATOM     23  C   UNL     1       6.247   4.976  23.383  0.00  0.00    +0.081 C 
ATOM     24  C   UNL     1       5.774   5.464  24.752  0.00  0.00    +0.202 C 
ATOM     25  O   UNL     1       5.697   6.673  24.996  0.00  0.00    -0.286 OA
ATOM     26  C   UNL     1       6.812   2.632  22.314  0.00  0.00    +0.044 C 
ATOM     27  C   UNL     1       7.985   1.927  23.205  0.00  0.00    -0.007 C 
ATOM     28  C   UNL     1       9.171   2.970  22.942  0.00  0.00    +0.008 C 
ATOM     29  C   UNL     1       5.533   4.448  25.750  0.00  0.00    +0.080 C 
ATOM     30  C   UNL     1       8.203   0.213  22.996  0.00  0.00    +0.037 C 
ENDROOT
BRANCH   1  32
ATOM     31  C   UNL     1      10.510  -1.632  22.688  0.00  0.00    +0.194 C 
ATOM     32  O   UNL     1       9.344  -2.133  23.375  0.00  0.00    -0.377 OA
ENDBRANCH   1  32
BRANCH   2  33
ATOM     33  O   UNL     1       8.503  -2.195  26.561  0.00  0.00    -0.389 OA
ATOM     34  H   UNL     1       9.329  -1.804  26.232  0.00  0.00    +0.210 HD
ENDBRANCH   2  33
BRANCH   9  35
ATOM     35  O   UNL     1       2.147  -3.852  30.484  0.00  0.00    -0.372 OA
ATOM     36  C   UNL     1       1.152  -3.032  29.858  0.00  0.00    +0.195 C 
ENDBRANCH   9  35
BRANCH  23  37
ATOM     37  N   UNL     1       6.906   5.899  22.579  0.00  0.00    -0.339 N 
ATOM     38  H   UNL     1       7.502   5.389  21.919  0.00  0.00    +0.146 HD
BRANCH  37  39
ATOM     39  C   UNL     1       7.836   6.836  23.271  0.00  0.00    +0.117 C 
BRANCH  39  40
ATOM     40  C   UNL     1       9.240   6.208  23.448  0.00  0.00    +0.102 C 
BRANCH  40  41
ATOM     41  N   UNL     1      10.020   6.806  24.548  0.00  0.00    -0.307 NA
ATOM     42  C   UNL     1      11.412   6.370  24.485  0.00  0.00    +0.104 C 
ATOM     43  C   UNL     1       9.435   6.483  25.851  0.00  0.00    +0.104 C 
ENDBRANCH  40  41
ENDBRANCH  39  40
ENDBRANCH  37  39
ENDBRANCH  23  37
BRANCH   8  44
ATOM     44  O   UNL     1       2.351  -5.942  28.579  0.00  0.00    -0.440 OA
BRANCH  44  45
ATOM     45  C   UNL     1       1.937  -7.164  29.008  0.00  0.00    +0.398 C 
ATOM     46  O   UNL     1       0.799  -7.607  29.014  0.00  0.00    -0.227 OA
ATOM     47  N   UNL     1       2.993  -7.879  29.504  0.00  0.00    -0.295 N 
ATOM     48  H   UNL     1       2.855  -8.808  29.882  0.00  0.00    +0.148 HD
ATOM     49  H   UNL     1       3.923  -7.493  29.491  0.00  0.00    +0.148 HD
ENDBRANCH  44  45
ENDBRANCH   8  44
TORSDOF 9
ENDMDL
MODEL 8
REMARK VINA RESULT:      -4.7      1.512      2.001
REMARK  Name = 
REMARK  17 active torsions:
REMARK  status: ('A' for Active; 'I' for Inactive)
REMARK    1  A    between atoms: C_1  and  O_2
REMARK    2  A    between atoms: O_2  and  C_3
REMARK    3  A    between atoms: C_6  and  C_8
REMARK    4  A    between atoms: C_11  and  N_12
REMARK    5  A    between atoms: N_12  and  C_13
REMARK    6  A    between atoms: C_13  and  C_14
REMARK    7  A    between atoms: C_14  and  N_15
REMARK    8  A    between atoms: N_15  and  C_16
REMARK    9  A    between atoms: N_15  and  C_17
REMARK   10  A    between atoms: C_25  and  C_26
REMARK   11  A    between atoms: C_30  and  O_32
REMARK   12  A    between atoms: O_32  and  C_33
REMARK   13  A    between atoms: C_34  and  O_36
REMARK   14  A    between atoms: O_36  and  C_37
REMARK   15  A    between atoms: C_40  and  C_41
REMARK   16  A    between atoms: C_43  and  C_45
REMARK   17  A    between atoms: C_46  and  O_48
REMARK                            x       y       z     vdW  Elec       q    Type
REMARK                         _______ _______ _______ _____ _____    ______ ____
ROOT
ATOM      1  C   UNL     1       7.590  -1.481  23.496  0.00  0.00    +0.147 C 
ATOM      2  C   UNL     1       6.740  -3.103  24.009  0.00  0.00    +0.150 C 
ATOM      3  C   UNL     1       5.778  -4.627  23.415  0.00  0.00    +0.040 C 
ATOM      4  C   UNL     1       6.348  -5.625  22.347  0.00  0.00    +0.014 C 
ATOM      5  C   UNL     1       5.079  -5.940  24.386  0.00  0.00    -0.019 C 
ATOM      6  C   UNL     1       3.886  -6.675  24.216  0.00  0.00    -0.033 C 
ATOM      7  C   UNL     1       2.840  -6.279  23.199  0.00  0.00    +0.042 C 
ATOM      8  C   UNL     1       3.176  -7.889  25.186  0.00  0.00    +0.236 C 
ATOM      9  C   UNL     1       3.011  -7.316  26.646  0.00  0.00    +0.186 C 
ATOM     10  C   UNL     1       2.826  -5.828  26.514  0.00  0.00    +0.008 C 
ATOM     11  C   UNL     1       3.732  -4.961  26.969  0.00  0.00    -0.001 C 
ATOM     12  C   UNL     1       3.823  -3.623  26.439  0.00  0.00    +0.008 C 
ATOM     13  C   UNL     1       4.157  -2.588  27.214  0.00  0.00    +0.012 C 
ATOM     14  C   UNL     1       4.223  -2.700  28.708  0.00  0.00    +0.049 C 
ATOM     15  C   UNL     1       4.396  -1.231  26.610  0.00  0.00    +0.244 C 
ATOM     16  O   UNL     1       4.356  -1.011  25.407  0.00  0.00    -0.270 OA
ATOM     17  N   UNL     1       4.723  -0.330  27.599  0.00  0.00    -0.279 N 
ATOM     18  H   UNL     1       5.042  -0.691  28.476  0.00  0.00    +0.155 HD
ATOM     19  C   UNL     1       4.700   1.019  27.564  0.00  0.00    +0.085 C 
ATOM     20  C   UNL     1       4.274   1.752  26.384  0.00  0.00    +0.205 C 
ATOM     21  O   UNL     1       3.259   1.566  25.739  0.00  0.00    -0.286 OA
ATOM     22  C   UNL     1       5.231   2.799  26.058  0.00  0.00    +0.026 C 
ATOM     23  C   UNL     1       5.482   3.685  27.047  0.00  0.00    +0.081 C 
ATOM     24  C   UNL     1       5.192   3.182  28.461  0.00  0.00    +0.202 C 
ATOM     25  O   UNL     1       5.188   3.964  29.417  0.00  0.00    -0.286 OA
ATOM     26  C   UNL     1       5.830   2.562  24.686  0.00  0.00    +0.044 C 
ATOM     27  C   UNL     1       7.073   1.508  24.794  0.00  0.00    -0.007 C 
ATOM     28  C   UNL     1       8.258   2.537  25.112  0.00  0.00    +0.008 C 
ATOM     29  C   UNL     1       5.032   1.755  28.616  0.00  0.00    +0.080 C 
ATOM     30  C   UNL     1       7.202   0.319  23.530  0.00  0.00    +0.037 C 
ENDROOT
BRANCH   1  32
ATOM     31  C   UNL     1       9.729  -1.564  22.178  0.00  0.00    +0.194 C 
ATOM     32  O   UNL     1       8.291  -1.690  22.216  0.00  0.00    -0.377 OA
ENDBRANCH   1  32
BRANCH   2  33
ATOM     33  O   UNL     1       7.829  -3.778  24.723  0.00  0.00    -0.389 OA
ATOM     34  H   UNL     1       8.024  -3.252  25.515  0.00  0.00    +0.210 HD
ENDBRANCH   2  33
BRANCH   9  35
ATOM     35  O   UNL     1       1.920  -7.819  27.424  0.00  0.00    -0.372 OA
ATOM     36  C   UNL     1       1.840  -7.160  28.694  0.00  0.00    +0.195 C 
ENDBRANCH   9  35
BRANCH  23  37
ATOM     37  N   UNL     1       6.076   4.937  26.934  0.00  0.00    -0.339 N 
ATOM     38  H   UNL     1       6.133   5.182  25.940  0.00  0.00    +0.146 HD
BRANCH  37  39
ATOM     39  C   UNL     1       7.478   5.053  27.425  0.00  0.00    +0.117 C 
BRANCH  39  40
ATOM     40  C   UNL     1       7.858   6.527  27.706  0.00  0.00    +0.102 C 
BRANCH  40  41
ATOM     41  N   UNL     1       7.333   7.039  28.985  0.00  0.00    -0.307 NA
ATOM     42  C   UNL     1       7.801   6.218  30.098  0.00  0.00    +0.104 C 
ATOM     43  C   UNL     1       5.870   7.106  28.971  0.00  0.00    +0.104 C 
ENDBRANCH  40  41
ENDBRANCH  39  40
ENDBRANCH  37  39
ENDBRANCH  23  37
BRANCH   8  44
ATOM     44  O   UNL     1       1.822  -8.236  24.621  0.00  0.00    -0.440 OA
BRANCH  44  45
ATOM     45  C   UNL     1       1.306  -9.488  24.501  0.00  0.00    +0.398 C 
ATOM     46  O   UNL     1       0.445  -9.870  23.725  0.00  0.00    -0.227 OA
ATOM     47  N   UNL     1       1.859 -10.323  25.433  0.00  0.00    -0.295 N 
ATOM     48  H   UNL     1       1.573 -11.292  25.493  0.00  0.00    +0.148 HD
ATOM     49  H   UNL     1       2.567  -9.986  26.066  0.00  0.00    +0.148 HD
ENDBRANCH  44  45
ENDBRANCH   8  44
TORSDOF 9
ENDMDL
MODEL 9
REMARK VINA RESULT:      -4.1      2.743     10.820
REMARK  Name = 
REMARK  17 active torsions:
REMARK  status: ('A' for Active; 'I' for Inactive)
REMARK    1  A    between atoms: C_1  and  O_2
REMARK    2  A    between atoms: O_2  and  C_3
REMARK    3  A    between atoms: C_6  and  C_8
REMARK    4  A    between atoms: C_11  and  N_12
REMARK    5  A    between atoms: N_12  and  C_13
REMARK    6  A    between atoms: C_13  and  C_14
REMARK    7  A    between atoms: C_14  and  N_15
REMARK    8  A    between atoms: N_15  and  C_16
REMARK    9  A    between atoms: N_15  and  C_17
REMARK   10  A    between atoms: C_25  and  C_26
REMARK   11  A    between atoms: C_30  and  O_32
REMARK   12  A    between atoms: O_32  and  C_33
REMARK   13  A    between atoms: C_34  and  O_36
REMARK   14  A    between atoms: O_36  and  C_37
REMARK   15  A    between atoms: C_40  and  C_41
REMARK   16  A    between atoms: C_43  and  C_45
REMARK   17  A    between atoms: C_46  and  O_48
REMARK                            x       y       z     vdW  Elec       q    Type
REMARK                         _______ _______ _______ _____ _____    ______ ____
ROOT
ATOM      1  C   UNL     1       4.082   0.346  29.029  0.00  0.00    +0.147 C 
ATOM      2  C   UNL     1       4.918   1.860  28.236  0.00  0.00    +0.150 C 
ATOM      3  C   UNL     1       4.654   3.562  27.442  0.00  0.00    +0.040 C 
ATOM      4  C   UNL     1       3.928   4.740  28.184  0.00  0.00    +0.014 C 
ATOM      5  C   UNL     1       5.865   4.651  26.731  0.00  0.00    -0.019 C 
ATOM      6  C   UNL     1       5.787   5.508  25.613  0.00  0.00    -0.033 C 
ATOM      7  C   UNL     1       4.618   5.471  24.655  0.00  0.00    +0.042 C 
ATOM      8  C   UNL     1       6.971   6.502  24.885  0.00  0.00    +0.236 C 
ATOM      9  C   UNL     1       8.217   5.602  24.532  0.00  0.00    +0.186 C 
ATOM     10  C   UNL     1       7.695   4.216  24.265  0.00  0.00    +0.008 C 
ATOM     11  C   UNL     1       7.988   3.186  25.061  0.00  0.00    -0.001 C 
ATOM     12  C   UNL     1       7.144   2.019  25.121  0.00  0.00    +0.008 C 
ATOM     13  C   UNL     1       7.654   0.798  25.305  0.00  0.00    +0.012 C 
ATOM     14  C   UNL     1       9.128   0.531  25.220  0.00  0.00    +0.049 C 
ATOM     15  C   UNL     1       6.747  -0.382  25.517  0.00  0.00    +0.244 C 
ATOM     16  O   UNL     1       5.529  -0.292  25.588  0.00  0.00    -0.270 OA
ATOM     17  N   UNL     1       7.497  -1.526  25.680  0.00  0.00    -0.279 N 
ATOM     18  H   UNL     1       8.461  -1.423  25.928  0.00  0.00    +0.155 HD
ATOM     19  C   UNL     1       7.117  -2.817  25.573  0.00  0.00    +0.085 C 
ATOM     20  C   UNL     1       5.758  -3.194  25.226  0.00  0.00    +0.205 C 
ATOM     21  O   UNL     1       5.098  -2.764  24.299  0.00  0.00    -0.286 OA
ATOM     22  C   UNL     1       5.258  -4.207  26.142  0.00  0.00    +0.026 C 
ATOM     23  C   UNL     1       6.005  -5.330  26.231  0.00  0.00    +0.081 C 
ATOM     24  C   UNL     1       7.471  -5.169  25.828  0.00  0.00    +0.202 C 
ATOM     25  O   UNL     1       8.192  -6.160  25.673  0.00  0.00    -0.286 OA
ATOM     26  C   UNL     1       4.048  -3.692  26.896  0.00  0.00    +0.044 C 
ATOM     27  C   UNL     1       4.526  -2.812  28.186  0.00  0.00    -0.007 C 
ATOM     28  C   UNL     1       4.670  -3.990  29.263  0.00  0.00    +0.008 C 
ATOM     29  C   UNL     1       7.971  -3.817  25.745  0.00  0.00    +0.080 C 
ATOM     30  C   UNL     1       3.623  -1.364  28.523  0.00  0.00    +0.037 C 
ENDROOT
BRANCH   1  32
ATOM     31  C   UNL     1       1.781   1.334  29.234  0.00  0.00    +0.194 C 
ATOM     32  O   UNL     1       2.962   0.803  29.871  0.00  0.00    -0.377 OA
ENDBRANCH   1  32
BRANCH   2  33
ATOM     33  O   UNL     1       5.871   2.238  29.285  0.00  0.00    -0.389 OA
ATOM     34  H   UNL     1       5.952   1.480  29.888  0.00  0.00    +0.210 HD
ENDBRANCH   2  33
BRANCH   9  35
ATOM     35  O   UNL     1       9.002   5.992  23.400  0.00  0.00    -0.372 OA
ATOM     36  C   UNL     1      10.356   6.271  23.778  0.00  0.00    +0.195 C 
ENDBRANCH   9  35
BRANCH  23  37
ATOM     37  N   UNL     1       5.628  -6.563  26.751  0.00  0.00    -0.339 N 
ATOM     38  H   UNL     1       6.329  -7.259  26.478  0.00  0.00    +0.146 HD
BRANCH  37  39
ATOM     39  C   UNL     1       4.337  -7.123  26.257  0.00  0.00    +0.117 C 
BRANCH  39  40
ATOM     40  C   UNL     1       4.204  -6.963  24.724  0.00  0.00    +0.102 C 
BRANCH  40  41
ATOM     41  N   UNL     1       2.856  -6.553  24.287  0.00  0.00    -0.307 NA
ATOM     42  C   UNL     1       2.153  -7.674  23.671  0.00  0.00    +0.104 C 
ATOM     43  C   UNL     1       2.919  -5.415  23.368  0.00  0.00    +0.104 C 
ENDBRANCH  40  41
ENDBRANCH  39  40
ENDBRANCH  37  39
ENDBRANCH  23  37
BRANCH   8  44
ATOM     44  O   UNL     1       6.401   7.097  23.623  0.00  0.00    -0.440 OA
BRANCH  44  45
ATOM     45  C   UNL     1       6.348   6.487  22.408  0.00  0.00    +0.398 C 
ATOM     46  O   UNL     1       5.699   5.502  22.095  0.00  0.00    -0.227 OA
ATOM     47  N   UNL     1       7.189   7.108  21.526  0.00  0.00    -0.295 N 
ATOM     48  H   UNL     1       7.284   6.768  20.577  0.00  0.00    +0.148 HD
ATOM     49  H   UNL     1       7.718   7.919  21.806  0.00  0.00    +0.148 HD
ENDBRANCH  44  45
ENDBRANCH   8  44
TORSDOF 9
ENDMDL
