MODEL 1
REMARK VINA RESULT:      -6.1      0.000      0.000
REMARK  Name = 
REMARK  8 active torsions:
REMARK  status: ('A' for Active; 'I' for Inactive)
REMARK    1  A    between atoms: O_1  and  C_2
REMARK    2  A    between atoms: C_2  and  C_3
REMARK    3  A    between atoms: C_3  and  N_4
REMARK    4  A    between atoms: N_4  and  C_5
REMARK    5  A    between atoms: C_5  and  C_6
REMARK    6  A    between atoms: C_6  and  O_7
REMARK    7  A    between atoms: C_10  and  C_19
REMARK    8  A    between atoms: C_11  and  C_13
REMARK                            x       y       z     vdW  Elec       q    Type
REMARK                         _______ _______ _______ _____ _____    ______ ____
ROOT
ATOM      1  N   UNL     1       9.566  -0.086  23.858  0.00  0.00    -0.281 N 
ATOM      2  C   UNL     1       8.754  -1.114  24.193  0.00  0.00    +0.291 A 
ATOM      3  O   UNL     1       8.344  -1.934  23.186  0.00  0.00    -0.424 OA
ATOM      4  C   UNL     1       7.601  -2.910  23.786  0.00  0.00    +0.165 A 
ATOM      5  C   UNL     1       7.565  -2.614  25.139  0.00  0.00    +0.119 A 
ATOM      6  N   UNL     1       8.287  -1.455  25.375  0.00  0.00    -0.195 NA
ENDROOT
BRANCH   4   7
ATOM      7  C   UNL     1       7.152  -3.959  22.885  0.00  0.00    +0.020 A 
ATOM      8  C   UNL     1       7.594  -5.279  23.035  0.00  0.00    +0.011 A 
ATOM      9  C   UNL     1       7.164  -6.279  22.158  0.00  0.00    +0.001 A 
ATOM     10  C   UNL     1       6.303  -5.965  21.111  0.00  0.00    +0.000 A 
ATOM     11  C   UNL     1       5.869  -4.654  20.939  0.00  0.00    +0.001 A 
ATOM     12  C   UNL     1       6.288  -3.656  21.820  0.00  0.00    +0.011 A 
ENDBRANCH   4   7
BRANCH   5  13
ATOM     13  C   UNL     1       6.928  -3.372  26.205  0.00  0.00    +0.004 A 
ATOM     14  C   UNL     1       7.502  -4.582  26.623  0.00  0.00    +0.010 A 
ATOM     15  C   UNL     1       6.903  -5.348  27.628  0.00  0.00    +0.001 A 
ATOM     16  C   UNL     1       5.721  -4.913  28.227  0.00  0.00    +0.000 A 
ATOM     17  C   UNL     1       5.147  -3.710  27.829  0.00  0.00    +0.001 A 
ATOM     18  C   UNL     1       5.755  -2.936  26.835  0.00  0.00    +0.010 A 
ENDBRANCH   5  13
BRANCH   1  19
ATOM     19  C   UNL     1       9.881   0.945  24.846  0.00  0.00    +0.137 C 
BRANCH  19  20
ATOM     20  C   UNL     1       8.854   2.086  24.883  0.00  0.00    +0.175 C 
BRANCH  20  21
ATOM     21  O   UNL     1       9.362   3.260  24.245  0.00  0.00    -0.393 OA
ATOM     22  H   UNL     1       8.634   3.625  23.717  0.00  0.00    +0.209 HD
ENDBRANCH  20  21
ENDBRANCH  19  20
ENDBRANCH   1  19
BRANCH   1  23
ATOM     23  C   UNL     1      10.168  -0.008  22.523  0.00  0.00    +0.137 C 
BRANCH  23  24
ATOM     24  C   UNL     1       9.392   0.911  21.568  0.00  0.00    +0.175 C 
BRANCH  24  25
ATOM     25  O   UNL     1       9.949   2.220  21.494  0.00  0.00    -0.393 OA
ATOM     26  H   UNL     1      10.046   2.493  22.429  0.00  0.00    +0.209 HD
ENDBRANCH  24  25
ENDBRANCH  23  24
ENDBRANCH   1  23
TORSDOF 8
ENDMDL
MODEL 2
REMARK VINA RESULT:      -5.9      3.842      8.581
REMARK  Name = 
REMARK  8 active torsions:
REMARK  status: ('A' for Active; 'I' for Inactive)
REMARK    1  A    between atoms: O_1  and  C_2
REMARK    2  A    between atoms: C_2  and  C_3
REMARK    3  A    between atoms: C_3  and  N_4
REMARK    4  A    between atoms: N_4  and  C_5
REMARK    5  A    between atoms: C_5  and  C_6
REMARK    6  A    between atoms: C_6  and  O_7
REMARK    7  A    between atoms: C_10  and  C_19
REMARK    8  A    between atoms: C_11  and  C_13
REMARK                            x       y       z     vdW  Elec       q    Type
REMARK                         _______ _______ _______ _____ _____    ______ ____
ROOT
ATOM      1  N   UNL     1       8.161   0.128  23.392  0.00  0.00    -0.281 N 
ATOM      2  C   UNL     1       8.490   1.438  23.350  0.00  0.00    +0.291 A 
ATOM      3  O   UNL     1       7.520   2.309  22.955  0.00  0.00    -0.424 OA
ATOM      4  C   UNL     1       8.077   3.552  23.060  0.00  0.00    +0.165 A 
ATOM      5  C   UNL     1       9.384   3.372  23.484  0.00  0.00    +0.119 A 
ATOM      6  N   UNL     1       9.634   2.019  23.643  0.00  0.00    -0.195 NA
ENDROOT
BRANCH   4   7
ATOM      7  C   UNL     1       7.159   4.645  22.781  0.00  0.00    +0.020 A 
ATOM      8  C   UNL     1       7.591   5.800  22.119  0.00  0.00    +0.011 A 
ATOM      9  C   UNL     1       6.705   6.849  21.863  0.00  0.00    +0.001 A 
ATOM     10  C   UNL     1       5.381   6.761  22.283  0.00  0.00    +0.000 A 
ATOM     11  C   UNL     1       4.941   5.625  22.958  0.00  0.00    +0.001 A 
ATOM     12  C   UNL     1       5.823   4.572  23.205  0.00  0.00    +0.011 A 
ENDBRANCH   4   7
BRANCH   5  13
ATOM     13  C   UNL     1      10.378   4.393  23.777  0.00  0.00    +0.004 A 
ATOM     14  C   UNL     1      10.017   5.497  24.563  0.00  0.00    +0.010 A 
ATOM     15  C   UNL     1      10.941   6.509  24.844  0.00  0.00    +0.001 A 
ATOM     16  C   UNL     1      12.238   6.429  24.340  0.00  0.00    +0.000 A 
ATOM     17  C   UNL     1      12.614   5.334  23.568  0.00  0.00    +0.001 A 
ATOM     18  C   UNL     1      11.694   4.314  23.301  0.00  0.00    +0.010 A 
ENDBRANCH   5  13
BRANCH   1  19
ATOM     19  C   UNL     1       9.200  -0.878  23.610  0.00  0.00    +0.137 C 
BRANCH  19  20
ATOM     20  C   UNL     1       9.274  -1.929  22.493  0.00  0.00    +0.175 C 
BRANCH  20  21
ATOM     21  O   UNL     1      10.083  -1.472  21.406  0.00  0.00    -0.393 OA
ATOM     22  H   UNL     1       9.694  -0.635  21.105  0.00  0.00    +0.209 HD
ENDBRANCH  20  21
ENDBRANCH  19  20
ENDBRANCH   1  19
BRANCH   1  23
ATOM     23  C   UNL     1       6.765  -0.301  23.255  0.00  0.00    +0.137 C 
BRANCH  23  24
ATOM     24  C   UNL     1       5.938  -0.066  24.529  0.00  0.00    +0.175 C 
BRANCH  24  25
ATOM     25  O   UNL     1       5.100   1.082  24.434  0.00  0.00    -0.393 OA
ATOM     26  H   UNL     1       4.204   0.741  24.625  0.00  0.00    +0.209 HD
ENDBRANCH  24  25
ENDBRANCH  23  24
ENDBRANCH   1  23
TORSDOF 8
ENDMDL
MODEL 3
REMARK VINA RESULT:      -5.9      1.987      2.424
REMARK  Name = 
REMARK  8 active torsions:
REMARK  status: ('A' for Active; 'I' for Inactive)
REMARK    1  A    between atoms: O_1  and  C_2
REMARK    2  A    between atoms: C_2  and  C_3
REMARK    3  A    between atoms: C_3  and  N_4
REMARK    4  A    between atoms: N_4  and  C_5
REMARK    5  A    between atoms: C_5  and  C_6
REMARK    6  A    between atoms: C_6  and  O_7
REMARK    7  A    between atoms: C_10  and  C_19
REMARK    8  A    between atoms: C_11  and  C_13
REMARK                            x       y       z     vdW  Elec       q    Type
REMARK                         _______ _______ _______ _____ _____    ______ ____
ROOT
ATOM      1  N   UNL     1       7.601   1.062  22.728  0.00  0.00    -0.281 N 
ATOM      2  C   UNL     1       6.990  -0.036  23.226  0.00  0.00    +0.291 A 
ATOM      3  O   UNL     1       7.189  -1.210  22.564  0.00  0.00    -0.424 OA
ATOM      4  C   UNL     1       6.530  -2.159  23.293  0.00  0.00    +0.165 A 
ATOM      5  C   UNL     1       5.927  -1.504  24.354  0.00  0.00    +0.119 A 
ATOM      6  N   UNL     1       6.214  -0.151  24.283  0.00  0.00    -0.195 NA
ENDROOT
BRANCH   4   7
ATOM      7  C   UNL     1       6.708  -3.518  22.805  0.00  0.00    +0.020 A 
ATOM      8  C   UNL     1       6.031  -3.972  21.667  0.00  0.00    +0.011 A 
ATOM      9  C   UNL     1       6.200  -5.281  21.212  0.00  0.00    +0.001 A 
ATOM     10  C   UNL     1       7.034  -6.157  21.900  0.00  0.00    +0.000 A 
ATOM     11  C   UNL     1       7.701  -5.725  23.044  0.00  0.00    +0.001 A 
ATOM     12  C   UNL     1       7.541  -4.414  23.495  0.00  0.00    +0.011 A 
ENDBRANCH   4   7
BRANCH   5  13
ATOM     13  C   UNL     1       5.141  -2.083  25.433  0.00  0.00    +0.004 A 
ATOM     14  C   UNL     1       4.127  -3.002  25.126  0.00  0.00    +0.010 A 
ATOM     15  C   UNL     1       3.336  -3.559  26.137  0.00  0.00    +0.001 A 
ATOM     16  C   UNL     1       3.550  -3.202  27.467  0.00  0.00    +0.000 A 
ATOM     17  C   UNL     1       4.560  -2.299  27.787  0.00  0.00    +0.001 A 
ATOM     18  C   UNL     1       5.361  -1.755  26.778  0.00  0.00    +0.010 A 
ENDBRANCH   5  13
BRANCH   1  19
ATOM     19  C   UNL     1       7.274   2.383  23.264  0.00  0.00    +0.137 C 
BRANCH  19  20
ATOM     20  C   UNL     1       6.965   3.421  22.176  0.00  0.00    +0.175 C 
BRANCH  20  21
ATOM     21  O   UNL     1       8.005   4.397  22.082  0.00  0.00    -0.393 OA
ATOM     22  H   UNL     1       7.585   5.221  21.786  0.00  0.00    +0.209 HD
ENDBRANCH  20  21
ENDBRANCH  19  20
ENDBRANCH   1  19
BRANCH   1  23
ATOM     23  C   UNL     1       8.617   0.946  21.677  0.00  0.00    +0.137 C 
BRANCH  23  24
ATOM     24  C   UNL     1      10.035   1.261  22.176  0.00  0.00    +0.175 C 
BRANCH  24  25
ATOM     25  O   UNL     1      10.495   2.539  21.746  0.00  0.00    -0.393 OA
ATOM     26  H   UNL     1       9.758   3.144  21.963  0.00  0.00    +0.209 HD
ENDBRANCH  24  25
ENDBRANCH  23  24
ENDBRANCH   1  23
TORSDOF 8
ENDMDL
MODEL 4
REMARK VINA RESULT:      -5.8      2.955      6.324
REMARK  Name = 
REMARK  8 active torsions:
REMARK  status: ('A' for Active; 'I' for Inactive)
REMARK    1  A    between atoms: O_1  and  C_2
REMARK    2  A    between atoms: C_2  and  C_3
REMARK    3  A    between atoms: C_3  and  N_4
REMARK    4  A    between atoms: N_4  and  C_5
REMARK    5  A    between atoms: C_5  and  C_6
REMARK    6  A    between atoms: C_6  and  O_7
REMARK    7  A    between atoms: C_10  and  C_19
REMARK    8  A    between atoms: C_11  and  C_13
REMARK                            x       y       z     vdW  Elec       q    Type
REMARK                         _______ _______ _______ _____ _____    ______ ____
ROOT
ATOM      1  N   UNL     1       7.352  -4.044  25.062  0.00  0.00    -0.281 N 
ATOM      2  C   UNL     1       7.179  -2.704  25.012  0.00  0.00    +0.291 A 
ATOM      3  O   UNL     1       8.170  -1.973  24.430  0.00  0.00    -0.424 OA
ATOM      4  C   UNL     1       7.730  -0.679  24.448  0.00  0.00    +0.165 A 
ATOM      5  C   UNL     1       6.497  -0.683  25.079  0.00  0.00    +0.119 A 
ATOM      6  N   UNL     1       6.172  -1.977  25.449  0.00  0.00    -0.195 NA
ENDROOT
BRANCH   4   7
ATOM      7  C   UNL     1       8.608   0.260  23.769  0.00  0.00    +0.020 A 
ATOM      8  C   UNL     1       9.377   1.182  24.491  0.00  0.00    +0.011 A 
ATOM      9  C   UNL     1      10.211   2.087  23.830  0.00  0.00    +0.001 A 
ATOM     10  C   UNL     1      10.270   2.094  22.440  0.00  0.00    +0.000 A 
ATOM     11  C   UNL     1       9.499   1.195  21.708  0.00  0.00    +0.001 A 
ATOM     12  C   UNL     1       8.673   0.282  22.367  0.00  0.00    +0.011 A 
ENDBRANCH   4   7
BRANCH   5  13
ATOM     13  C   UNL     1       5.608   0.446  25.312  0.00  0.00    +0.004 A 
ATOM     14  C   UNL     1       4.802   0.458  26.460  0.00  0.00    +0.010 A 
ATOM     15  C   UNL     1       3.919   1.515  26.703  0.00  0.00    +0.001 A 
ATOM     16  C   UNL     1       3.830   2.572  25.799  0.00  0.00    +0.000 A 
ATOM     17  C   UNL     1       4.631   2.578  24.661  0.00  0.00    +0.001 A 
ATOM     18  C   UNL     1       5.526   1.529  24.427  0.00  0.00    +0.010 A 
ENDBRANCH   5  13
BRANCH   1  19
ATOM     19  C   UNL     1       6.432  -4.868  25.845  0.00  0.00    +0.137 C 
BRANCH  19  20
ATOM     20  C   UNL     1       6.774  -4.907  27.341  0.00  0.00    +0.175 C 
BRANCH  20  21
ATOM     21  O   UNL     1       7.693  -5.962  27.634  0.00  0.00    -0.393 OA
ATOM     22  H   UNL     1       8.326  -5.990  26.898  0.00  0.00    +0.209 HD
ENDBRANCH  20  21
ENDBRANCH  19  20
ENDBRANCH   1  19
BRANCH   1  23
ATOM     23  C   UNL     1       8.432  -4.691  24.310  0.00  0.00    +0.137 C 
BRANCH  23  24
ATOM     24  C   UNL     1       9.729  -4.827  25.121  0.00  0.00    +0.175 C 
BRANCH  24  25
ATOM     25  O   UNL     1       9.935  -6.151  25.607  0.00  0.00    -0.393 OA
ATOM     26  H   UNL     1       9.084  -6.387  26.026  0.00  0.00    +0.209 HD
ENDBRANCH  24  25
ENDBRANCH  23  24
ENDBRANCH   1  23
TORSDOF 8
ENDMDL
MODEL 5
REMARK VINA RESULT:      -5.8      3.987      6.596
REMARK  Name = 
REMARK  8 active torsions:
REMARK  status: ('A' for Active; 'I' for Inactive)
REMARK    1  A    between atoms: O_1  and  C_2
REMARK    2  A    between atoms: C_2  and  C_3
REMARK    3  A    between atoms: C_3  and  N_4
REMARK    4  A    between atoms: N_4  and  C_5
REMARK    5  A    between atoms: C_5  and  C_6
REMARK    6  A    between atoms: C_6  and  O_7
REMARK    7  A    between atoms: C_10  and  C_19
REMARK    8  A    between atoms: C_11  and  C_13
REMARK                            x       y       z     vdW  Elec       q    Type
REMARK                         _______ _______ _______ _____ _____    ______ ____
ROOT
ATOM      1  N   UNL     1      11.019   5.133  23.796  0.00  0.00    -0.281 N 
ATOM      2  C   UNL     1      10.357   3.955  23.851  0.00  0.00    +0.291 A 
ATOM      3  O   UNL     1       9.056   3.993  24.256  0.00  0.00    -0.424 OA
ATOM      4  C   UNL     1       8.605   2.707  24.163  0.00  0.00    +0.165 A 
ATOM      5  C   UNL     1       9.674   1.936  23.737  0.00  0.00    +0.119 A 
ATOM      6  N   UNL     1      10.785   2.744  23.564  0.00  0.00    -0.195 NA
ENDROOT
BRANCH   4   7
ATOM      7  C   UNL     1       7.189   2.548  24.455  0.00  0.00    +0.020 A 
ATOM      8  C   UNL     1       6.758   1.782  25.544  0.00  0.00    +0.011 A 
ATOM      9  C   UNL     1       5.395   1.626  25.810  0.00  0.00    +0.001 A 
ATOM     10  C   UNL     1       4.449   2.219  24.979  0.00  0.00    +0.000 A 
ATOM     11  C   UNL     1       4.864   2.970  23.882  0.00  0.00    +0.001 A 
ATOM     12  C   UNL     1       6.225   3.135  23.620  0.00  0.00    +0.011 A 
ENDBRANCH   4   7
BRANCH   5  13
ATOM     13  C   UNL     1       9.691   0.508  23.454  0.00  0.00    +0.004 A 
ATOM     14  C   UNL     1       9.708  -0.402  24.520  0.00  0.00    +0.010 A 
ATOM     15  C   UNL     1       9.749  -1.780  24.283  0.00  0.00    +0.001 A 
ATOM     16  C   UNL     1       9.776  -2.263  22.976  0.00  0.00    +0.000 A 
ATOM     17  C   UNL     1       9.749  -1.371  21.909  0.00  0.00    +0.001 A 
ATOM     18  C   UNL     1       9.691   0.006  22.146  0.00  0.00    +0.010 A 
ENDBRANCH   5  13
BRANCH   1  19
ATOM     19  C   UNL     1      12.463   5.146  23.566  0.00  0.00    +0.137 C 
BRANCH  19  20
ATOM     20  C   UNL     1      12.848   5.564  22.139  0.00  0.00    +0.175 C 
BRANCH  20  21
ATOM     21  O   UNL     1      14.211   5.988  22.075  0.00  0.00    -0.393 OA
ATOM     22  H   UNL     1      14.211   6.945  22.237  0.00  0.00    +0.209 HD
ENDBRANCH  20  21
ENDBRANCH  19  20
ENDBRANCH   1  19
BRANCH   1  23
ATOM     23  C   UNL     1      10.301   6.405  23.928  0.00  0.00    +0.137 C 
BRANCH  23  24
ATOM     24  C   UNL     1      10.359   6.981  25.352  0.00  0.00    +0.175 C 
BRANCH  24  25
ATOM     25  O   UNL     1       9.560   6.245  26.273  0.00  0.00    -0.393 OA
ATOM     26  H   UNL     1       9.508   6.823  27.060  0.00  0.00    +0.209 HD
ENDBRANCH  24  25
ENDBRANCH  23  24
ENDBRANCH   1  23
TORSDOF 8
ENDMDL
MODEL 6
REMARK VINA RESULT:      -5.7      4.744      8.136
REMARK  Name = 
REMARK  8 active torsions:
REMARK  status: ('A' for Active; 'I' for Inactive)
REMARK    1  A    between atoms: O_1  and  C_2
REMARK    2  A    between atoms: C_2  and  C_3
REMARK    3  A    between atoms: C_3  and  N_4
REMARK    4  A    between atoms: N_4  and  C_5
REMARK    5  A    between atoms: C_5  and  C_6
REMARK    6  A    between atoms: C_6  and  O_7
REMARK    7  A    between atoms: C_10  and  C_19
REMARK    8  A    between atoms: C_11  and  C_13
REMARK                            x       y       z     vdW  Elec       q    Type
REMARK                         _______ _______ _______ _____ _____    ______ ____
ROOT
ATOM      1  N   UNL     1       5.503   4.889  22.905  0.00  0.00    -0.281 N 
ATOM      2  C   UNL     1       6.679   4.241  23.067  0.00  0.00    +0.291 A 
ATOM      3  O   UNL     1       7.801   5.008  23.165  0.00  0.00    -0.424 OA
ATOM      4  C   UNL     1       8.826   4.132  23.385  0.00  0.00    +0.165 A 
ATOM      5  C   UNL     1       8.278   2.860  23.374  0.00  0.00    +0.119 A 
ATOM      6  N   UNL     1       6.914   2.949  23.150  0.00  0.00    -0.195 NA
ENDROOT
BRANCH   4   7
ATOM      7  C   UNL     1      10.112   4.766  23.626  0.00  0.00    +0.020 A 
ATOM      8  C   UNL     1      11.296   4.212  23.124  0.00  0.00    +0.011 A 
ATOM      9  C   UNL     1      12.529   4.823  23.369  0.00  0.00    +0.001 A 
ATOM     10  C   UNL     1      12.593   5.983  24.134  0.00  0.00    +0.000 A 
ATOM     11  C   UNL     1      11.426   6.536  24.655  0.00  0.00    +0.001 A 
ATOM     12  C   UNL     1      10.192   5.933  24.403  0.00  0.00    +0.011 A 
ENDBRANCH   4   7
BRANCH   5  13
ATOM     13  C   UNL     1       8.955   1.591  23.598  0.00  0.00    +0.004 A 
ATOM     14  C   UNL     1       8.934   1.019  24.877  0.00  0.00    +0.010 A 
ATOM     15  C   UNL     1       9.595  -0.187  25.132  0.00  0.00    +0.001 A 
ATOM     16  C   UNL     1      10.286  -0.834  24.110  0.00  0.00    +0.000 A 
ATOM     17  C   UNL     1      10.306  -0.283  22.832  0.00  0.00    +0.001 A 
ATOM     18  C   UNL     1       9.631   0.915  22.574  0.00  0.00    +0.010 A 
ENDBRANCH   5  13
BRANCH   1  19
ATOM     19  C   UNL     1       4.292   4.132  22.593  0.00  0.00    +0.137 C 
BRANCH  19  20
ATOM     20  C   UNL     1       3.582   3.580  23.838  0.00  0.00    +0.175 C 
BRANCH  20  21
ATOM     21  O   UNL     1       3.980   2.234  24.107  0.00  0.00    -0.393 OA
ATOM     22  H   UNL     1       4.399   2.239  24.982  0.00  0.00    +0.209 HD
ENDBRANCH  20  21
ENDBRANCH  19  20
ENDBRANCH   1  19
BRANCH   1  23
ATOM     23  C   UNL     1       5.417   6.343  23.074  0.00  0.00    +0.137 C 
BRANCH  23  24
ATOM     24  C   UNL     1       5.522   7.108  21.745  0.00  0.00    +0.175 C 
BRANCH  24  25
ATOM     25  O   UNL     1       6.791   6.946  21.119  0.00  0.00    -0.393 OA
ATOM     26  H   UNL     1       6.905   7.763  20.593  0.00  0.00    +0.209 HD
ENDBRANCH  24  25
ENDBRANCH  23  24
ENDBRANCH   1  23
TORSDOF 8
ENDMDL
MODEL 7
REMARK VINA RESULT:      -5.6      2.879      7.192
REMARK  Name = 
REMARK  8 active torsions:
REMARK  status: ('A' for Active; 'I' for Inactive)
REMARK    1  A    between atoms: O_1  and  C_2
REMARK    2  A    between atoms: C_2  and  C_3
REMARK    3  A    between atoms: C_3  and  N_4
REMARK    4  A    between atoms: N_4  and  C_5
REMARK    5  A    between atoms: C_5  and  C_6
REMARK    6  A    between atoms: C_6  and  O_7
REMARK    7  A    between atoms: C_10  and  C_19
REMARK    8  A    between atoms: C_11  and  C_13
REMARK                            x       y       z     vdW  Elec       q    Type
REMARK                         _______ _______ _______ _____ _____    ______ ____
ROOT
ATOM      1  N   UNL     1       6.957  -4.859  23.879  0.00  0.00    -0.281 N 
ATOM      2  C   UNL     1       7.224  -3.538  23.981  0.00  0.00    +0.291 A 
ATOM      3  O   UNL     1       6.570  -2.847  24.957  0.00  0.00    -0.424 OA
ATOM      4  C   UNL     1       7.056  -1.572  24.892  0.00  0.00    +0.165 A 
ATOM      5  C   UNL     1       7.964  -1.540  23.847  0.00  0.00    +0.119 A 
ATOM      6  N   UNL     1       8.042  -2.795  23.266  0.00  0.00    -0.195 NA
ENDROOT
BRANCH   4   7
ATOM      7  C   UNL     1       6.556  -0.688  25.933  0.00  0.00    +0.020 A 
ATOM      8  C   UNL     1       5.247  -0.194  25.895  0.00  0.00    +0.011 A 
ATOM      9  C   UNL     1       4.778   0.662  26.894  0.00  0.00    +0.001 A 
ATOM     10  C   UNL     1       5.620   1.049  27.933  0.00  0.00    +0.000 A 
ATOM     11  C   UNL     1       6.930   0.579  27.975  0.00  0.00    +0.001 A 
ATOM     12  C   UNL     1       7.397  -0.285  26.983  0.00  0.00    +0.011 A 
ENDBRANCH   4   7
BRANCH   5  13
ATOM     13  C   UNL     1       8.776  -0.418  23.399  0.00  0.00    +0.004 A 
ATOM     14  C   UNL     1       9.766   0.094  24.250  0.00  0.00    +0.010 A 
ATOM     15  C   UNL     1      10.547   1.187  23.861  0.00  0.00    +0.001 A 
ATOM     16  C   UNL     1      10.345   1.782  22.617  0.00  0.00    +0.000 A 
ATOM     17  C   UNL     1       9.373   1.277  21.758  0.00  0.00    +0.001 A 
ATOM     18  C   UNL     1       8.604   0.174  22.141  0.00  0.00    +0.010 A 
ENDBRANCH   5  13
BRANCH   1  19
ATOM     19  C   UNL     1       7.464  -5.618  22.736  0.00  0.00    +0.137 C 
BRANCH  19  20
ATOM     20  C   UNL     1       6.659  -5.389  21.449  0.00  0.00    +0.175 C 
BRANCH  20  21
ATOM     21  O   UNL     1       5.664  -6.401  21.274  0.00  0.00    -0.393 OA
ATOM     22  H   UNL     1       4.820  -6.010  21.551  0.00  0.00    +0.209 HD
ENDBRANCH  20  21
ENDBRANCH  19  20
ENDBRANCH   1  19
BRANCH   1  23
ATOM     23  C   UNL     1       6.192  -5.554  24.919  0.00  0.00    +0.137 C 
BRANCH  23  24
ATOM     24  C   UNL     1       4.771  -5.930  24.470  0.00  0.00    +0.175 C 
BRANCH  24  25
ATOM     25  O   UNL     1       4.689  -7.262  23.972  0.00  0.00    -0.393 OA
ATOM     26  H   UNL     1       3.997  -7.681  24.521  0.00  0.00    +0.209 HD
ENDBRANCH  24  25
ENDBRANCH  23  24
ENDBRANCH   1  23
TORSDOF 8
ENDMDL
MODEL 8
REMARK VINA RESULT:      -5.6      3.637      8.573
REMARK  Name = 
REMARK  8 active torsions:
REMARK  status: ('A' for Active; 'I' for Inactive)
REMARK    1  A    between atoms: O_1  and  C_2
REMARK    2  A    between atoms: C_2  and  C_3
REMARK    3  A    between atoms: C_3  and  N_4
REMARK    4  A    between atoms: N_4  and  C_5
REMARK    5  A    between atoms: C_5  and  C_6
REMARK    6  A    between atoms: C_6  and  O_7
REMARK    7  A    between atoms: C_10  and  C_19
REMARK    8  A    between atoms: C_11  and  C_13
REMARK                            x       y       z     vdW  Elec       q    Type
REMARK                         _______ _______ _______ _____ _____    ______ ____
ROOT
ATOM      1  N   UNL     1       8.286   0.046  23.633  0.00  0.00    -0.281 N 
ATOM      2  C   UNL     1       8.201   1.394  23.563  0.00  0.00    +0.291 A 
ATOM      3  O   UNL     1       9.329   2.101  23.853  0.00  0.00    -0.424 OA
ATOM      4  C   UNL     1       9.003   3.412  23.648  0.00  0.00    +0.165 A 
ATOM      5  C   UNL     1       7.669   3.441  23.274  0.00  0.00    +0.119 A 
ATOM      6  N   UNL     1       7.171   2.149  23.246  0.00  0.00    -0.195 NA
ENDROOT
BRANCH   4   7
ATOM      7  C   UNL     1      10.114   4.337  23.804  0.00  0.00    +0.020 A 
ATOM      8  C   UNL     1      11.385   4.030  23.302  0.00  0.00    +0.011 A 
ATOM      9  C   UNL     1      12.450   4.920  23.465  0.00  0.00    +0.001 A 
ATOM     10  C   UNL     1      12.259   6.118  24.148  0.00  0.00    +0.000 A 
ATOM     11  C   UNL     1      11.006   6.428  24.668  0.00  0.00    +0.001 A 
ATOM     12  C   UNL     1       9.938   5.545  24.498  0.00  0.00    +0.011 A 
ENDBRANCH   4   7
BRANCH   5  13
ATOM     13  C   UNL     1       6.865   4.599  22.913  0.00  0.00    +0.004 A 
ATOM     14  C   UNL     1       7.425   5.595  22.100  0.00  0.00    +0.010 A 
ATOM     15  C   UNL     1       6.688   6.733  21.753  0.00  0.00    +0.001 A 
ATOM     16  C   UNL     1       5.384   6.888  22.218  0.00  0.00    +0.000 A 
ATOM     17  C   UNL     1       4.812   5.902  23.017  0.00  0.00    +0.001 A 
ATOM     18  C   UNL     1       5.543   4.757  23.349  0.00  0.00    +0.010 A 
ENDBRANCH   5  13
BRANCH   1  19
ATOM     19  C   UNL     1       7.073  -0.765  23.533  0.00  0.00    +0.137 C 
BRANCH  19  20
ATOM     20  C   UNL     1       7.351  -2.276  23.529  0.00  0.00    +0.175 C 
BRANCH  20  21
ATOM     21  O   UNL     1       7.441  -2.781  22.195  0.00  0.00    -0.393 OA
ATOM     22  H   UNL     1       6.712  -3.414  22.090  0.00  0.00    +0.209 HD
ENDBRANCH  20  21
ENDBRANCH  19  20
ENDBRANCH   1  19
BRANCH   1  23
ATOM     23  C   UNL     1       9.585  -0.619  23.775  0.00  0.00    +0.137 C 
BRANCH  23  24
ATOM     24  C   UNL     1      10.404  -0.618  22.475  0.00  0.00    +0.175 C 
BRANCH  24  25
ATOM     25  O   UNL     1      10.011  -1.654  21.579  0.00  0.00    -0.393 OA
ATOM     26  H   UNL     1       9.147  -1.955  21.926  0.00  0.00    +0.209 HD
ENDBRANCH  24  25
ENDBRANCH  23  24
ENDBRANCH   1  23
TORSDOF 8
ENDMDL
MODEL 9
REMARK VINA RESULT:      -5.5      1.079      4.280
REMARK  Name = 
REMARK  8 active torsions:
REMARK  status: ('A' for Active; 'I' for Inactive)
REMARK    1  A    between atoms: O_1  and  C_2
REMARK    2  A    between atoms: C_2  and  C_3
REMARK    3  A    between atoms: C_3  and  N_4
REMARK    4  A    between atoms: N_4  and  C_5
REMARK    5  A    between atoms: C_5  and  C_6
REMARK    6  A    between atoms: C_6  and  O_7
REMARK    7  A    between atoms: C_10  and  C_19
REMARK    8  A    between atoms: C_11  and  C_13
REMARK                            x       y       z     vdW  Elec       q    Type
REMARK                         _______ _______ _______ _____ _____    ______ ____
ROOT
ATOM      1  N   UNL     1       9.363  -0.134  24.031  0.00  0.00    -0.281 N 
ATOM      2  C   UNL     1       8.569  -1.224  24.125  0.00  0.00    +0.291 A 
ATOM      3  O   UNL     1       7.944  -1.435  25.317  0.00  0.00    -0.424 OA
ATOM      4  C   UNL     1       7.166  -2.543  25.133  0.00  0.00    +0.165 A 
ATOM      5  C   UNL     1       7.386  -2.977  23.836  0.00  0.00    +0.119 A 
ATOM      6  N   UNL     1       8.297  -2.137  23.217  0.00  0.00    -0.195 NA
ENDROOT
BRANCH   4   7
ATOM      7  C   UNL     1       6.325  -2.878  26.271  0.00  0.00    +0.020 A 
ATOM      8  C   UNL     1       6.451  -4.111  26.923  0.00  0.00    +0.011 A 
ATOM      9  C   UNL     1       5.632  -4.429  28.010  0.00  0.00    +0.001 A 
ATOM     10  C   UNL     1       4.666  -3.526  28.443  0.00  0.00    +0.000 A 
ATOM     11  C   UNL     1       4.518  -2.303  27.793  0.00  0.00    +0.001 A 
ATOM     12  C   UNL     1       5.342  -1.979  26.714  0.00  0.00    +0.011 A 
ENDBRANCH   4   7
BRANCH   5  13
ATOM     13  C   UNL     1       6.763  -4.100  23.150  0.00  0.00    +0.004 A 
ATOM     14  C   UNL     1       7.533  -4.885  22.281  0.00  0.00    +0.010 A 
ATOM     15  C   UNL     1       6.961  -5.956  21.588  0.00  0.00    +0.001 A 
ATOM     16  C   UNL     1       5.610  -6.254  21.755  0.00  0.00    +0.000 A 
ATOM     17  C   UNL     1       4.836  -5.489  22.623  0.00  0.00    +0.001 A 
ATOM     18  C   UNL     1       5.413  -4.428  23.328  0.00  0.00    +0.010 A 
ENDBRANCH   5  13
BRANCH   1  19
ATOM     19  C   UNL     1      10.218   0.046  22.858  0.00  0.00    +0.137 C 
BRANCH  19  20
ATOM     20  C   UNL     1       9.519   0.779  21.703  0.00  0.00    +0.175 C 
BRANCH  20  21
ATOM     21  O   UNL     1      10.014   2.113  21.563  0.00  0.00    -0.393 OA
ATOM     22  H   UNL     1      10.393   2.358  22.423  0.00  0.00    +0.209 HD
ENDBRANCH  20  21
ENDBRANCH  19  20
ENDBRANCH   1  19
BRANCH   1  23
ATOM     23  C   UNL     1       9.354   0.895  25.076  0.00  0.00    +0.137 C 
BRANCH  23  24
ATOM     24  C   UNL     1       8.433   2.079  24.745  0.00  0.00    +0.175 C 
BRANCH  24  25
ATOM     25  O   UNL     1       9.147   3.206  24.247  0.00  0.00    -0.393 OA
ATOM     26  H   UNL     1       9.648   2.855  23.484  0.00  0.00    +0.209 HD
ENDBRANCH  24  25
ENDBRANCH  23  24
ENDBRANCH   1  23
TORSDOF 8
ENDMDL
