MODEL 1
REMARK VINA RESULT:      -7.9      0.000      0.000
REMARK  Name = 
REMARK  16 active torsions:
REMARK  status: ('A' for Active; 'I' for Inactive)
REMARK    1  A    between atoms: N_10  and  C_11
REMARK    2  A    between atoms: C_14  and  C_16
REMARK    3  A    between atoms: C_16  and  O_17
REMARK    4  A    between atoms: C_18  and  O_20
REMARK    5  A    between atoms: O_20  and  P_21
REMARK    6  A    between atoms: P_21  and  O_22
REMARK    7  A    between atoms: P_21  and  O_24
REMARK    8  A    between atoms: O_24  and  C_25
REMARK    9  A    between atoms: C_25  and  C_26
REMARK   10  A    between atoms: C_29  and  N_41
REMARK   11  A    between atoms: C_31  and  O_33
REMARK   12  A    between atoms: C_34  and  O_36
REMARK   13  A    between atoms: O_36  and  P_37
REMARK   14  A    between atoms: P_37  and  O_38
REMARK   15  A    between atoms: P_37  and  O_39
REMARK   16  A    between atoms: C_49  and  O_51
REMARK                            x       y       z     vdW  Elec       q    Type
REMARK                         _______ _______ _______ _____ _____    ______ ____
ROOT
ATOM      1  P   UNL     1       5.806  -1.450  25.886  0.00  0.00    +0.475 P 
ATOM      2  O   UNL     1       6.098  -0.530  27.069  0.00  0.00    -0.227 OA
ENDROOT
BRANCH   1   3
ATOM      3  O   UNL     1       4.194  -1.437  25.621  0.00  0.00    -0.302 OA
ATOM      4  H   UNL     1       3.704  -1.448  26.461  0.00  0.00    +0.222 HD
ENDBRANCH   1   3
BRANCH   1   5
ATOM      5  O   UNL     1       6.120  -0.157  24.782  0.00  0.00    -0.284 OA
BRANCH   5   6
ATOM      6  C   UNL     1       6.828   0.977  25.276  0.00  0.00    +0.206 C 
BRANCH   6   7
ATOM      7  C   UNL     1       8.325   0.870  24.999  0.00  0.00    +0.179 C 
ATOM      8  C   UNL     1       8.656   0.342  23.607  0.00  0.00    +0.194 C 
ATOM      9  C   UNL     1       9.088   1.566  22.803  0.00  0.00    +0.196 C 
ATOM     10  C   UNL     1       8.849   2.736  23.770  0.00  0.00    +0.255 C 
ATOM     11  O   UNL     1       8.897   2.185  25.094  0.00  0.00    -0.346 OA
BRANCH  10  12
ATOM     12  N   UNL     1       9.773   3.856  23.650  0.00  0.00    -0.271 N 
ATOM     13  C   UNL     1       9.315   5.079  24.116  0.00  0.00    +0.331 A 
ATOM     14  O   UNL     1       8.156   5.291  24.469  0.00  0.00    -0.246 OA
ATOM     15  N   UNL     1      10.260   6.070  24.210  0.00  0.00    -0.275 N 
ATOM     16  H   UNL     1       9.968   6.931  24.643  0.00  0.00    +0.173 HD
ATOM     17  C   UNL     1      11.603   5.896  24.036  0.00  0.00    +0.254 A 
ATOM     18  O   UNL     1      12.436   6.727  24.377  0.00  0.00    -0.268 OA
ATOM     19  C   UNL     1      12.011   4.618  23.433  0.00  0.00    +0.088 A 
ATOM     20  C   UNL     1      11.090   3.665  23.280  0.00  0.00    +0.098 A 
ENDBRANCH  10  12
BRANCH   9  21
ATOM     21  O   UNL     1       8.309   1.645  21.611  0.00  0.00    -0.385 OA
ATOM     22  H   UNL     1       7.917   0.758  21.462  0.00  0.00    +0.210 HD
ENDBRANCH   9  21
BRANCH   8  23
ATOM     23  O   UNL     1       9.760  -0.545  23.762  0.00  0.00    -0.278 OA
BRANCH  23  24
ATOM     24  P   UNL     1       9.726  -1.967  23.039  0.00  0.00    +0.473 P 
ATOM     25  O   UNL     1      10.396  -3.090  23.748  0.00  0.00    -0.228 OA
BRANCH  24  26
ATOM     26  O   UNL     1       8.161  -2.180  22.816  0.00  0.00    -0.303 OA
ATOM     27  H   UNL     1       7.938  -2.168  21.869  0.00  0.00    +0.222 HD
ENDBRANCH  24  26
BRANCH  24  28
ATOM     28  O   UNL     1      10.260  -1.680  21.566  0.00  0.00    -0.303 OA
ATOM     29  H   UNL     1      11.166  -1.318  21.575  0.00  0.00    +0.222 HD
ENDBRANCH  24  28
ENDBRANCH  23  24
ENDBRANCH   8  23
ENDBRANCH   6   7
ENDBRANCH   5   6
ENDBRANCH   1   5
BRANCH   1  30
ATOM     30  O   UNL     1       5.490  -2.744  26.991  0.00  0.00    -0.278 OA
BRANCH  30  33
ATOM     31  C   UNL     1       6.405  -5.354  25.012  0.00  0.00    +0.253 C 
ATOM     32  C   UNL     1       6.983  -4.006  25.466  0.00  0.00    +0.196 C 
ATOM     33  C   UNL     1       6.443  -3.796  26.885  0.00  0.00    +0.194 C 
ATOM     34  C   UNL     1       5.771  -5.120  27.229  0.00  0.00    +0.178 C 
ATOM     35  O   UNL     1       6.214  -6.086  26.246  0.00  0.00    -0.346 OA
BRANCH  31  43
ATOM     36  N   UNL     1       0.961  -6.148  22.422  0.00  0.00    -0.341 N 
ATOM     37  H   UNL     1       0.922  -5.154  22.228  0.00  0.00    +0.144 HD
ATOM     38  H   UNL     1       0.097  -6.626  22.642  0.00  0.00    +0.144 HD
ATOM     39  C   UNL     1       2.013  -6.531  23.237  0.00  0.00    +0.147 A 
ATOM     40  C   UNL     1       3.173  -5.757  23.432  0.00  0.00    +0.147 A 
ATOM     41  N   UNL     1       3.537  -4.511  22.979  0.00  0.00    -0.231 NA
ATOM     42  C   UNL     1       4.723  -4.293  23.506  0.00  0.00    +0.203 A 
ATOM     43  N   UNL     1       5.158  -5.356  24.265  0.00  0.00    -0.286 N 
ATOM     44  C   UNL     1       4.160  -6.300  24.245  0.00  0.00    +0.167 A 
ATOM     45  N   UNL     1       4.110  -7.491  24.876  0.00  0.00    -0.216 NA
ATOM     46  C   UNL     1       2.917  -8.094  24.680  0.00  0.00    +0.225 A 
ATOM     47  N   UNL     1       1.895  -7.698  23.905  0.00  0.00    -0.219 NA
ENDBRANCH  31  43
BRANCH  32  48
ATOM     48  O   UNL     1       8.421  -4.061  25.518  0.00  0.00    -0.385 OA
ATOM     49  H   UNL     1       8.746  -4.723  24.878  0.00  0.00    +0.210 HD
ENDBRANCH  32  48
BRANCH  34  50
ATOM     50  C   UNL     1       6.156  -5.586  28.630  0.00  0.00    +0.190 C 
BRANCH  50  51
ATOM     51  O   UNL     1       7.188  -6.563  28.570  0.00  0.00    -0.392 OA
ATOM     52  H   UNL     1       6.781  -7.415  28.810  0.00  0.00    +0.210 HD
ENDBRANCH  50  51
ENDBRANCH  34  50
ENDBRANCH  30  33
ENDBRANCH   1  30
TORSDOF 16
ENDMDL
MODEL 2
REMARK VINA RESULT:      -7.8      2.512      9.512
REMARK  Name = 
REMARK  16 active torsions:
REMARK  status: ('A' for Active; 'I' for Inactive)
REMARK    1  A    between atoms: N_10  and  C_11
REMARK    2  A    between atoms: C_14  and  C_16
REMARK    3  A    between atoms: C_16  and  O_17
REMARK    4  A    between atoms: C_18  and  O_20
REMARK    5  A    between atoms: O_20  and  P_21
REMARK    6  A    between atoms: P_21  and  O_22
REMARK    7  A    between atoms: P_21  and  O_24
REMARK    8  A    between atoms: O_24  and  C_25
REMARK    9  A    between atoms: C_25  and  C_26
REMARK   10  A    between atoms: C_29  and  N_41
REMARK   11  A    between atoms: C_31  and  O_33
REMARK   12  A    between atoms: C_34  and  O_36
REMARK   13  A    between atoms: O_36  and  P_37
REMARK   14  A    between atoms: P_37  and  O_38
REMARK   15  A    between atoms: P_37  and  O_39
REMARK   16  A    between atoms: C_49  and  O_51
REMARK                            x       y       z     vdW  Elec       q    Type
REMARK                         _______ _______ _______ _____ _____    ______ ____
ROOT
ATOM      1  P   UNL     1       6.801   1.002  26.901  0.00  0.00    +0.475 P 
ATOM      2  O   UNL     1       5.493   0.389  27.396  0.00  0.00    -0.227 OA
ENDROOT
BRANCH   1   3
ATOM      3  O   UNL     1       7.335   2.044  28.039  0.00  0.00    -0.302 OA
ATOM      4  H   UNL     1       6.618   2.626  28.341  0.00  0.00    +0.222 HD
ENDBRANCH   1   3
BRANCH   1   5
ATOM      5  O   UNL     1       7.689  -0.339  27.538  0.00  0.00    -0.284 OA
BRANCH   5   6
ATOM      6  C   UNL     1       8.622  -0.983  26.675  0.00  0.00    +0.206 C 
BRANCH   6   7
ATOM      7  C   UNL     1       7.956  -1.473  25.392  0.00  0.00    +0.179 C 
ATOM      8  C   UNL     1       8.936  -2.033  24.366  0.00  0.00    +0.194 C 
ATOM      9  C   UNL     1       8.783  -3.549  24.448  0.00  0.00    +0.196 C 
ATOM     10  C   UNL     1       7.807  -3.751  25.617  0.00  0.00    +0.255 C 
ATOM     11  O   UNL     1       7.052  -2.537  25.729  0.00  0.00    -0.346 OA
BRANCH  10  12
ATOM     12  N   UNL     1       6.914  -4.898  25.506  0.00  0.00    -0.271 N 
ATOM     13  C   UNL     1       6.650  -5.583  26.683  0.00  0.00    +0.331 A 
ATOM     14  O   UNL     1       7.232  -5.375  27.746  0.00  0.00    -0.246 OA
ATOM     15  N   UNL     1       5.642  -6.512  26.614  0.00  0.00    -0.275 N 
ATOM     16  H   UNL     1       5.368  -6.943  27.483  0.00  0.00    +0.173 HD
ATOM     17  C   UNL     1       4.804  -6.687  25.552  0.00  0.00    +0.254 A 
ATOM     18  O   UNL     1       3.764  -7.332  25.618  0.00  0.00    -0.268 OA
ATOM     19  C   UNL     1       5.204  -6.022  24.303  0.00  0.00    +0.088 A 
ATOM     20  C   UNL     1       6.222  -5.160  24.340  0.00  0.00    +0.098 A 
ENDBRANCH  10  12
BRANCH   9  21
ATOM     21  O   UNL     1      10.062  -4.141  24.668  0.00  0.00    -0.385 OA
ATOM     22  H   UNL     1       9.949  -4.827  25.360  0.00  0.00    +0.210 HD
ENDBRANCH   9  21
BRANCH   8  23
ATOM     23  O   UNL     1       8.496  -1.574  23.091  0.00  0.00    -0.278 OA
BRANCH  23  24
ATOM     24  P   UNL     1       9.472  -0.676  22.205  0.00  0.00    +0.473 P 
ATOM     25  O   UNL     1       8.828   0.304  21.290  0.00  0.00    -0.228 OA
BRANCH  24  26
ATOM     26  O   UNL     1      10.402  -0.012  23.318  0.00  0.00    -0.303 OA
ATOM     27  H   UNL     1      11.338  -0.229  23.166  0.00  0.00    +0.222 HD
ENDBRANCH  24  26
BRANCH  24  28
ATOM     28  O   UNL     1      10.448  -1.720  21.501  0.00  0.00    -0.303 OA
ATOM     29  H   UNL     1      10.569  -1.520  20.554  0.00  0.00    +0.222 HD
ENDBRANCH  24  28
ENDBRANCH  23  24
ENDBRANCH   8  23
ENDBRANCH   6   7
ENDBRANCH   5   6
ENDBRANCH   1   5
BRANCH   1  30
ATOM     30  O   UNL     1       5.914   2.343  26.263  0.00  0.00    -0.278 OA
BRANCH  30  33
ATOM     31  C   UNL     1       6.870   3.027  23.073  0.00  0.00    +0.253 C 
ATOM     32  C   UNL     1       6.693   1.797  23.974  0.00  0.00    +0.196 C 
ATOM     33  C   UNL     1       5.529   2.148  24.907  0.00  0.00    +0.194 C 
ATOM     34  C   UNL     1       4.983   3.456  24.346  0.00  0.00    +0.178 C 
ATOM     35  O   UNL     1       5.551   3.619  23.025  0.00  0.00    -0.346 OA
BRANCH  31  43
ATOM     36  N   UNL     1      11.557   6.673  24.384  0.00  0.00    -0.341 N 
ATOM     37  H   UNL     1      10.943   7.474  24.294  0.00  0.00    +0.144 HD
ATOM     38  H   UNL     1      12.521   6.775  24.094  0.00  0.00    +0.144 HD
ATOM     39  C   UNL     1      10.996   5.474  23.977  0.00  0.00    +0.147 A 
ATOM     40  C   UNL     1       9.609   5.255  23.873  0.00  0.00    +0.147 A 
ATOM     41  N   UNL     1       8.528   6.085  24.057  0.00  0.00    -0.231 NA
ATOM     42  C   UNL     1       7.479   5.336  23.795  0.00  0.00    +0.203 A 
ATOM     43  N   UNL     1       7.829   4.045  23.470  0.00  0.00    -0.286 N 
ATOM     44  C   UNL     1       9.201   3.982  23.495  0.00  0.00    +0.167 A 
ATOM     45  N   UNL     1      10.005   2.938  23.206  0.00  0.00    -0.216 NA
ATOM     46  C   UNL     1      11.307   3.299  23.259  0.00  0.00    +0.225 A 
ATOM     47  N   UNL     1      11.836   4.475  23.631  0.00  0.00    -0.219 NA
ENDBRANCH  31  43
BRANCH  32  48
ATOM     48  O   UNL     1       6.333   0.641  23.193  0.00  0.00    -0.385 OA
ATOM     49  H   UNL     1       5.364   0.605  23.092  0.00  0.00    +0.210 HD
ENDBRANCH  32  48
BRANCH  34  50
ATOM     50  C   UNL     1       3.459   3.425  24.260  0.00  0.00    +0.190 C 
BRANCH  50  51
ATOM     51  O   UNL     1       3.035   2.723  23.098  0.00  0.00    -0.392 OA
ATOM     52  H   UNL     1       2.070   2.843  23.035  0.00  0.00    +0.210 HD
ENDBRANCH  50  51
ENDBRANCH  34  50
ENDBRANCH  30  33
ENDBRANCH   1  30
TORSDOF 16
ENDMDL
MODEL 3
REMARK VINA RESULT:      -7.7      2.573      4.387
REMARK  Name = 
REMARK  16 active torsions:
REMARK  status: ('A' for Active; 'I' for Inactive)
REMARK    1  A    between atoms: N_10  and  C_11
REMARK    2  A    between atoms: C_14  and  C_16
REMARK    3  A    between atoms: C_16  and  O_17
REMARK    4  A    between atoms: C_18  and  O_20
REMARK    5  A    between atoms: O_20  and  P_21
REMARK    6  A    between atoms: P_21  and  O_22
REMARK    7  A    between atoms: P_21  and  O_24
REMARK    8  A    between atoms: O_24  and  C_25
REMARK    9  A    between atoms: C_25  and  C_26
REMARK   10  A    between atoms: C_29  and  N_41
REMARK   11  A    between atoms: C_31  and  O_33
REMARK   12  A    between atoms: C_34  and  O_36
REMARK   13  A    between atoms: O_36  and  P_37
REMARK   14  A    between atoms: P_37  and  O_38
REMARK   15  A    between atoms: P_37  and  O_39
REMARK   16  A    between atoms: C_49  and  O_51
REMARK                            x       y       z     vdW  Elec       q    Type
REMARK                         _______ _______ _______ _____ _____    ______ ____
ROOT
ATOM      1  P   UNL     1       8.234  -4.153  24.948  0.00  0.00    +0.475 P 
ATOM      2  O   UNL     1       9.696  -4.125  24.508  0.00  0.00    -0.227 OA
ENDROOT
BRANCH   1   3
ATOM      3  O   UNL     1       7.986  -5.527  25.796  0.00  0.00    -0.302 OA
ATOM      4  H   UNL     1       8.674  -5.646  26.472  0.00  0.00    +0.222 HD
ENDBRANCH   1   3
BRANCH   1   5
ATOM      5  O   UNL     1       8.621  -3.214  26.348  0.00  0.00    -0.284 OA
BRANCH   5   6
ATOM      6  C   UNL     1       7.971  -1.955  26.500  0.00  0.00    +0.206 C 
BRANCH   6   7
ATOM      7  C   UNL     1       8.713  -0.847  25.759  0.00  0.00    +0.179 C 
ATOM      8  C   UNL     1       8.249  -0.653  24.319  0.00  0.00    +0.194 C 
ATOM      9  C   UNL     1       7.385   0.605  24.340  0.00  0.00    +0.196 C 
ATOM     10  C   UNL     1       7.315   0.971  25.830  0.00  0.00    +0.255 C 
ATOM     11  O   UNL     1       8.475   0.394  26.445  0.00  0.00    -0.346 OA
BRANCH  10  12
ATOM     12  N   UNL     1       7.235   2.395  26.129  0.00  0.00    -0.271 N 
ATOM     13  C   UNL     1       6.715   2.731  27.371  0.00  0.00    +0.331 A 
ATOM     14  O   UNL     1       6.192   1.925  28.139  0.00  0.00    -0.246 OA
ATOM     15  N   UNL     1       6.852   4.047  27.735  0.00  0.00    -0.275 N 
ATOM     16  H   UNL     1       6.573   4.285  28.673  0.00  0.00    +0.173 HD
ATOM     17  C   UNL     1       7.581   4.980  27.056  0.00  0.00    +0.254 A 
ATOM     18  O   UNL     1       7.896   6.062  27.536  0.00  0.00    -0.268 OA
ATOM     19  C   UNL     1       8.006   4.599  25.702  0.00  0.00    +0.088 A 
ATOM     20  C   UNL     1       7.825   3.337  25.310  0.00  0.00    +0.098 A 
ENDBRANCH  10  12
BRANCH   9  21
ATOM     21  O   UNL     1       6.112   0.312  23.766  0.00  0.00    -0.385 OA
ATOM     22  H   UNL     1       6.003   0.901  22.989  0.00  0.00    +0.210 HD
ENDBRANCH   9  21
BRANCH   8  23
ATOM     23  O   UNL     1       9.421  -0.419  23.543  0.00  0.00    -0.278 OA
BRANCH  23  24
ATOM     24  P   UNL     1       9.405  -0.757  21.984  0.00  0.00    +0.473 P 
ATOM     25  O   UNL     1       9.313   0.400  21.054  0.00  0.00    -0.228 OA
BRANCH  24  26
ATOM     26  O   UNL     1      10.741  -1.615  21.826  0.00  0.00    -0.303 OA
ATOM     27  H   UNL     1      10.775  -2.049  20.957  0.00  0.00    +0.222 HD
ENDBRANCH  24  26
BRANCH  24  28
ATOM     28  O   UNL     1       8.258  -1.850  21.823  0.00  0.00    -0.303 OA
ATOM     29  H   UNL     1       7.972  -1.938  20.894  0.00  0.00    +0.222 HD
ENDBRANCH  24  28
ENDBRANCH  23  24
ENDBRANCH   8  23
ENDBRANCH   6   7
ENDBRANCH   5   6
ENDBRANCH   1   5
BRANCH   1  30
ATOM     30  O   UNL     1       7.846  -5.092  23.548  0.00  0.00    -0.278 OA
BRANCH  30  33
ATOM     31  C   UNL     1       4.496  -4.527  23.691  0.00  0.00    +0.253 C 
ATOM     32  C   UNL     1       5.792  -3.707  23.644  0.00  0.00    +0.196 C 
ATOM     33  C   UNL     1       6.765  -4.540  22.804  0.00  0.00    +0.194 C 
ATOM     34  C   UNL     1       5.906  -5.672  22.252  0.00  0.00    +0.178 C 
ATOM     35  O   UNL     1       4.524  -5.296  22.465  0.00  0.00    -0.346 OA
BRANCH  31  43
ATOM     36  N   UNL     1       3.860  -7.545  28.931  0.00  0.00    -0.341 N 
ATOM     37  H   UNL     1       3.184  -8.153  28.484  0.00  0.00    +0.144 HD
ATOM     38  H   UNL     1       3.725  -7.316  29.908  0.00  0.00    +0.144 HD
ATOM     39  C   UNL     1       4.239  -6.453  28.169  0.00  0.00    +0.147 A 
ATOM     40  C   UNL     1       4.087  -6.386  26.771  0.00  0.00    +0.147 A 
ATOM     41  N   UNL     1       3.527  -7.251  25.861  0.00  0.00    -0.231 NA
ATOM     42  C   UNL     1       3.649  -6.646  24.699  0.00  0.00    +0.203 A 
ATOM     43  N   UNL     1       4.289  -5.432  24.810  0.00  0.00    -0.286 N 
ATOM     44  C   UNL     1       4.559  -5.239  26.143  0.00  0.00    +0.167 A 
ATOM     45  N   UNL     1       5.136  -4.178  26.744  0.00  0.00    -0.216 NA
ATOM     46  C   UNL     1       5.144  -4.327  28.087  0.00  0.00    +0.225 A 
ATOM     47  N   UNL     1       4.749  -5.384  28.816  0.00  0.00    -0.219 NA
ENDBRANCH  31  43
BRANCH  32  48
ATOM     48  O   UNL     1       5.572  -2.444  22.987  0.00  0.00    -0.385 OA
ATOM     49  H   UNL     1       5.210  -2.599  22.095  0.00  0.00    +0.210 HD
ENDBRANCH  32  48
BRANCH  34  50
ATOM     50  C   UNL     1       6.166  -5.885  20.763  0.00  0.00    +0.190 C 
BRANCH  50  51
ATOM     51  O   UNL     1       5.787  -4.736  20.016  0.00  0.00    -0.392 OA
ATOM     52  H   UNL     1       4.820  -4.778  19.907  0.00  0.00    +0.210 HD
ENDBRANCH  50  51
ENDBRANCH  34  50
ENDBRANCH  30  33
ENDBRANCH   1  30
TORSDOF 16
ENDMDL
MODEL 4
REMARK VINA RESULT:      -7.6      2.520      4.864
REMARK  Name = 
REMARK  16 active torsions:
REMARK  status: ('A' for Active; 'I' for Inactive)
REMARK    1  A    between atoms: N_10  and  C_11
REMARK    2  A    between atoms: C_14  and  C_16
REMARK    3  A    between atoms: C_16  and  O_17
REMARK    4  A    between atoms: C_18  and  O_20
REMARK    5  A    between atoms: O_20  and  P_21
REMARK    6  A    between atoms: P_21  and  O_22
REMARK    7  A    between atoms: P_21  and  O_24
REMARK    8  A    between atoms: O_24  and  C_25
REMARK    9  A    between atoms: C_25  and  C_26
REMARK   10  A    between atoms: C_29  and  N_41
REMARK   11  A    between atoms: C_31  and  O_33
REMARK   12  A    between atoms: C_34  and  O_36
REMARK   13  A    between atoms: O_36  and  P_37
REMARK   14  A    between atoms: P_37  and  O_38
REMARK   15  A    between atoms: P_37  and  O_39
REMARK   16  A    between atoms: C_49  and  O_51
REMARK                            x       y       z     vdW  Elec       q    Type
REMARK                         _______ _______ _______ _____ _____    ______ ____
ROOT
ATOM      1  P   UNL     1       9.220  -0.821  22.835  0.00  0.00    +0.475 P 
ATOM      2  O   UNL     1       9.228  -1.665  21.564  0.00  0.00    -0.227 OA
ENDROOT
BRANCH   1   3
ATOM      3  O   UNL     1      10.435  -1.339  23.796  0.00  0.00    -0.302 OA
ATOM      4  H   UNL     1      10.147  -2.088  24.345  0.00  0.00    +0.222 HD
ENDBRANCH   1   3
BRANCH   1   5
ATOM      5  O   UNL     1      10.185   0.386  22.059  0.00  0.00    -0.284 OA
BRANCH   5   6
ATOM      6  C   UNL     1       9.736   1.737  22.128  0.00  0.00    +0.206 C 
BRANCH   6   7
ATOM      7  C   UNL     1      10.314   2.461  23.340  0.00  0.00    +0.179 C 
ATOM      8  C   UNL     1      10.672   3.919  23.072  0.00  0.00    +0.194 C 
ATOM      9  C   UNL     1       9.559   4.734  23.725  0.00  0.00    +0.196 C 
ATOM     10  C   UNL     1       8.569   3.667  24.215  0.00  0.00    +0.255 C 
ATOM     11  O   UNL     1       9.324   2.459  24.382  0.00  0.00    -0.346 OA
BRANCH  10  12
ATOM     12  N   UNL     1       7.845   3.988  25.438  0.00  0.00    -0.271 N 
ATOM     13  C   UNL     1       7.114   2.955  26.006  0.00  0.00    +0.331 A 
ATOM     14  O   UNL     1       6.928   1.865  25.466  0.00  0.00    -0.246 OA
ATOM     15  N   UNL     1       6.625   3.196  27.265  0.00  0.00    -0.275 N 
ATOM     16  H   UNL     1       6.183   2.421  27.732  0.00  0.00    +0.173 HD
ATOM     17  C   UNL     1       6.932   4.281  28.034  0.00  0.00    +0.254 A 
ATOM     18  O   UNL     1       6.694   4.341  29.234  0.00  0.00    -0.268 OA
ATOM     19  C   UNL     1       7.608   5.388  27.341  0.00  0.00    +0.088 A 
ATOM     20  C   UNL     1       8.037   5.188  26.094  0.00  0.00    +0.098 A 
ENDBRANCH  10  12
BRANCH   9  21
ATOM     21  O   UNL     1       9.001   5.627  22.762  0.00  0.00    -0.385 OA
ATOM     22  H   UNL     1       9.690   5.784  22.081  0.00  0.00    +0.210 HD
ENDBRANCH   9  21
BRANCH   8  23
ATOM     23  O   UNL     1      11.904   4.164  23.744  0.00  0.00    -0.278 OA
BRANCH  23  24
ATOM     24  P   UNL     1      12.803   5.405  23.299  0.00  0.00    +0.473 P 
ATOM     25  O   UNL     1      12.385   6.120  22.064  0.00  0.00    -0.228 OA
BRANCH  24  26
ATOM     26  O   UNL     1      12.781   6.309  24.613  0.00  0.00    -0.303 OA
ATOM     27  H   UNL     1      12.067   6.034  25.214  0.00  0.00    +0.222 HD
ENDBRANCH  24  26
BRANCH  24  28
ATOM     28  O   UNL     1      14.291   4.837  23.282  0.00  0.00    -0.303 OA
ATOM     29  H   UNL     1      14.650   4.738  24.184  0.00  0.00    +0.222 HD
ENDBRANCH  24  28
ENDBRANCH  23  24
ENDBRANCH   8  23
ENDBRANCH   6   7
ENDBRANCH   5   6
ENDBRANCH   1   5
BRANCH   1  30
ATOM     30  O   UNL     1       8.254  -2.027  23.613  0.00  0.00    -0.278 OA
BRANCH  30  33
ATOM     31  C   UNL     1       8.173  -4.751  25.646  0.00  0.00    +0.253 C 
ATOM     32  C   UNL     1       9.109  -4.136  24.597  0.00  0.00    +0.196 C 
ATOM     33  C   UNL     1       8.914  -2.621  24.725  0.00  0.00    +0.194 C 
ATOM     34  C   UNL     1       8.047  -2.460  25.969  0.00  0.00    +0.178 C 
ATOM     35  O   UNL     1       8.068  -3.729  26.665  0.00  0.00    -0.346 OA
BRANCH  31  43
ATOM     36  N   UNL     1       2.950  -6.427  23.022  0.00  0.00    -0.341 N 
ATOM     37  H   UNL     1       2.672  -6.873  23.889  0.00  0.00    +0.144 HD
ATOM     38  H   UNL     1       2.660  -6.854  22.151  0.00  0.00    +0.144 HD
ATOM     39  C   UNL     1       4.264  -5.992  22.998  0.00  0.00    +0.147 A 
ATOM     40  C   UNL     1       5.031  -5.759  24.156  0.00  0.00    +0.147 A 
ATOM     41  N   UNL     1       4.760  -5.935  25.493  0.00  0.00    -0.231 NA
ATOM     42  C   UNL     1       5.864  -5.573  26.112  0.00  0.00    +0.203 A 
ATOM     43  N   UNL     1       6.835  -5.145  25.235  0.00  0.00    -0.286 N 
ATOM     44  C   UNL     1       6.321  -5.279  23.968  0.00  0.00    +0.167 A 
ATOM     45  N   UNL     1       6.916  -5.027  22.783  0.00  0.00    -0.216 NA
ATOM     46  C   UNL     1       6.111  -5.372  21.754  0.00  0.00    +0.225 A 
ATOM     47  N   UNL     1       4.844  -5.817  21.793  0.00  0.00    -0.219 NA
ENDBRANCH  31  43
BRANCH  32  48
ATOM     48  O   UNL     1      10.483  -4.455  24.891  0.00  0.00    -0.385 OA
ATOM     49  H   UNL     1      10.536  -4.903  25.756  0.00  0.00    +0.210 HD
ENDBRANCH  32  48
BRANCH  34  50
ATOM     50  C   UNL     1       8.585  -1.357  26.876  0.00  0.00    +0.190 C 
BRANCH  50  51
ATOM     51  O   UNL     1       8.858  -0.179  26.128  0.00  0.00    -0.392 OA
ATOM     52  H   UNL     1       9.129   0.503  26.768  0.00  0.00    +0.210 HD
ENDBRANCH  50  51
ENDBRANCH  34  50
ENDBRANCH  30  33
ENDBRANCH   1  30
TORSDOF 16
ENDMDL
MODEL 5
REMARK VINA RESULT:      -7.6      2.254      4.697
REMARK  Name = 
REMARK  16 active torsions:
REMARK  status: ('A' for Active; 'I' for Inactive)
REMARK    1  A    between atoms: N_10  and  C_11
REMARK    2  A    between atoms: C_14  and  C_16
REMARK    3  A    between atoms: C_16  and  O_17
REMARK    4  A    between atoms: C_18  and  O_20
REMARK    5  A    between atoms: O_20  and  P_21
REMARK    6  A    between atoms: P_21  and  O_22
REMARK    7  A    between atoms: P_21  and  O_24
REMARK    8  A    between atoms: O_24  and  C_25
REMARK    9  A    between atoms: C_25  and  C_26
REMARK   10  A    between atoms: C_29  and  N_41
REMARK   11  A    between atoms: C_31  and  O_33
REMARK   12  A    between atoms: C_34  and  O_36
REMARK   13  A    between atoms: O_36  and  P_37
REMARK   14  A    between atoms: P_37  and  O_38
REMARK   15  A    between atoms: P_37  and  O_39
REMARK   16  A    between atoms: C_49  and  O_51
REMARK                            x       y       z     vdW  Elec       q    Type
REMARK                         _______ _______ _______ _____ _____    ______ ____
ROOT
ATOM      1  P   UNL     1       8.597  -3.336  24.774  0.00  0.00    +0.475 P 
ATOM      2  O   UNL     1       9.976  -3.552  24.155  0.00  0.00    -0.227 OA
ENDROOT
BRANCH   1   3
ATOM      3  O   UNL     1       8.465  -4.319  26.072  0.00  0.00    -0.302 OA
ATOM      4  H   UNL     1       8.256  -5.228  25.799  0.00  0.00    +0.222 HD
ENDBRANCH   1   3
BRANCH   1   5
ATOM      5  O   UNL     1       9.201  -2.001  25.693  0.00  0.00    -0.284 OA
BRANCH   5   6
ATOM      6  C   UNL     1       9.327  -0.746  25.030  0.00  0.00    +0.206 C 
BRANCH   6   7
ATOM      7  C   UNL     1       7.968  -0.194  24.608  0.00  0.00    +0.179 C 
ATOM      8  C   UNL     1       7.046   0.131  25.779  0.00  0.00    +0.194 C 
ATOM      9  C   UNL     1       7.080   1.651  25.909  0.00  0.00    +0.196 C 
ATOM     10  C   UNL     1       8.129   2.080  24.872  0.00  0.00    +0.255 C 
ATOM     11  O   UNL     1       8.181   1.034  23.892  0.00  0.00    -0.346 OA
BRANCH  10  12
ATOM     12  N   UNL     1       7.896   3.368  24.230  0.00  0.00    -0.271 N 
ATOM     13  C   UNL     1       9.014   4.001  23.707  0.00  0.00    +0.331 A 
ATOM     14  O   UNL     1      10.169   3.619  23.888  0.00  0.00    -0.246 OA
ATOM     15  N   UNL     1       8.760   5.091  22.913  0.00  0.00    -0.275 N 
ATOM     16  H   UNL     1       9.552   5.498  22.443  0.00  0.00    +0.173 HD
ATOM     17  C   UNL     1       7.525   5.484  22.486  0.00  0.00    +0.254 A 
ATOM     18  O   UNL     1       7.354   6.291  21.581  0.00  0.00    -0.268 OA
ATOM     19  C   UNL     1       6.383   4.852  23.163  0.00  0.00    +0.088 A 
ATOM     20  C   UNL     1       6.618   3.828  23.985  0.00  0.00    +0.098 A 
ENDBRANCH  10  12
BRANCH   9  21
ATOM     21  O   UNL     1       7.429   2.002  27.247  0.00  0.00    -0.385 OA
ATOM     22  H   UNL     1       6.769   2.660  27.555  0.00  0.00    +0.210 HD
ENDBRANCH   9  21
BRANCH   8  23
ATOM     23  O   UNL     1       5.740  -0.290  25.396  0.00  0.00    -0.278 OA
BRANCH  23  24
ATOM     24  P   UNL     1       4.634  -0.525  26.522  0.00  0.00    +0.473 P 
ATOM     25  O   UNL     1       5.126  -0.665  27.918  0.00  0.00    -0.228 OA
BRANCH  24  26
ATOM     26  O   UNL     1       3.668   0.723  26.293  0.00  0.00    -0.303 OA
ATOM     27  H   UNL     1       2.953   0.502  25.673  0.00  0.00    +0.222 HD
ENDBRANCH  24  26
BRANCH  24  28
ATOM     28  O   UNL     1       3.769  -1.749  25.983  0.00  0.00    -0.303 OA
ATOM     29  H   UNL     1       3.038  -1.970  26.591  0.00  0.00    +0.222 HD
ENDBRANCH  24  28
ENDBRANCH  23  24
ENDBRANCH   8  23
ENDBRANCH   6   7
ENDBRANCH   5   6
ENDBRANCH   1   5
BRANCH   1  30
ATOM     30  O   UNL     1       7.993  -4.672  23.855  0.00  0.00    -0.278 OA
BRANCH  30  33
ATOM     31  C   UNL     1       4.598  -4.554  23.717  0.00  0.00    +0.253 C 
ATOM     32  C   UNL     1       5.776  -3.571  23.721  0.00  0.00    +0.196 C 
ATOM     33  C   UNL     1       6.914  -4.304  23.003  0.00  0.00    +0.194 C 
ATOM     34  C   UNL     1       6.256  -5.565  22.452  0.00  0.00    +0.178 C 
ATOM     35  O   UNL     1       4.825  -5.367  22.541  0.00  0.00    -0.346 OA
BRANCH  31  43
ATOM     36  N   UNL     1       4.154  -7.441  29.050  0.00  0.00    -0.341 N 
ATOM     37  H   UNL     1       3.422  -8.023  28.660  0.00  0.00    +0.144 HD
ATOM     38  H   UNL     1       4.093  -7.187  30.028  0.00  0.00    +0.144 HD
ATOM     39  C   UNL     1       4.535  -6.383  28.242  0.00  0.00    +0.147 A 
ATOM     40  C   UNL     1       4.298  -6.334  26.855  0.00  0.00    +0.147 A 
ATOM     41  N   UNL     1       3.640  -7.187  26.001  0.00  0.00    -0.231 NA
ATOM     42  C   UNL     1       3.716  -6.610  24.821  0.00  0.00    +0.203 A 
ATOM     43  N   UNL     1       4.419  -5.427  24.865  0.00  0.00    -0.286 N 
ATOM     44  C   UNL     1       4.783  -5.224  26.174  0.00  0.00    +0.167 A 
ATOM     45  N   UNL     1       5.447  -4.182  26.715  0.00  0.00    -0.216 NA
ATOM     46  C   UNL     1       5.534  -4.306  28.058  0.00  0.00    +0.225 A 
ATOM     47  N   UNL     1       5.137  -5.328  28.832  0.00  0.00    -0.219 NA
ENDBRANCH  31  43
BRANCH  32  48
ATOM     48  O   UNL     1       5.448  -2.380  22.980  0.00  0.00    -0.385 OA
ATOM     49  H   UNL     1       5.538  -1.600  23.560  0.00  0.00    +0.210 HD
ENDBRANCH  32  48
BRANCH  34  50
ATOM     50  C   UNL     1       6.661  -5.809  21.001  0.00  0.00    +0.190 C 
BRANCH  50  51
ATOM     51  O   UNL     1       5.848  -5.048  20.117  0.00  0.00    -0.392 OA
ATOM     52  H   UNL     1       5.071  -5.597  19.908  0.00  0.00    +0.210 HD
ENDBRANCH  50  51
ENDBRANCH  34  50
ENDBRANCH  30  33
ENDBRANCH   1  30
TORSDOF 16
ENDMDL
MODEL 6
REMARK VINA RESULT:      -7.5      3.297      5.442
REMARK  Name = 
REMARK  16 active torsions:
REMARK  status: ('A' for Active; 'I' for Inactive)
REMARK    1  A    between atoms: N_10  and  C_11
REMARK    2  A    between atoms: C_14  and  C_16
REMARK    3  A    between atoms: C_16  and  O_17
REMARK    4  A    between atoms: C_18  and  O_20
REMARK    5  A    between atoms: O_20  and  P_21
REMARK    6  A    between atoms: P_21  and  O_22
REMARK    7  A    between atoms: P_21  and  O_24
REMARK    8  A    between atoms: O_24  and  C_25
REMARK    9  A    between atoms: C_25  and  C_26
REMARK   10  A    between atoms: C_29  and  N_41
REMARK   11  A    between atoms: C_31  and  O_33
REMARK   12  A    between atoms: C_34  and  O_36
REMARK   13  A    between atoms: O_36  and  P_37
REMARK   14  A    between atoms: P_37  and  O_38
REMARK   15  A    between atoms: P_37  and  O_39
REMARK   16  A    between atoms: C_49  and  O_51
REMARK                            x       y       z     vdW  Elec       q    Type
REMARK                         _______ _______ _______ _____ _____    ______ ____
ROOT
ATOM      1  P   UNL     1       6.211  -2.281  26.548  0.00  0.00    +0.475 P 
ATOM      2  O   UNL     1       5.408  -1.838  27.769  0.00  0.00    -0.227 OA
ENDROOT
BRANCH   1   3
ATOM      3  O   UNL     1       5.497  -1.658  25.218  0.00  0.00    -0.302 OA
ATOM      4  H   UNL     1       5.075  -0.805  25.418  0.00  0.00    +0.222 HD
ENDBRANCH   1   3
BRANCH   1   5
ATOM      5  O   UNL     1       7.286  -0.941  26.749  0.00  0.00    -0.284 OA
BRANCH   5   6
ATOM      6  C   UNL     1       8.043  -0.526  25.615  0.00  0.00    +0.206 C 
BRANCH   6   7
ATOM      7  C   UNL     1       8.028   0.991  25.453  0.00  0.00    +0.179 C 
ATOM      8  C   UNL     1       8.222   1.458  24.014  0.00  0.00    +0.194 C 
ATOM      9  C   UNL     1       6.835   1.880  23.536  0.00  0.00    +0.196 C 
ATOM     10  C   UNL     1       5.918   1.501  24.709  0.00  0.00    +0.255 C 
ATOM     11  O   UNL     1       6.745   1.479  25.880  0.00  0.00    -0.346 OA
BRANCH  10  12
ATOM     12  N   UNL     1       4.764   2.367  24.916  0.00  0.00    -0.271 N 
ATOM     13  C   UNL     1       3.797   1.897  25.793  0.00  0.00    +0.331 A 
ATOM     14  O   UNL     1       3.790   0.762  26.267  0.00  0.00    -0.246 OA
ATOM     15  N   UNL     1       2.835   2.806  26.156  0.00  0.00    -0.275 N 
ATOM     16  H   UNL     1       2.188   2.514  26.871  0.00  0.00    +0.173 HD
ATOM     17  C   UNL     1       2.854   4.137  25.852  0.00  0.00    +0.254 A 
ATOM     18  O   UNL     1       2.131   4.959  26.402  0.00  0.00    -0.268 OA
ATOM     19  C   UNL     1       3.829   4.547  24.832  0.00  0.00    +0.088 A 
ATOM     20  C   UNL     1       4.735   3.657  24.424  0.00  0.00    +0.098 A 
ENDBRANCH  10  12
BRANCH   9  21
ATOM     21  O   UNL     1       6.525   1.192  22.326  0.00  0.00    -0.385 OA
ATOM     22  H   UNL     1       5.740   0.630  22.506  0.00  0.00    +0.210 HD
ENDBRANCH   9  21
BRANCH   8  23
ATOM     23  O   UNL     1       9.078   2.595  24.069  0.00  0.00    -0.278 OA
BRANCH  23  24
ATOM     24  P   UNL     1      10.500   2.538  23.347  0.00  0.00    +0.473 P 
ATOM     25  O   UNL     1      11.327   3.773  23.406  0.00  0.00    -0.228 OA
BRANCH  24  26
ATOM     26  O   UNL     1      11.170   1.272  24.051  0.00  0.00    -0.303 OA
ATOM     27  H   UNL     1      11.551   1.513  24.912  0.00  0.00    +0.222 HD
ENDBRANCH  24  26
BRANCH  24  28
ATOM     28  O   UNL     1      10.184   2.004  21.880  0.00  0.00    -0.303 OA
ATOM     29  H   UNL     1      10.299   2.703  21.209  0.00  0.00    +0.222 HD
ENDBRANCH  24  28
ENDBRANCH  23  24
ENDBRANCH   8  23
ENDBRANCH   6   7
ENDBRANCH   5   6
ENDBRANCH   1   5
BRANCH   1  30
ATOM     30  O   UNL     1       5.137  -3.622  26.347  0.00  0.00    -0.278 OA
BRANCH  30  33
ATOM     31  C   UNL     1       7.658  -5.023  24.548  0.00  0.00    +0.253 C 
ATOM     32  C   UNL     1       7.347  -4.694  26.014  0.00  0.00    +0.196 C 
ATOM     33  C   UNL     1       5.828  -4.850  26.147  0.00  0.00    +0.194 C 
ATOM     34  C   UNL     1       5.398  -5.457  24.815  0.00  0.00    +0.178 C 
ATOM     35  O   UNL     1       6.599  -5.929  24.159  0.00  0.00    -0.346 OA
BRANCH  31  43
ATOM     36  N   UNL     1       8.856  -0.400  20.783  0.00  0.00    -0.341 N 
ATOM     37  H   UNL     1       8.103  -0.712  20.181  0.00  0.00    +0.144 HD
ATOM     38  H   UNL     1       9.673   0.013  20.352  0.00  0.00    +0.144 HD
ATOM     39  C   UNL     1       9.172  -1.279  21.805  0.00  0.00    +0.147 A 
ATOM     40  C   UNL     1       8.299  -2.278  22.275  0.00  0.00    +0.147 A 
ATOM     41  N   UNL     1       7.047  -2.675  21.868  0.00  0.00    -0.231 NA
ATOM     42  C   UNL     1       6.733  -3.675  22.663  0.00  0.00    +0.203 A 
ATOM     43  N   UNL     1       7.719  -3.931  23.590  0.00  0.00    -0.286 N 
ATOM     44  C   UNL     1       8.744  -3.052  23.340  0.00  0.00    +0.167 A 
ATOM     45  N   UNL     1       9.939  -2.949  23.958  0.00  0.00    -0.216 NA
ATOM     46  C   UNL     1      10.716  -2.017  23.360  0.00  0.00    +0.225 A 
ATOM     47  N   UNL     1      10.403  -1.188  22.352  0.00  0.00    -0.219 NA
ENDBRANCH  31  43
BRANCH  32  48
ATOM     48  O   UNL     1       7.991  -5.634  26.895  0.00  0.00    -0.385 OA
ATOM     49  H   UNL     1       7.893  -5.336  27.819  0.00  0.00    +0.210 HD
ENDBRANCH  32  48
BRANCH  34  50
ATOM     50  C   UNL     1       4.428  -6.616  25.027  0.00  0.00    +0.190 C 
BRANCH  50  51
ATOM     51  O   UNL     1       4.473  -7.517  23.928  0.00  0.00    -0.392 OA
ATOM     52  H   UNL     1       5.319  -7.996  23.992  0.00  0.00    +0.210 HD
ENDBRANCH  50  51
ENDBRANCH  34  50
ENDBRANCH  30  33
ENDBRANCH   1  30
TORSDOF 16
ENDMDL
MODEL 7
REMARK VINA RESULT:      -7.5      2.911      9.041
REMARK  Name = 
REMARK  16 active torsions:
REMARK  status: ('A' for Active; 'I' for Inactive)
REMARK    1  A    between atoms: N_10  and  C_11
REMARK    2  A    between atoms: C_14  and  C_16
REMARK    3  A    between atoms: C_16  and  O_17
REMARK    4  A    between atoms: C_18  and  O_20
REMARK    5  A    between atoms: O_20  and  P_21
REMARK    6  A    between atoms: P_21  and  O_22
REMARK    7  A    between atoms: P_21  and  O_24
REMARK    8  A    between atoms: O_24  and  C_25
REMARK    9  A    between atoms: C_25  and  C_26
REMARK   10  A    between atoms: C_29  and  N_41
REMARK   11  A    between atoms: C_31  and  O_33
REMARK   12  A    between atoms: C_34  and  O_36
REMARK   13  A    between atoms: O_36  and  P_37
REMARK   14  A    between atoms: P_37  and  O_38
REMARK   15  A    between atoms: P_37  and  O_39
REMARK   16  A    between atoms: C_49  and  O_51
REMARK                            x       y       z     vdW  Elec       q    Type
REMARK                         _______ _______ _______ _____ _____    ______ ____
ROOT
ATOM      1  P   UNL     1       6.160   1.678  24.211  0.00  0.00    +0.475 P 
ATOM      2  O   UNL     1       4.680   1.560  24.570  0.00  0.00    -0.227 OA
ENDROOT
BRANCH   1   3
ATOM      3  O   UNL     1       7.034   1.134  25.479  0.00  0.00    -0.302 OA
ATOM      4  H   UNL     1       7.225   0.185  25.387  0.00  0.00    +0.222 HD
ENDBRANCH   1   3
BRANCH   1   5
ATOM      5  O   UNL     1       6.109   0.136  23.429  0.00  0.00    -0.284 OA
BRANCH   5   6
ATOM      6  C   UNL     1       6.656  -0.978  24.128  0.00  0.00    +0.206 C 
BRANCH   6   7
ATOM      7  C   UNL     1       6.122  -2.300  23.585  0.00  0.00    +0.179 C 
ATOM      8  C   UNL     1       7.173  -3.140  22.868  0.00  0.00    +0.194 C 
ATOM      9  C   UNL     1       7.542  -4.250  23.848  0.00  0.00    +0.196 C 
ATOM     10  C   UNL     1       6.757  -3.886  25.118  0.00  0.00    +0.255 C 
ATOM     11  O   UNL     1       5.646  -3.084  24.692  0.00  0.00    -0.346 OA
BRANCH  10  12
ATOM     12  N   UNL     1       6.295  -5.011  25.921  0.00  0.00    -0.271 N 
ATOM     13  C   UNL     1       7.133  -5.410  26.952  0.00  0.00    +0.331 A 
ATOM     14  O   UNL     1       8.273  -4.981  27.118  0.00  0.00    -0.246 OA
ATOM     15  N   UNL     1       6.595  -6.310  27.838  0.00  0.00    -0.275 N 
ATOM     16  H   UNL     1       7.152  -6.531  28.648  0.00  0.00    +0.173 HD
ATOM     17  C   UNL     1       5.288  -6.702  27.866  0.00  0.00    +0.254 A 
ATOM     18  O   UNL     1       4.787  -7.295  28.814  0.00  0.00    -0.268 OA
ATOM     19  C   UNL     1       4.485  -6.341  26.689  0.00  0.00    +0.088 A 
ATOM     20  C   UNL     1       5.016  -5.513  25.788  0.00  0.00    +0.098 A 
ENDBRANCH  10  12
BRANCH   9  21
ATOM     21  O   UNL     1       8.955  -4.261  24.038  0.00  0.00    -0.385 OA
ATOM     22  H   UNL     1       9.365  -4.386  23.155  0.00  0.00    +0.210 HD
ENDBRANCH   9  21
BRANCH   8  23
ATOM     23  O   UNL     1       6.534  -3.701  21.725  0.00  0.00    -0.278 OA
BRANCH  23  24
ATOM     24  P   UNL     1       6.297  -5.277  21.657  0.00  0.00    +0.473 P 
ATOM     25  O   UNL     1       7.367  -6.136  22.230  0.00  0.00    -0.228 OA
BRANCH  24  26
ATOM     26  O   UNL     1       4.885  -5.424  22.386  0.00  0.00    -0.303 OA
ATOM     27  H   UNL     1       4.877  -6.194  22.979  0.00  0.00    +0.222 HD
ENDBRANCH  24  26
BRANCH  24  28
ATOM     28  O   UNL     1       5.941  -5.563  20.131  0.00  0.00    -0.303 OA
ATOM     29  H   UNL     1       5.317  -4.903  19.776  0.00  0.00    +0.222 HD
ENDBRANCH  24  28
ENDBRANCH  23  24
ENDBRANCH   8  23
ENDBRANCH   6   7
ENDBRANCH   5   6
ENDBRANCH   1   5
BRANCH   1  30
ATOM     30  O   UNL     1       6.211   3.220  24.994  0.00  0.00    -0.278 OA
BRANCH  30  33
ATOM     31  C   UNL     1       8.906   3.532  22.945  0.00  0.00    +0.253 C 
ATOM     32  C   UNL     1       7.383   3.703  22.864  0.00  0.00    +0.196 C 
ATOM     33  C   UNL     1       6.958   4.181  24.256  0.00  0.00    +0.194 C 
ATOM     34  C   UNL     1       8.276   4.453  24.975  0.00  0.00    +0.178 C 
ATOM     35  O   UNL     1       9.311   4.476  23.964  0.00  0.00    -0.346 OA
BRANCH  31  43
ATOM     36  N   UNL     1      10.907  -2.191  23.418  0.00  0.00    -0.341 N 
ATOM     37  H   UNL     1      11.566  -1.888  24.126  0.00  0.00    +0.144 HD
ATOM     38  H   UNL     1      11.187  -2.933  22.790  0.00  0.00    +0.144 HD
ATOM     39  C   UNL     1      10.248  -1.158  22.773  0.00  0.00    +0.147 A 
ATOM     40  C   UNL     1      10.128   0.142  23.298  0.00  0.00    +0.147 A 
ATOM     41  N   UNL     1      10.625   0.725  24.440  0.00  0.00    -0.231 NA
ATOM     42  C   UNL     1      10.208   1.972  24.392  0.00  0.00    +0.203 A 
ATOM     43  N   UNL     1       9.439   2.221  23.278  0.00  0.00    -0.286 N 
ATOM     44  C   UNL     1       9.396   1.056  22.551  0.00  0.00    +0.167 A 
ATOM     45  N   UNL     1       8.799   0.822  21.363  0.00  0.00    -0.216 NA
ATOM     46  C   UNL     1       9.059  -0.430  20.928  0.00  0.00    +0.225 A 
ATOM     47  N   UNL     1       9.723  -1.415  21.556  0.00  0.00    -0.219 NA
ENDBRANCH  31  43
BRANCH  32  48
ATOM     48  O   UNL     1       7.035   4.714  21.898  0.00  0.00    -0.385 OA
ATOM     49  H   UNL     1       6.246   4.430  21.399  0.00  0.00    +0.210 HD
ENDBRANCH  32  48
BRANCH  34  50
ATOM     50  C   UNL     1       8.235   5.788  25.712  0.00  0.00    +0.190 C 
BRANCH  50  51
ATOM     51  O   UNL     1       9.507   6.095  26.269  0.00  0.00    -0.392 OA
ATOM     52  H   UNL     1      10.162   5.969  25.558  0.00  0.00    +0.210 HD
ENDBRANCH  50  51
ENDBRANCH  34  50
ENDBRANCH  30  33
ENDBRANCH   1  30
TORSDOF 16
ENDMDL
MODEL 8
REMARK VINA RESULT:      -7.5      2.336      9.896
REMARK  Name = 
REMARK  16 active torsions:
REMARK  status: ('A' for Active; 'I' for Inactive)
REMARK    1  A    between atoms: N_10  and  C_11
REMARK    2  A    between atoms: C_14  and  C_16
REMARK    3  A    between atoms: C_16  and  O_17
REMARK    4  A    between atoms: C_18  and  O_20
REMARK    5  A    between atoms: O_20  and  P_21
REMARK    6  A    between atoms: P_21  and  O_22
REMARK    7  A    between atoms: P_21  and  O_24
REMARK    8  A    between atoms: O_24  and  C_25
REMARK    9  A    between atoms: C_25  and  C_26
REMARK   10  A    between atoms: C_29  and  N_41
REMARK   11  A    between atoms: C_31  and  O_33
REMARK   12  A    between atoms: C_34  and  O_36
REMARK   13  A    between atoms: O_36  and  P_37
REMARK   14  A    between atoms: P_37  and  O_38
REMARK   15  A    between atoms: P_37  and  O_39
REMARK   16  A    between atoms: C_49  and  O_51
REMARK                            x       y       z     vdW  Elec       q    Type
REMARK                         _______ _______ _______ _____ _____    ______ ____
ROOT
ATOM      1  P   UNL     1       7.185   0.876  26.813  0.00  0.00    +0.475 P 
ATOM      2  O   UNL     1       5.662   0.825  26.728  0.00  0.00    -0.227 OA
ENDROOT
BRANCH   1   3
ATOM      3  O   UNL     1       7.595   1.271  28.344  0.00  0.00    -0.302 OA
ATOM      4  H   UNL     1       8.350   1.884  28.354  0.00  0.00    +0.222 HD
ENDBRANCH   1   3
BRANCH   1   5
ATOM      5  O   UNL     1       7.241  -0.827  27.109  0.00  0.00    -0.284 OA
BRANCH   5   6
ATOM      6  C   UNL     1       8.275  -1.574  26.473  0.00  0.00    +0.206 C 
BRANCH   6   7
ATOM      7  C   UNL     1       7.845  -2.070  25.095  0.00  0.00    +0.179 C 
ATOM      8  C   UNL     1       8.965  -2.739  24.305  0.00  0.00    +0.194 C 
ATOM      9  C   UNL     1       8.684  -4.236  24.396  0.00  0.00    +0.196 C 
ATOM     10  C   UNL     1       7.481  -4.322  25.347  0.00  0.00    +0.255 C 
ATOM     11  O   UNL     1       6.813  -3.055  25.271  0.00  0.00    -0.346 OA
BRANCH  10  12
ATOM     12  N   UNL     1       6.545  -5.408  25.089  0.00  0.00    -0.271 N 
ATOM     13  C   UNL     1       6.095  -6.105  26.201  0.00  0.00    +0.331 A 
ATOM     14  O   UNL     1       6.549  -5.959  27.334  0.00  0.00    -0.246 OA
ATOM     15  N   UNL     1       5.052  -6.968  25.977  0.00  0.00    -0.275 N 
ATOM     16  H   UNL     1       4.646  -7.403  26.790  0.00  0.00    +0.173 HD
ATOM     17  C   UNL     1       4.345  -7.064  24.813  0.00  0.00    +0.254 A 
ATOM     18  O   UNL     1       3.270  -7.645  24.729  0.00  0.00    -0.268 OA
ATOM     19  C   UNL     1       4.938  -6.394  23.647  0.00  0.00    +0.088 A 
ATOM     20  C   UNL     1       5.991  -5.598  23.838  0.00  0.00    +0.098 A 
ENDBRANCH  10  12
BRANCH   9  21
ATOM     21  O   UNL     1       9.845  -4.904  24.886  0.00  0.00    -0.385 OA
ATOM     22  H   UNL     1      10.624  -4.461  24.487  0.00  0.00    +0.210 HD
ENDBRANCH   9  21
BRANCH   8  23
ATOM     23  O   UNL     1       8.825  -2.304  22.956  0.00  0.00    -0.278 OA
BRANCH  23  24
ATOM     24  P   UNL     1       9.330  -0.847  22.548  0.00  0.00    +0.473 P 
ATOM     25  O   UNL     1      10.403  -0.255  23.391  0.00  0.00    -0.228 OA
BRANCH  24  26
ATOM     26  O   UNL     1       9.746  -1.063  21.023  0.00  0.00    -0.303 OA
ATOM     27  H   UNL     1       9.334  -1.865  20.660  0.00  0.00    +0.222 HD
ENDBRANCH  24  26
BRANCH  24  28
ATOM     28  O   UNL     1       8.000   0.022  22.435  0.00  0.00    -0.303 OA
ATOM     29  H   UNL     1       7.645   0.254  23.314  0.00  0.00    +0.222 HD
ENDBRANCH  24  28
ENDBRANCH  23  24
ENDBRANCH   8  23
ENDBRANCH   6   7
ENDBRANCH   5   6
ENDBRANCH   1   5
BRANCH   1  30
ATOM     30  O   UNL     1       7.130   2.580  26.518  0.00  0.00    -0.278 OA
BRANCH  30  33
ATOM     31  C   UNL     1       6.852   4.271  23.582  0.00  0.00    +0.253 C 
ATOM     32  C   UNL     1       6.750   2.823  24.080  0.00  0.00    +0.196 C 
ATOM     33  C   UNL     1       6.193   2.928  25.504  0.00  0.00    +0.194 C 
ATOM     34  C   UNL     1       5.817   4.398  25.651  0.00  0.00    +0.178 C 
ATOM     35  O   UNL     1       5.822   4.970  24.321  0.00  0.00    -0.346 OA
BRANCH  31  43
ATOM     36  N   UNL     1      12.538   6.395  23.946  0.00  0.00    -0.341 N 
ATOM     37  H   UNL     1      12.181   7.335  23.819  0.00  0.00    +0.144 HD
ATOM     38  H   UNL     1      13.441   6.168  23.550  0.00  0.00    +0.144 HD
ATOM     39  C   UNL     1      11.598   5.396  23.752  0.00  0.00    +0.147 A 
ATOM     40  C   UNL     1      10.208   5.608  23.816  0.00  0.00    +0.147 A 
ATOM     41  N   UNL     1       9.455   6.743  24.002  0.00  0.00    -0.231 NA
ATOM     42  C   UNL     1       8.206   6.335  23.943  0.00  0.00    +0.203 A 
ATOM     43  N   UNL     1       8.112   4.975  23.750  0.00  0.00    -0.286 N 
ATOM     44  C   UNL     1       9.395   4.494  23.644  0.00  0.00    +0.167 A 
ATOM     45  N   UNL     1       9.808   3.232  23.409  0.00  0.00    -0.216 NA
ATOM     46  C   UNL     1      11.153   3.176  23.285  0.00  0.00    +0.225 A 
ATOM     47  N   UNL     1      12.051   4.161  23.452  0.00  0.00    -0.219 NA
ENDBRANCH  31  43
BRANCH  32  48
ATOM     48  O   UNL     1       5.825   2.071  23.272  0.00  0.00    -0.385 OA
ATOM     49  H   UNL     1       6.112   1.139  23.229  0.00  0.00    +0.210 HD
ENDBRANCH  32  48
BRANCH  34  50
ATOM     50  C   UNL     1       4.436   4.553  26.282  0.00  0.00    +0.190 C 
BRANCH  50  51
ATOM     51  O   UNL     1       4.170   3.482  27.179  0.00  0.00    -0.392 OA
ATOM     52  H   UNL     1       4.850   2.804  27.015  0.00  0.00    +0.210 HD
ENDBRANCH  50  51
ENDBRANCH  34  50
ENDBRANCH  30  33
ENDBRANCH   1  30
TORSDOF 16
ENDMDL
MODEL 9
REMARK VINA RESULT:      -7.4      3.895      6.508
REMARK  Name = 
REMARK  16 active torsions:
REMARK  status: ('A' for Active; 'I' for Inactive)
REMARK    1  A    between atoms: N_10  and  C_11
REMARK    2  A    between atoms: C_14  and  C_16
REMARK    3  A    between atoms: C_16  and  O_17
REMARK    4  A    between atoms: C_18  and  O_20
REMARK    5  A    between atoms: O_20  and  P_21
REMARK    6  A    between atoms: P_21  and  O_22
REMARK    7  A    between atoms: P_21  and  O_24
REMARK    8  A    between atoms: O_24  and  C_25
REMARK    9  A    between atoms: C_25  and  C_26
REMARK   10  A    between atoms: C_29  and  N_41
REMARK   11  A    between atoms: C_31  and  O_33
REMARK   12  A    between atoms: C_34  and  O_36
REMARK   13  A    between atoms: O_36  and  P_37
REMARK   14  A    between atoms: P_37  and  O_38
REMARK   15  A    between atoms: P_37  and  O_39
REMARK   16  A    between atoms: C_49  and  O_51
REMARK                            x       y       z     vdW  Elec       q    Type
REMARK                         _______ _______ _______ _____ _____    ______ ____
ROOT
ATOM      1  P   UNL     1       5.489  -1.710  25.545  0.00  0.00    +0.475 P 
ATOM      2  O   UNL     1       3.975  -1.867  25.661  0.00  0.00    -0.227 OA
ENDROOT
BRANCH   1   3
ATOM      3  O   UNL     1       5.795  -0.578  24.407  0.00  0.00    -0.302 OA
ATOM      4  H   UNL     1       5.234  -0.713  23.625  0.00  0.00    +0.222 HD
ENDBRANCH   1   3
BRANCH   1   5
ATOM      5  O   UNL     1       5.487  -0.573  26.848  0.00  0.00    -0.284 OA
BRANCH   5   6
ATOM      6  C   UNL     1       4.491   0.447  26.834  0.00  0.00    +0.206 C 
BRANCH   6   7
ATOM      7  C   UNL     1       5.075   1.807  27.206  0.00  0.00    +0.179 C 
ATOM      8  C   UNL     1       6.599   1.855  27.165  0.00  0.00    +0.194 C 
ATOM      9  C   UNL     1       6.945   2.601  25.879  0.00  0.00    +0.196 C 
ATOM     10  C   UNL     1       5.580   2.818  25.209  0.00  0.00    +0.255 C 
ATOM     11  O   UNL     1       4.601   2.777  26.258  0.00  0.00    -0.346 OA
BRANCH  10  12
ATOM     12  N   UNL     1       5.443   4.044  24.432  0.00  0.00    -0.271 N 
ATOM     13  C   UNL     1       5.800   3.962  23.094  0.00  0.00    +0.331 A 
ATOM     14  O   UNL     1       6.352   2.987  22.587  0.00  0.00    -0.246 OA
ATOM     15  N   UNL     1       5.457   5.044  22.323  0.00  0.00    -0.275 N 
ATOM     16  H   UNL     1       5.615   4.958  21.332  0.00  0.00    +0.173 HD
ATOM     17  C   UNL     1       4.675   6.086  22.730  0.00  0.00    +0.254 A 
ATOM     18  O   UNL     1       4.178   6.894  21.955  0.00  0.00    -0.268 OA
ATOM     19  C   UNL     1       4.429   6.175  24.177  0.00  0.00    +0.088 A 
ATOM     20  C   UNL     1       4.810   5.157  24.950  0.00  0.00    +0.098 A 
ENDBRANCH  10  12
BRANCH   9  21
ATOM     21  O   UNL     1       7.840   1.810  25.101  0.00  0.00    -0.385 OA
ATOM     22  H   UNL     1       7.645   0.870  25.303  0.00  0.00    +0.210 HD
ENDBRANCH   9  21
BRANCH   8  23
ATOM     23  O   UNL     1       7.012   2.621  28.292  0.00  0.00    -0.278 OA
BRANCH  23  24
ATOM     24  P   UNL     1       7.374   1.874  29.655  0.00  0.00    +0.473 P 
ATOM     25  O   UNL     1       6.231   1.377  30.466  0.00  0.00    -0.228 OA
BRANCH  24  26
ATOM     26  O   UNL     1       8.357   0.727  29.144  0.00  0.00    -0.303 OA
ATOM     27  H   UNL     1       7.860  -0.063  28.872  0.00  0.00    +0.222 HD
ENDBRANCH  24  26
BRANCH  24  28
ATOM     28  O   UNL     1       8.357   2.875  30.411  0.00  0.00    -0.303 OA
ATOM     29  H   UNL     1       9.285   2.579  30.357  0.00  0.00    +0.222 HD
ENDBRANCH  24  28
ENDBRANCH  23  24
ENDBRANCH   8  23
ENDBRANCH   6   7
ENDBRANCH   5   6
ENDBRANCH   1   5
BRANCH   1  30
ATOM     30  O   UNL     1       5.492  -2.847  24.241  0.00  0.00    -0.278 OA
BRANCH  30  33
ATOM     31  C   UNL     1       8.855  -3.265  23.967  0.00  0.00    +0.253 C 
ATOM     32  C   UNL     1       7.784  -3.308  25.065  0.00  0.00    +0.196 C 
ATOM     33  C   UNL     1       6.519  -3.824  24.372  0.00  0.00    +0.194 C 
ATOM     34  C   UNL     1       6.997  -4.240  22.985  0.00  0.00    +0.178 C 
ATOM     35  O   UNL     1       8.442  -4.292  23.035  0.00  0.00    -0.346 OA
BRANCH  31  43
ATOM     36  N   UNL     1      10.224   2.207  21.695  0.00  0.00    -0.341 N 
ATOM     37  H   UNL     1      10.126   1.829  20.760  0.00  0.00    +0.144 HD
ATOM     38  H   UNL     1      10.924   2.921  21.851  0.00  0.00    +0.144 HD
ATOM     39  C   UNL     1      10.190   1.256  22.702  0.00  0.00    +0.147 A 
ATOM     40  C   UNL     1       9.637  -0.029  22.545  0.00  0.00    +0.147 A 
ATOM     41  N   UNL     1       9.091  -0.672  21.460  0.00  0.00    -0.231 NA
ATOM     42  C   UNL     1       8.765  -1.867  21.903  0.00  0.00    +0.203 A 
ATOM     43  N   UNL     1       9.053  -2.022  23.240  0.00  0.00    -0.286 N 
ATOM     44  C   UNL     1       9.636  -0.853  23.664  0.00  0.00    +0.167 A 
ATOM     45  N   UNL     1      10.126  -0.545  24.883  0.00  0.00    -0.216 NA
ATOM     46  C   UNL     1      10.704   0.676  24.880  0.00  0.00    +0.225 A 
ATOM     47  N   UNL     1      10.751   1.578  23.887  0.00  0.00    -0.219 NA
ENDBRANCH  31  43
BRANCH  32  48
ATOM     48  O   UNL     1       8.157  -4.233  26.104  0.00  0.00    -0.385 OA
ATOM     49  H   UNL     1       8.695  -4.952  25.723  0.00  0.00    +0.210 HD
ENDBRANCH  32  48
BRANCH  34  50
ATOM     50  C   UNL     1       6.437  -5.606  22.597  0.00  0.00    +0.190 C 
BRANCH  50  51
ATOM     51  O   UNL     1       5.372  -5.467  21.664  0.00  0.00    -0.392 OA
ATOM     52  H   UNL     1       5.462  -4.582  21.267  0.00  0.00    +0.210 HD
ENDBRANCH  50  51
ENDBRANCH  34  50
ENDBRANCH  30  33
ENDBRANCH   1  30
TORSDOF 16
ENDMDL
