MODEL 1
REMARK VINA RESULT:      -8.0      0.000      0.000
REMARK  Name = 
REMARK  9 active torsions:
REMARK  status: ('A' for Active; 'I' for Inactive)
REMARK    1  A    between atoms: C_1  and  C_2
REMARK    2  A    between atoms: C_2  and  C_3
REMARK    3  A    between atoms: C_2  and  N_4
REMARK    4  A    between atoms: N_4  and  C_5
REMARK    5  A    between atoms: C_6  and  N_11
REMARK    6  A    between atoms: C_17  and  C_19
REMARK    7  A    between atoms: C_26  and  N_27
REMARK    8  A    between atoms: N_27  and  S_28
REMARK    9  A    between atoms: S_28  and  C_29
REMARK                            x       y       z     vdW  Elec       q    Type
REMARK                         _______ _______ _______ _____ _____    ______ ____
ROOT
ATOM      1  N   UNL     1       8.667   2.755  22.951  0.00  0.00    -0.311 N 
ATOM      2  C   UNL     1       7.886   1.878  23.836  0.00  0.00    +0.125 C 
ATOM      3  C   UNL     1       8.762   0.693  24.302  0.00  0.00    +0.127 C 
ATOM      4  N   UNL     1       9.348  -0.001  23.144  0.00  0.00    -0.293 N 
ATOM      5  C   UNL     1       9.243  -1.335  22.759  0.00  0.00    +0.263 C 
ATOM      6  O   UNL     1       9.801  -1.734  21.735  0.00  0.00    -0.268 OA
ATOM      7  C   UNL     1      10.168   0.899  22.326  0.00  0.00    +0.127 C 
ATOM      8  C   UNL     1       9.351   2.103  21.835  0.00  0.00    +0.125 C 
ENDROOT
BRANCH   5   9
ATOM      9  C   UNL     1       8.571  -2.299  23.604  0.00  0.00    +0.103 A 
ATOM     10  N   UNL     1       9.311  -3.271  24.259  0.00  0.00    -0.351 N 
ATOM     11  H   UNL     1      10.308  -3.386  24.129  0.00  0.00    +0.166 HD
ATOM     12  C   UNL     1       8.550  -3.911  25.206  0.00  0.00    +0.047 A 
ATOM     13  C   UNL     1       8.905  -4.832  26.196  0.00  0.00    +0.028 A 
ATOM     14  C   UNL     1       7.898  -5.256  27.072  0.00  0.00    +0.026 A 
ATOM     15  C   UNL     1       6.592  -4.781  26.938  0.00  0.00    +0.048 A 
ATOM     16  C   UNL     1       6.242  -3.920  25.894  0.00  0.00    +0.034 A 
ATOM     17  C   UNL     1       7.244  -3.464  25.025  0.00  0.00    +0.002 A 
ATOM     18  C   UNL     1       7.254  -2.562  23.929  0.00  0.00    +0.041 A 
BRANCH  15  19
ATOM     19  N   UNL     1       5.586  -5.171  27.868  0.00  0.00    -0.221 N 
ATOM     20  H   UNL     1       5.766  -4.926  28.844  0.00  0.00    +0.173 HD
BRANCH  19  21
ATOM     21  S   UNL     1       4.984  -6.743  27.768  0.00  0.00    +0.040 S 
ATOM     22  O   UNL     1       5.713  -7.498  28.769  0.00  0.00    -0.155 OA
ATOM     23  O   UNL     1       4.949  -7.171  26.390  0.00  0.00    -0.155 OA
ATOM     24  C   UNL     1       3.318  -6.532  28.365  0.00  0.00    +0.218 C 
ENDBRANCH  19  21
ENDBRANCH  15  19
ENDBRANCH   5   9
BRANCH   1  30
ATOM     25  C   UNL     1       9.219   5.122  23.471  0.00  0.00    +0.068 A 
ATOM     26  C   UNL     1       8.689   6.419  23.559  0.00  0.00    +0.028 A 
ATOM     27  C   UNL     1       7.408   6.704  23.108  0.00  0.00    +0.022 A 
ATOM     28  C   UNL     1       6.683   5.675  22.553  0.00  0.00    +0.113 A 
ATOM     29  N   UNL     1       7.122   4.402  22.484  0.00  0.00    -0.238 NA
ATOM     30  C   UNL     1       8.357   4.103  22.971  0.00  0.00    +0.142 A 
BRANCH  25  31
ATOM     31  N   UNL     1      10.568   4.880  23.758  0.00  0.00    -0.339 N 
ATOM     32  H   UNL     1      10.708   4.310  24.579  0.00  0.00    +0.146 HD
BRANCH  31  34
ATOM     33  C   UNL     1      12.084   6.472  24.769  0.00  0.00    +0.027 C 
ATOM     34  C   UNL     1      11.656   5.803  23.459  0.00  0.00    +0.064 C 
ATOM     35  C   UNL     1      12.845   5.045  22.867  0.00  0.00    +0.027 C 
ENDBRANCH  31  34
ENDBRANCH  25  31
ENDBRANCH   1  30
TORSDOF 6
ENDMDL
MODEL 2
REMARK VINA RESULT:      -7.9      2.063      2.466
REMARK  Name = 
REMARK  9 active torsions:
REMARK  status: ('A' for Active; 'I' for Inactive)
REMARK    1  A    between atoms: C_1  and  C_2
REMARK    2  A    between atoms: C_2  and  C_3
REMARK    3  A    between atoms: C_2  and  N_4
REMARK    4  A    between atoms: N_4  and  C_5
REMARK    5  A    between atoms: C_6  and  N_11
REMARK    6  A    between atoms: C_17  and  C_19
REMARK    7  A    between atoms: C_26  and  N_27
REMARK    8  A    between atoms: N_27  and  S_28
REMARK    9  A    between atoms: S_28  and  C_29
REMARK                            x       y       z     vdW  Elec       q    Type
REMARK                         _______ _______ _______ _____ _____    ______ ____
ROOT
ATOM      1  N   UNL     1       8.680   2.824  23.074  0.00  0.00    -0.311 N 
ATOM      2  C   UNL     1       7.518   1.925  23.091  0.00  0.00    +0.125 C 
ATOM      3  C   UNL     1       7.824   0.693  23.973  0.00  0.00    +0.127 C 
ATOM      4  N   UNL     1       9.072   0.044  23.537  0.00  0.00    -0.293 N 
ATOM      5  C   UNL     1       9.295  -1.264  23.117  0.00  0.00    +0.263 C 
ATOM      6  O   UNL     1      10.422  -1.624  22.771  0.00  0.00    -0.268 OA
ATOM      7  C   UNL     1      10.213   0.963  23.596  0.00  0.00    +0.127 C 
ATOM      8  C   UNL     1       9.966   2.213  22.740  0.00  0.00    +0.125 C 
ENDROOT
BRANCH   5   9
ATOM      9  C   UNL     1       8.238  -2.252  23.178  0.00  0.00    +0.103 A 
ATOM     10  N   UNL     1       7.745  -2.800  22.005  0.00  0.00    -0.351 N 
ATOM     11  H   UNL     1       8.043  -2.499  21.086  0.00  0.00    +0.166 HD
ATOM     12  C   UNL     1       6.955  -3.893  22.270  0.00  0.00    +0.047 A 
ATOM     13  C   UNL     1       6.384  -4.838  21.413  0.00  0.00    +0.028 A 
ATOM     14  C   UNL     1       5.678  -5.896  22.000  0.00  0.00    +0.026 A 
ATOM     15  C   UNL     1       5.545  -5.979  23.388  0.00  0.00    +0.048 A 
ATOM     16  C   UNL     1       6.059  -4.983  24.221  0.00  0.00    +0.034 A 
ATOM     17  C   UNL     1       6.792  -3.932  23.651  0.00  0.00    +0.002 A 
ATOM     18  C   UNL     1       7.488  -2.818  24.191  0.00  0.00    +0.041 A 
BRANCH  15  19
ATOM     19  N   UNL     1       4.877  -7.089  23.980  0.00  0.00    -0.221 N 
ATOM     20  H   UNL     1       5.077  -8.001  23.563  0.00  0.00    +0.173 HD
BRANCH  19  21
ATOM     21  S   UNL     1       3.226  -6.944  24.290  0.00  0.00    +0.040 S 
ATOM     22  O   UNL     1       2.683  -8.275  24.105  0.00  0.00    -0.155 OA
ATOM     23  O   UNL     1       2.687  -5.812  23.574  0.00  0.00    -0.155 OA
ATOM     24  C   UNL     1       3.214  -6.599  26.038  0.00  0.00    +0.218 C 
ENDBRANCH  19  21
ENDBRANCH  15  19
ENDBRANCH   5   9
BRANCH   1  30
ATOM     25  C   UNL     1       9.260   5.210  23.461  0.00  0.00    +0.068 A 
ATOM     26  C   UNL     1       8.775   6.525  23.376  0.00  0.00    +0.028 A 
ATOM     27  C   UNL     1       7.569   6.807  22.749  0.00  0.00    +0.022 A 
ATOM     28  C   UNL     1       6.876   5.756  22.196  0.00  0.00    +0.113 A 
ATOM     29  N   UNL     1       7.270   4.469  22.286  0.00  0.00    -0.238 NA
ATOM     30  C   UNL     1       8.424   4.177  22.944  0.00  0.00    +0.142 A 
BRANCH  25  31
ATOM     31  N   UNL     1      10.553   4.955  23.931  0.00  0.00    -0.339 N 
ATOM     32  H   UNL     1      10.571   4.498  24.831  0.00  0.00    +0.146 HD
BRANCH  31  34
ATOM     33  C   UNL     1      12.097   6.534  24.921  0.00  0.00    +0.027 C 
ATOM     34  C   UNL     1      11.718   5.783  23.641  0.00  0.00    +0.064 C 
ATOM     35  C   UNL     1      12.893   4.908  23.202  0.00  0.00    +0.027 C 
ENDBRANCH  31  34
ENDBRANCH  25  31
ENDBRANCH   1  30
TORSDOF 6
ENDMDL
MODEL 3
REMARK VINA RESULT:      -7.8      3.681     10.374
REMARK  Name = 
REMARK  9 active torsions:
REMARK  status: ('A' for Active; 'I' for Inactive)
REMARK    1  A    between atoms: C_1  and  C_2
REMARK    2  A    between atoms: C_2  and  C_3
REMARK    3  A    between atoms: C_2  and  N_4
REMARK    4  A    between atoms: N_4  and  C_5
REMARK    5  A    between atoms: C_6  and  N_11
REMARK    6  A    between atoms: C_17  and  C_19
REMARK    7  A    between atoms: C_26  and  N_27
REMARK    8  A    between atoms: N_27  and  S_28
REMARK    9  A    between atoms: S_28  and  C_29
REMARK                            x       y       z     vdW  Elec       q    Type
REMARK                         _______ _______ _______ _____ _____    ______ ____
ROOT
ATOM      1  N   UNL     1       7.006  -4.751  26.192  0.00  0.00    -0.311 N 
ATOM      2  C   UNL     1       6.850  -3.289  26.197  0.00  0.00    +0.125 C 
ATOM      3  C   UNL     1       7.126  -2.730  24.783  0.00  0.00    +0.127 C 
ATOM      4  N   UNL     1       8.438  -3.187  24.294  0.00  0.00    -0.293 N 
ATOM      5  C   UNL     1       9.539  -2.446  23.876  0.00  0.00    +0.263 C 
ATOM      6  O   UNL     1      10.571  -3.015  23.511  0.00  0.00    -0.268 OA
ATOM      7  C   UNL     1       8.523  -4.651  24.248  0.00  0.00    +0.127 C 
ATOM      8  C   UNL     1       8.252  -5.267  25.628  0.00  0.00    +0.125 C 
ENDROOT
BRANCH   5   9
ATOM      9  C   UNL     1       9.463  -1.005  23.761  0.00  0.00    +0.103 A 
ATOM     10  N   UNL     1       9.018  -0.435  22.580  0.00  0.00    -0.351 N 
ATOM     11  H   UNL     1       8.796  -0.977  21.754  0.00  0.00    +0.166 HD
ATOM     12  C   UNL     1       8.761   0.904  22.748  0.00  0.00    +0.047 A 
ATOM     13  C   UNL     1       8.160   1.835  21.896  0.00  0.00    +0.028 A 
ATOM     14  C   UNL     1       7.971   3.132  22.391  0.00  0.00    +0.026 A 
ATOM     15  C   UNL     1       8.388   3.470  23.680  0.00  0.00    +0.048 A 
ATOM     16  C   UNL     1       9.056   2.545  24.486  0.00  0.00    +0.034 A 
ATOM     17  C   UNL     1       9.228   1.234  24.017  0.00  0.00    +0.002 A 
ATOM     18  C   UNL     1       9.789   0.058  24.581  0.00  0.00    +0.041 A 
BRANCH  15  19
ATOM     19  N   UNL     1       8.139   4.774  24.196  0.00  0.00    -0.221 N 
ATOM     20  H   UNL     1       7.159   5.064  24.214  0.00  0.00    +0.173 HD
BRANCH  19  21
ATOM     21  S   UNL     1       9.109   6.040  23.647  0.00  0.00    +0.040 S 
ATOM     22  O   UNL     1       8.321   6.713  22.633  0.00  0.00    -0.155 OA
ATOM     23  O   UNL     1      10.437   5.555  23.360  0.00  0.00    -0.155 OA
ATOM     24  C   UNL     1       9.162   7.102  25.077  0.00  0.00    +0.218 C 
ENDBRANCH  19  21
ENDBRANCH  15  19
ENDBRANCH   5   9
BRANCH   1  30
ATOM     25  C   UNL     1       4.854  -5.827  26.818  0.00  0.00    +0.068 A 
ATOM     26  C   UNL     1       4.147  -6.422  27.876  0.00  0.00    +0.028 A 
ATOM     27  C   UNL     1       4.769  -6.713  29.082  0.00  0.00    +0.022 A 
ATOM     28  C   UNL     1       6.107  -6.417  29.199  0.00  0.00    +0.113 A 
ATOM     29  N   UNL     1       6.825  -5.805  28.235  0.00  0.00    -0.238 NA
ATOM     30  C   UNL     1       6.211  -5.469  27.068  0.00  0.00    +0.142 A 
BRANCH  25  31
ATOM     31  N   UNL     1       4.273  -5.703  25.551  0.00  0.00    -0.339 N 
ATOM     32  H   UNL     1       3.389  -5.217  25.560  0.00  0.00    +0.146 HD
BRANCH  31  34
ATOM     33  C   UNL     1       3.036  -7.143  24.050  0.00  0.00    +0.027 C 
ATOM     34  C   UNL     1       4.430  -6.669  24.470  0.00  0.00    +0.064 C 
ATOM     35  C   UNL     1       5.124  -6.016  23.274  0.00  0.00    +0.027 C 
ENDBRANCH  31  34
ENDBRANCH  25  31
ENDBRANCH   1  30
TORSDOF 6
ENDMDL
MODEL 4
REMARK VINA RESULT:      -7.7      3.754      9.842
REMARK  Name = 
REMARK  9 active torsions:
REMARK  status: ('A' for Active; 'I' for Inactive)
REMARK    1  A    between atoms: C_1  and  C_2
REMARK    2  A    between atoms: C_2  and  C_3
REMARK    3  A    between atoms: C_2  and  N_4
REMARK    4  A    between atoms: N_4  and  C_5
REMARK    5  A    between atoms: C_6  and  N_11
REMARK    6  A    between atoms: C_17  and  C_19
REMARK    7  A    between atoms: C_26  and  N_27
REMARK    8  A    between atoms: N_27  and  S_28
REMARK    9  A    between atoms: S_28  and  C_29
REMARK                            x       y       z     vdW  Elec       q    Type
REMARK                         _______ _______ _______ _____ _____    ______ ____
ROOT
ATOM      1  N   UNL     1       5.108  -4.584  24.141  0.00  0.00    -0.311 N 
ATOM      2  C   UNL     1       5.420  -3.157  23.981  0.00  0.00    +0.125 C 
ATOM      3  C   UNL     1       6.700  -2.993  23.131  0.00  0.00    +0.127 C 
ATOM      4  N   UNL     1       7.803  -3.783  23.703  0.00  0.00    -0.293 N 
ATOM      5  C   UNL     1       9.061  -3.372  24.136  0.00  0.00    +0.263 C 
ATOM      6  O   UNL     1       9.856  -4.189  24.607  0.00  0.00    -0.268 OA
ATOM      7  C   UNL     1       7.469  -5.209  23.784  0.00  0.00    +0.127 C 
ATOM      8  C   UNL     1       6.198  -5.435  24.616  0.00  0.00    +0.125 C 
ENDROOT
BRANCH   5   9
ATOM      9  C   UNL     1       9.501  -2.006  23.945  0.00  0.00    +0.103 A 
ATOM     10  N   UNL     1       9.673  -1.514  22.662  0.00  0.00    -0.351 N 
ATOM     11  H   UNL     1       9.565  -2.085  21.833  0.00  0.00    +0.166 HD
ATOM     12  C   UNL     1       9.827  -0.149  22.677  0.00  0.00    +0.047 A 
ATOM     13  C   UNL     1       9.871   0.778  21.632  0.00  0.00    +0.028 A 
ATOM     14  C   UNL     1       9.967   2.132  21.977  0.00  0.00    +0.026 A 
ATOM     15  C   UNL     1      10.032   2.523  23.316  0.00  0.00    +0.048 A 
ATOM     16  C   UNL     1      10.064   1.575  24.341  0.00  0.00    +0.034 A 
ATOM     17  C   UNL     1       9.940   0.216  24.015  0.00  0.00    +0.002 A 
ATOM     18  C   UNL     1       9.873  -0.974  24.786  0.00  0.00    +0.041 A 
BRANCH  15  19
ATOM     19  N   UNL     1      10.070   3.904  23.660  0.00  0.00    -0.221 N 
ATOM     20  H   UNL     1      10.795   4.175  24.328  0.00  0.00    +0.173 HD
BRANCH  19  21
ATOM     21  S   UNL     1       8.614   4.662  24.047  0.00  0.00    +0.040 S 
ATOM     22  O   UNL     1       8.651   4.851  25.484  0.00  0.00    -0.155 OA
ATOM     23  O   UNL     1       7.516   3.975  23.413  0.00  0.00    -0.155 OA
ATOM     24  C   UNL     1       8.826   6.262  23.292  0.00  0.00    +0.218 C 
ENDBRANCH  19  21
ENDBRANCH  15  19
ENDBRANCH   5   9
BRANCH   1  30
ATOM     25  C   UNL     1       3.062  -5.022  25.482  0.00  0.00    +0.068 A 
ATOM     26  C   UNL     1       1.754  -5.530  25.426  0.00  0.00    +0.028 A 
ATOM     27  C   UNL     1       1.159  -5.851  24.213  0.00  0.00    +0.022 A 
ATOM     28  C   UNL     1       1.888  -5.635  23.067  0.00  0.00    +0.113 A 
ATOM     29  N   UNL     1       3.163  -5.194  23.063  0.00  0.00    -0.238 NA
ATOM     30  C   UNL     1       3.772  -4.926  24.250  0.00  0.00    +0.142 A 
BRANCH  25  31
ATOM     31  N   UNL     1       3.587  -4.533  26.684  0.00  0.00    -0.339 N 
ATOM     32  H   UNL     1       4.329  -3.861  26.554  0.00  0.00    +0.146 HD
BRANCH  31  34
ATOM     33  C   UNL     1       4.523  -6.533  27.674  0.00  0.00    +0.027 C 
ATOM     34  C   UNL     1       3.660  -5.294  27.926  0.00  0.00    +0.064 C 
ATOM     35  C   UNL     1       4.300  -4.447  29.027  0.00  0.00    +0.027 C 
ENDBRANCH  31  34
ENDBRANCH  25  31
ENDBRANCH   1  30
TORSDOF 6
ENDMDL
MODEL 5
REMARK VINA RESULT:      -7.6      1.475      2.968
REMARK  Name = 
REMARK  9 active torsions:
REMARK  status: ('A' for Active; 'I' for Inactive)
REMARK    1  A    between atoms: C_1  and  C_2
REMARK    2  A    between atoms: C_2  and  C_3
REMARK    3  A    between atoms: C_2  and  N_4
REMARK    4  A    between atoms: N_4  and  C_5
REMARK    5  A    between atoms: C_6  and  N_11
REMARK    6  A    between atoms: C_17  and  C_19
REMARK    7  A    between atoms: C_26  and  N_27
REMARK    8  A    between atoms: N_27  and  S_28
REMARK    9  A    between atoms: S_28  and  C_29
REMARK                            x       y       z     vdW  Elec       q    Type
REMARK                         _______ _______ _______ _____ _____    ______ ____
ROOT
ATOM      1  N   UNL     1      10.118   2.261  23.387  0.00  0.00    -0.311 N 
ATOM      2  C   UNL     1       9.484   1.576  24.523  0.00  0.00    +0.125 C 
ATOM      3  C   UNL     1       9.820   0.068  24.478  0.00  0.00    +0.127 C 
ATOM      4  N   UNL     1       9.466  -0.500  23.167  0.00  0.00    -0.293 N 
ATOM      5  C   UNL     1       8.607  -1.550  22.855  0.00  0.00    +0.263 C 
ATOM      6  O   UNL     1       8.422  -1.877  21.681  0.00  0.00    -0.268 OA
ATOM      7  C   UNL     1      10.170   0.175  22.071  0.00  0.00    +0.127 C 
ATOM      8  C   UNL     1       9.878   1.682  22.067  0.00  0.00    +0.125 C 
ENDROOT
BRANCH   5   9
ATOM      9  C   UNL     1       7.999  -2.346  23.901  0.00  0.00    +0.103 A 
ATOM     10  N   UNL     1       6.678  -2.122  24.252  0.00  0.00    -0.351 N 
ATOM     11  H   UNL     1       6.119  -1.378  23.854  0.00  0.00    +0.166 HD
ATOM     12  C   UNL     1       6.206  -3.132  25.055  0.00  0.00    +0.047 A 
ATOM     13  C   UNL     1       4.916  -3.408  25.515  0.00  0.00    +0.028 A 
ATOM     14  C   UNL     1       4.738  -4.573  26.272  0.00  0.00    +0.026 A 
ATOM     15  C   UNL     1       5.821  -5.406  26.561  0.00  0.00    +0.048 A 
ATOM     16  C   UNL     1       7.115  -5.071  26.156  0.00  0.00    +0.034 A 
ATOM     17  C   UNL     1       7.306  -3.923  25.374  0.00  0.00    +0.002 A 
ATOM     18  C   UNL     1       8.443  -3.337  24.756  0.00  0.00    +0.041 A 
BRANCH  15  19
ATOM     19  N   UNL     1       5.622  -6.619  27.281  0.00  0.00    -0.221 N 
ATOM     20  H   UNL     1       4.795  -7.160  27.018  0.00  0.00    +0.173 HD
BRANCH  19  21
ATOM     21  S   UNL     1       5.776  -6.577  28.959  0.00  0.00    +0.040 S 
ATOM     22  O   UNL     1       5.997  -5.182  29.288  0.00  0.00    -0.155 OA
ATOM     23  O   UNL     1       6.693  -7.601  29.397  0.00  0.00    -0.155 OA
ATOM     24  C   UNL     1       4.126  -6.995  29.486  0.00  0.00    +0.218 C 
ENDBRANCH  19  21
ENDBRANCH  15  19
ENDBRANCH   5   9
BRANCH   1  30
ATOM     25  C   UNL     1       9.619   4.632  23.942  0.00  0.00    +0.068 A 
ATOM     26  C   UNL     1      10.149   5.932  23.951  0.00  0.00    +0.028 A 
ATOM     27  C   UNL     1      11.494   6.162  23.695  0.00  0.00    +0.022 A 
ATOM     28  C   UNL     1      12.293   5.070  23.451  0.00  0.00    +0.113 A 
ATOM     29  N   UNL     1      11.831   3.804  23.385  0.00  0.00    -0.238 NA
ATOM     30  C   UNL     1      10.505   3.575  23.584  0.00  0.00    +0.142 A 
BRANCH  25  31
ATOM     31  N   UNL     1       8.310   4.391  24.376  0.00  0.00    -0.339 N 
ATOM     32  H   UNL     1       8.204   3.512  24.861  0.00  0.00    +0.146 HD
BRANCH  31  34
ATOM     33  C   UNL     1       7.157   4.364  22.249  0.00  0.00    +0.027 C 
ATOM     34  C   UNL     1       7.111   4.865  23.695  0.00  0.00    +0.064 C 
ATOM     35  C   UNL     1       5.860   4.314  24.381  0.00  0.00    +0.027 C 
ENDBRANCH  31  34
ENDBRANCH  25  31
ENDBRANCH   1  30
TORSDOF 6
ENDMDL
MODEL 6
REMARK VINA RESULT:      -7.5      3.540      9.922
REMARK  Name = 
REMARK  9 active torsions:
REMARK  status: ('A' for Active; 'I' for Inactive)
REMARK    1  A    between atoms: C_1  and  C_2
REMARK    2  A    between atoms: C_2  and  C_3
REMARK    3  A    between atoms: C_2  and  N_4
REMARK    4  A    between atoms: N_4  and  C_5
REMARK    5  A    between atoms: C_6  and  N_11
REMARK    6  A    between atoms: C_17  and  C_19
REMARK    7  A    between atoms: C_26  and  N_27
REMARK    8  A    between atoms: N_27  and  S_28
REMARK    9  A    between atoms: S_28  and  C_29
REMARK                            x       y       z     vdW  Elec       q    Type
REMARK                         _______ _______ _______ _____ _____    ______ ____
ROOT
ATOM      1  N   UNL     1       5.576  -4.491  26.310  0.00  0.00    -0.311 N 
ATOM      2  C   UNL     1       5.858  -3.070  26.063  0.00  0.00    +0.125 C 
ATOM      3  C   UNL     1       6.634  -2.914  24.736  0.00  0.00    +0.127 C 
ATOM      4  N   UNL     1       7.834  -3.767  24.737  0.00  0.00    -0.293 N 
ATOM      5  C   UNL     1       9.172  -3.421  24.574  0.00  0.00    +0.263 C 
ATOM      6  O   UNL     1      10.050  -4.286  24.621  0.00  0.00    -0.268 OA
ATOM      7  C   UNL     1       7.497  -5.182  24.924  0.00  0.00    +0.127 C 
ATOM      8  C   UNL     1       6.717  -5.400  26.229  0.00  0.00    +0.125 C 
ENDROOT
BRANCH   5   9
ATOM      9  C   UNL     1       9.552  -2.064  24.241  0.00  0.00    +0.103 A 
ATOM     10  N   UNL     1       9.688  -1.697  22.912  0.00  0.00    -0.351 N 
ATOM     11  H   UNL     1       9.595  -2.352  22.146  0.00  0.00    +0.166 HD
ATOM     12  C   UNL     1       9.785  -0.333  22.788  0.00  0.00    +0.047 A 
ATOM     13  C   UNL     1       9.778   0.486  21.655  0.00  0.00    +0.028 A 
ATOM     14  C   UNL     1       9.820   1.871  21.862  0.00  0.00    +0.026 A 
ATOM     15  C   UNL     1       9.885   2.396  23.154  0.00  0.00    +0.048 A 
ATOM     16  C   UNL     1       9.968   1.558  24.268  0.00  0.00    +0.034 A 
ATOM     17  C   UNL     1       9.899   0.169  24.081  0.00  0.00    +0.002 A 
ATOM     18  C   UNL     1       9.890  -0.939  24.968  0.00  0.00    +0.041 A 
BRANCH  15  19
ATOM     19  N   UNL     1       9.869   3.806  23.358  0.00  0.00    -0.221 N 
ATOM     20  H   UNL     1      10.572   4.168  24.005  0.00  0.00    +0.173 HD
BRANCH  19  21
ATOM     21  S   UNL     1       8.381   4.545  23.646  0.00  0.00    +0.040 S 
ATOM     22  O   UNL     1       7.387   3.525  23.376  0.00  0.00    -0.155 OA
ATOM     23  O   UNL     1       8.332   5.828  22.987  0.00  0.00    -0.155 OA
ATOM     24  C   UNL     1       8.432   4.788  25.410  0.00  0.00    +0.218 C 
ENDBRANCH  19  21
ENDBRANCH  15  19
ENDBRANCH   5   9
BRANCH   1  30
ATOM     25  C   UNL     1       3.261  -5.392  26.407  0.00  0.00    +0.068 A 
ATOM     26  C   UNL     1       2.111  -5.484  27.208  0.00  0.00    +0.028 A 
ATOM     27  C   UNL     1       2.124  -5.075  28.534  0.00  0.00    +0.022 A 
ATOM     28  C   UNL     1       3.307  -4.593  29.042  0.00  0.00    +0.113 A 
ATOM     29  N   UNL     1       4.429  -4.439  28.310  0.00  0.00    -0.238 NA
ATOM     30  C   UNL     1       4.412  -4.789  26.995  0.00  0.00    +0.142 A 
BRANCH  25  31
ATOM     31  N   UNL     1       3.293  -5.971  25.133  0.00  0.00    -0.339 N 
ATOM     32  H   UNL     1       4.055  -6.621  25.007  0.00  0.00    +0.146 HD
BRANCH  31  34
ATOM     33  C   UNL     1       4.076  -4.919  23.100  0.00  0.00    +0.027 C 
ATOM     34  C   UNL     1       2.840  -5.313  23.913  0.00  0.00    +0.064 C 
ATOM     35  C   UNL     1       1.976  -6.267  23.088  0.00  0.00    +0.027 C 
ENDBRANCH  31  34
ENDBRANCH  25  31
ENDBRANCH   1  30
TORSDOF 6
ENDMDL
MODEL 7
REMARK VINA RESULT:      -7.4      1.907      2.155
REMARK  Name = 
REMARK  9 active torsions:
REMARK  status: ('A' for Active; 'I' for Inactive)
REMARK    1  A    between atoms: C_1  and  C_2
REMARK    2  A    between atoms: C_2  and  C_3
REMARK    3  A    between atoms: C_2  and  N_4
REMARK    4  A    between atoms: N_4  and  C_5
REMARK    5  A    between atoms: C_6  and  N_11
REMARK    6  A    between atoms: C_17  and  C_19
REMARK    7  A    between atoms: C_26  and  N_27
REMARK    8  A    between atoms: N_27  and  S_28
REMARK    9  A    between atoms: S_28  and  C_29
REMARK                            x       y       z     vdW  Elec       q    Type
REMARK                         _______ _______ _______ _____ _____    ______ ____
ROOT
ATOM      1  N   UNL     1       8.794   2.557  23.041  0.00  0.00    -0.311 N 
ATOM      2  C   UNL     1       7.696   1.595  23.219  0.00  0.00    +0.125 C 
ATOM      3  C   UNL     1       8.200   0.369  24.014  0.00  0.00    +0.127 C 
ATOM      4  N   UNL     1       9.395  -0.204  23.374  0.00  0.00    -0.293 N 
ATOM      5  C   UNL     1       9.617  -1.492  22.894  0.00  0.00    +0.263 C 
ATOM      6  O   UNL     1      10.693  -1.785  22.369  0.00  0.00    -0.268 OA
ATOM      7  C   UNL     1      10.483   0.774  23.275  0.00  0.00    +0.127 C 
ATOM      8  C   UNL     1      10.040   2.022  22.497  0.00  0.00    +0.125 C 
ENDROOT
BRANCH   5   9
ATOM      9  C   UNL     1       8.636  -2.537  23.096  0.00  0.00    +0.103 A 
ATOM     10  N   UNL     1       8.715  -3.343  24.221  0.00  0.00    -0.351 N 
ATOM     11  H   UNL     1       9.469  -3.282  24.892  0.00  0.00    +0.166 HD
ATOM     12  C   UNL     1       7.567  -4.082  24.375  0.00  0.00    +0.047 A 
ATOM     13  C   UNL     1       7.138  -4.897  25.426  0.00  0.00    +0.028 A 
ATOM     14  C   UNL     1       5.864  -5.470  25.318  0.00  0.00    +0.026 A 
ATOM     15  C   UNL     1       5.074  -5.240  24.191  0.00  0.00    +0.048 A 
ATOM     16  C   UNL     1       5.553  -4.484  23.118  0.00  0.00    +0.034 A 
ATOM     17  C   UNL     1       6.815  -3.880  23.221  0.00  0.00    +0.002 A 
ATOM     18  C   UNL     1       7.562  -3.021  22.373  0.00  0.00    +0.041 A 
BRANCH  15  19
ATOM     19  N   UNL     1       3.757  -5.777  24.114  0.00  0.00    -0.221 N 
ATOM     20  H   UNL     1       3.410  -5.969  23.172  0.00  0.00    +0.173 HD
BRANCH  19  21
ATOM     21  S   UNL     1       2.550  -5.046  25.038  0.00  0.00    +0.040 S 
ATOM     22  O   UNL     1       2.809  -3.622  24.947  0.00  0.00    -0.155 OA
ATOM     23  O   UNL     1       2.440  -5.704  26.316  0.00  0.00    -0.155 OA
ATOM     24  C   UNL     1       1.095  -5.387  24.068  0.00  0.00    +0.218 C 
ENDBRANCH  19  21
ENDBRANCH  15  19
ENDBRANCH   5   9
BRANCH   1  30
ATOM     25  C   UNL     1       9.250   4.957  23.504  0.00  0.00    +0.068 A 
ATOM     26  C   UNL     1       8.683   6.241  23.501  0.00  0.00    +0.028 A 
ATOM     27  C   UNL     1       7.432   6.474  22.948  0.00  0.00    +0.022 A 
ATOM     28  C   UNL     1       6.774   5.405  22.384  0.00  0.00    +0.113 A 
ATOM     29  N   UNL     1       7.248   4.143  22.398  0.00  0.00    -0.238 NA
ATOM     30  C   UNL     1       8.451   3.896  22.985  0.00  0.00    +0.142 A 
BRANCH  25  31
ATOM     31  N   UNL     1      10.579   4.762  23.897  0.00  0.00    -0.339 N 
ATOM     32  H   UNL     1      10.671   4.275  24.776  0.00  0.00    +0.146 HD
BRANCH  31  34
ATOM     33  C   UNL     1      12.054   6.422  24.859  0.00  0.00    +0.027 C 
ATOM     34  C   UNL     1      11.676   5.669  23.580  0.00  0.00    +0.064 C 
ATOM     35  C   UNL     1      12.888   4.878  23.084  0.00  0.00    +0.027 C 
ENDBRANCH  31  34
ENDBRANCH  25  31
ENDBRANCH   1  30
TORSDOF 6
ENDMDL
MODEL 8
REMARK VINA RESULT:      -7.3      3.004      3.997
REMARK  Name = 
REMARK  9 active torsions:
REMARK  status: ('A' for Active; 'I' for Inactive)
REMARK    1  A    between atoms: C_1  and  C_2
REMARK    2  A    between atoms: C_2  and  C_3
REMARK    3  A    between atoms: C_2  and  N_4
REMARK    4  A    between atoms: N_4  and  C_5
REMARK    5  A    between atoms: C_6  and  N_11
REMARK    6  A    between atoms: C_17  and  C_19
REMARK    7  A    between atoms: C_26  and  N_27
REMARK    8  A    between atoms: N_27  and  S_28
REMARK    9  A    between atoms: S_28  and  C_29
REMARK                            x       y       z     vdW  Elec       q    Type
REMARK                         _______ _______ _______ _____ _____    ______ ____
ROOT
ATOM      1  N   UNL     1       8.185   1.206  24.040  0.00  0.00    -0.311 N 
ATOM      2  C   UNL     1       7.112   0.204  23.971  0.00  0.00    +0.125 C 
ATOM      3  C   UNL     1       7.463  -1.001  24.873  0.00  0.00    +0.127 C 
ATOM      4  N   UNL     1       8.794  -1.530  24.532  0.00  0.00    -0.293 N 
ATOM      5  C   UNL     1       9.167  -2.809  24.131  0.00  0.00    +0.263 C 
ATOM      6  O   UNL     1      10.345  -3.062  23.870  0.00  0.00    -0.268 OA
ATOM      7  C   UNL     1       9.839  -0.511  24.676  0.00  0.00    +0.127 C 
ATOM      8  C   UNL     1       9.542   0.717  23.803  0.00  0.00    +0.125 C 
ENDROOT
BRANCH   5   9
ATOM      9  C   UNL     1       8.204  -3.890  24.113  0.00  0.00    +0.103 A 
ATOM     10  N   UNL     1       7.780  -4.449  25.307  0.00  0.00    -0.351 N 
ATOM     11  H   UNL     1       8.156  -4.181  26.207  0.00  0.00    +0.166 HD
ATOM     12  C   UNL     1       6.687  -5.259  25.108  0.00  0.00    +0.047 A 
ATOM     13  C   UNL     1       5.840  -5.894  26.021  0.00  0.00    +0.028 A 
ATOM     14  C   UNL     1       4.751  -6.605  25.501  0.00  0.00    +0.026 A 
ATOM     15  C   UNL     1       4.543  -6.680  24.122  0.00  0.00    +0.048 A 
ATOM     16  C   UNL     1       5.445  -6.103  23.225  0.00  0.00    +0.034 A 
ATOM     17  C   UNL     1       6.526  -5.364  23.729  0.00  0.00    +0.002 A 
ATOM     18  C   UNL     1       7.567  -4.614  23.122  0.00  0.00    +0.041 A 
BRANCH  15  19
ATOM     19  N   UNL     1       3.401  -7.355  23.604  0.00  0.00    -0.221 N 
ATOM     20  H   UNL     1       3.584  -8.027  22.856  0.00  0.00    +0.173 HD
BRANCH  19  21
ATOM     21  S   UNL     1       2.039  -6.432  23.232  0.00  0.00    +0.040 S 
ATOM     22  O   UNL     1       1.362  -7.158  22.175  0.00  0.00    -0.155 OA
ATOM     23  O   UNL     1       2.411  -5.048  23.068  0.00  0.00    -0.155 OA
ATOM     24  C   UNL     1       1.064  -6.611  24.713  0.00  0.00    +0.218 C 
ENDBRANCH  19  21
ENDBRANCH  15  19
ENDBRANCH   5   9
BRANCH   1  30
ATOM     25  C   UNL     1       7.420   3.384  24.963  0.00  0.00    +0.068 A 
ATOM     26  C   UNL     1       6.930   4.654  24.619  0.00  0.00    +0.028 A 
ATOM     27  C   UNL     1       6.905   5.081  23.299  0.00  0.00    +0.022 A 
ATOM     28  C   UNL     1       7.394   4.225  22.341  0.00  0.00    +0.113 A 
ATOM     29  N   UNL     1       7.835   2.978  22.606  0.00  0.00    -0.238 NA
ATOM     30  C   UNL     1       7.816   2.531  23.891  0.00  0.00    +0.142 A 
BRANCH  25  31
ATOM     31  N   UNL     1       7.611   3.030  26.304  0.00  0.00    -0.339 N 
ATOM     32  H   UNL     1       8.540   2.688  26.500  0.00  0.00    +0.146 HD
BRANCH  31  34
ATOM     33  C   UNL     1       7.120   1.274  27.894  0.00  0.00    +0.027 C 
ATOM     34  C   UNL     1       6.568   2.511  27.180  0.00  0.00    +0.064 C 
ATOM     35  C   UNL     1       6.177   3.563  28.219  0.00  0.00    +0.027 C 
ENDBRANCH  31  34
ENDBRANCH  25  31
ENDBRANCH   1  30
TORSDOF 6
ENDMDL
MODEL 9
REMARK VINA RESULT:      -7.2      3.630      9.880
REMARK  Name = 
REMARK  9 active torsions:
REMARK  status: ('A' for Active; 'I' for Inactive)
REMARK    1  A    between atoms: C_1  and  C_2
REMARK    2  A    between atoms: C_2  and  C_3
REMARK    3  A    between atoms: C_2  and  N_4
REMARK    4  A    between atoms: N_4  and  C_5
REMARK    5  A    between atoms: C_6  and  N_11
REMARK    6  A    between atoms: C_17  and  C_19
REMARK    7  A    between atoms: C_26  and  N_27
REMARK    8  A    between atoms: N_27  and  S_28
REMARK    9  A    between atoms: S_28  and  C_29
REMARK                            x       y       z     vdW  Elec       q    Type
REMARK                         _______ _______ _______ _____ _____    ______ ____
ROOT
ATOM      1  N   UNL     1       7.099  -4.703  26.043  0.00  0.00    -0.311 N 
ATOM      2  C   UNL     1       6.936  -3.245  26.134  0.00  0.00    +0.125 C 
ATOM      3  C   UNL     1       7.156  -2.606  24.744  0.00  0.00    +0.127 C 
ATOM      4  N   UNL     1       8.450  -3.027  24.182  0.00  0.00    -0.293 N 
ATOM      5  C   UNL     1       9.531  -2.256  23.765  0.00  0.00    +0.263 C 
ATOM      6  O   UNL     1      10.551  -2.796  23.330  0.00  0.00    -0.268 OA
ATOM      7  C   UNL     1       8.541  -4.485  24.052  0.00  0.00    +0.127 C 
ATOM      8  C   UNL     1       8.326  -5.178  25.406  0.00  0.00    +0.125 C 
ENDROOT
BRANCH   5   9
ATOM      9  C   UNL     1       9.443  -0.811  23.732  0.00  0.00    +0.103 A 
ATOM     10  N   UNL     1       8.976  -0.179  22.592  0.00  0.00    -0.351 N 
ATOM     11  H   UNL     1       8.746  -0.675  21.740  0.00  0.00    +0.166 HD
ATOM     12  C   UNL     1       8.712   1.147  22.839  0.00  0.00    +0.047 A 
ATOM     13  C   UNL     1       8.092   2.119  22.050  0.00  0.00    +0.028 A 
ATOM     14  C   UNL     1       7.901   3.384  22.619  0.00  0.00    +0.026 A 
ATOM     15  C   UNL     1       8.335   3.653  23.919  0.00  0.00    +0.048 A 
ATOM     16  C   UNL     1       9.021   2.689  24.662  0.00  0.00    +0.034 A 
ATOM     17  C   UNL     1       9.196   1.408  24.117  0.00  0.00    +0.002 A 
ATOM     18  C   UNL     1       9.774   0.207  24.606  0.00  0.00    +0.041 A 
BRANCH  15  19
ATOM     19  N   UNL     1       8.085   4.923  24.512  0.00  0.00    -0.221 N 
ATOM     20  H   UNL     1       8.912   5.487  24.719  0.00  0.00    +0.173 HD
BRANCH  19  21
ATOM     21  S   UNL     1       7.000   4.994  25.801  0.00  0.00    +0.040 S 
ATOM     22  O   UNL     1       6.430   6.326  25.750  0.00  0.00    -0.155 OA
ATOM     23  O   UNL     1       7.627   4.497  27.002  0.00  0.00    -0.155 OA
ATOM     24  C   UNL     1       5.737   3.851  25.276  0.00  0.00    +0.218 C 
ENDBRANCH  19  21
ENDBRANCH  15  19
ENDBRANCH   5   9
BRANCH   1  30
ATOM     25  C   UNL     1       5.186  -6.215  26.525  0.00  0.00    +0.068 A 
ATOM     26  C   UNL     1       4.447  -6.819  27.555  0.00  0.00    +0.028 A 
ATOM     27  C   UNL     1       4.870  -6.755  28.875  0.00  0.00    +0.022 A 
ATOM     28  C   UNL     1       6.049  -6.098  29.137  0.00  0.00    +0.113 A 
ATOM     29  N   UNL     1       6.776  -5.461  28.196  0.00  0.00    -0.238 NA
ATOM     30  C   UNL     1       6.342  -5.474  26.906  0.00  0.00    +0.142 A 
BRANCH  25  31
ATOM     31  N   UNL     1       4.853  -6.435  25.183  0.00  0.00    -0.339 N 
ATOM     32  H   UNL     1       5.479  -7.073  24.714  0.00  0.00    +0.146 HD
BRANCH  31  34
ATOM     33  C   UNL     1       4.925  -5.486  22.958  0.00  0.00    +0.027 C 
ATOM     34  C   UNL     1       4.217  -5.451  24.316  0.00  0.00    +0.064 C 
ATOM     35  C   UNL     1       2.738  -5.793  24.123  0.00  0.00    +0.027 C 
ENDBRANCH  31  34
ENDBRANCH  25  31
ENDBRANCH   1  30
TORSDOF 6
ENDMDL
