MODEL 1
REMARK VINA RESULT:      -6.9      0.000      0.000
REMARK  Name = 
REMARK  4 active torsions:
REMARK  status: ('A' for Active; 'I' for Inactive)
REMARK    1  A    between atoms: C_1  and  C_2
REMARK    2  A    between atoms: C_6  and  C_8
REMARK    3  A    between atoms: C_10  and  N_11
REMARK    4  A    between atoms: N_11  and  C_12
REMARK                            x       y       z     vdW  Elec       q    Type
REMARK                         _______ _______ _______ _____ _____    ______ ____
ROOT
ATOM      1  C   UNL     1       8.383  -1.792  23.178  0.00  0.00    +0.181 A 
ATOM      2  N   UNL     1       7.770  -2.377  22.129  0.00  0.00    -0.226 NA
ATOM      3  C   UNL     1       7.243  -3.589  22.323  0.00  0.00    +0.077 A 
ATOM      4  C   UNL     1       7.297  -4.259  23.552  0.00  0.00    +0.040 A 
ATOM      5  C   UNL     1       6.675  -5.527  23.685  0.00  0.00    +0.013 A 
ATOM      6  C   UNL     1       6.018  -6.115  22.605  0.00  0.00    +0.001 A 
ATOM      7  C   UNL     1       5.994  -5.458  21.383  0.00  0.00    +0.002 A 
ATOM      8  C   UNL     1       8.013  -3.596  24.561  0.00  0.00    +0.135 A 
ATOM      9  C   UNL     1       6.605  -4.208  21.255  0.00  0.00    +0.028 A 
ATOM     10  N   UNL     1       8.544  -2.379  24.373  0.00  0.00    -0.210 NA
ENDROOT
BRANCH   1  14
ATOM     11  C   UNL     1       8.407   2.706  24.991  0.00  0.00    +0.065 C 
ATOM     12  C   UNL     1       8.826   1.797  23.877  0.00  0.00    +0.039 A 
ATOM     13  N   UNL     1       8.480   0.494  24.000  0.00  0.00    -0.249 NA
ATOM     14  C   UNL     1       8.843  -0.389  23.025  0.00  0.00    +0.108 A 
ATOM     15  C   UNL     1       9.579   0.035  21.918  0.00  0.00    +0.031 A 
ATOM     16  C   UNL     1       9.935   1.377  21.802  0.00  0.00    +0.004 A 
ATOM     17  C   UNL     1       9.552   2.272  22.794  0.00  0.00    +0.023 A 
ENDBRANCH   1  14
BRANCH   8  18
ATOM     18  N   UNL     1       8.161  -4.200  25.838  0.00  0.00    -0.299 N 
ATOM     19  H   UNL     1       8.698  -5.056  25.733  0.00  0.00    +0.154 HD
BRANCH  18  20
ATOM     20  C   UNL     1       7.136  -4.321  26.808  0.00  0.00    +0.035 A 
ATOM     21  C   UNL     1       7.000  -5.476  27.585  0.00  0.00    +0.043 A 
ATOM     22  C   UNL     1       5.940  -5.571  28.472  0.00  0.00    +0.112 A 
ATOM     23  N   UNL     1       5.002  -4.614  28.629  0.00  0.00    -0.263 NA
ATOM     24  C   UNL     1       5.140  -3.515  27.860  0.00  0.00    +0.112 A 
ATOM     25  C   UNL     1       6.163  -3.330  26.940  0.00  0.00    +0.043 A 
ENDBRANCH  18  20
ENDBRANCH   8  18
TORSDOF 3
ENDMDL
MODEL 2
REMARK VINA RESULT:      -6.8      1.547      1.931
REMARK  Name = 
REMARK  4 active torsions:
REMARK  status: ('A' for Active; 'I' for Inactive)
REMARK    1  A    between atoms: C_1  and  C_2
REMARK    2  A    between atoms: C_6  and  C_8
REMARK    3  A    between atoms: C_10  and  N_11
REMARK    4  A    between atoms: N_11  and  C_12
REMARK                            x       y       z     vdW  Elec       q    Type
REMARK                         _______ _______ _______ _____ _____    ______ ____
ROOT
ATOM      1  C   UNL     1       7.908  -2.266  23.962  0.00  0.00    +0.181 A 
ATOM      2  N   UNL     1       7.967  -3.063  22.876  0.00  0.00    -0.226 NA
ATOM      3  C   UNL     1       7.125  -4.099  22.826  0.00  0.00    +0.077 A 
ATOM      4  C   UNL     1       6.197  -4.379  23.838  0.00  0.00    +0.040 A 
ATOM      5  C   UNL     1       5.310  -5.475  23.688  0.00  0.00    +0.013 A 
ATOM      6  C   UNL     1       5.356  -6.280  22.550  0.00  0.00    +0.001 A 
ATOM      7  C   UNL     1       6.297  -6.012  21.565  0.00  0.00    +0.002 A 
ATOM      8  C   UNL     1       6.259  -3.532  24.955  0.00  0.00    +0.135 A 
ATOM      9  C   UNL     1       7.169  -4.930  21.714  0.00  0.00    +0.028 A 
ATOM     10  N   UNL     1       7.102  -2.490  25.010  0.00  0.00    -0.210 NA
ENDROOT
BRANCH   1  14
ATOM     11  C   UNL     1       8.908   1.967  21.817  0.00  0.00    +0.065 C 
ATOM     12  C   UNL     1       9.243   1.002  22.913  0.00  0.00    +0.039 A 
ATOM     13  N   UNL     1       8.482  -0.115  22.984  0.00  0.00    -0.249 NA
ATOM     14  C   UNL     1       8.728  -1.029  23.967  0.00  0.00    +0.108 A 
ATOM     15  C   UNL     1       9.740  -0.814  24.904  0.00  0.00    +0.031 A 
ATOM     16  C   UNL     1      10.514   0.342  24.825  0.00  0.00    +0.004 A 
ATOM     17  C   UNL     1      10.264   1.263  23.815  0.00  0.00    +0.023 A 
ENDBRANCH   1  14
BRANCH   8  18
ATOM     18  N   UNL     1       5.387  -3.746  26.055  0.00  0.00    -0.299 N 
ATOM     19  H   UNL     1       5.220  -2.856  26.516  0.00  0.00    +0.154 HD
BRANCH  18  20
ATOM     20  C   UNL     1       5.478  -4.822  26.972  0.00  0.00    +0.035 A 
ATOM     21  C   UNL     1       6.703  -5.200  27.533  0.00  0.00    +0.043 A 
ATOM     22  C   UNL     1       6.750  -6.301  28.372  0.00  0.00    +0.112 A 
ATOM     23  N   UNL     1       5.675  -7.058  28.679  0.00  0.00    -0.263 NA
ATOM     24  C   UNL     1       4.507  -6.688  28.117  0.00  0.00    +0.112 A 
ATOM     25  C   UNL     1       4.362  -5.606  27.260  0.00  0.00    +0.043 A 
ENDBRANCH  18  20
ENDBRANCH   8  18
TORSDOF 3
ENDMDL
MODEL 3
REMARK VINA RESULT:      -6.6      1.697      6.454
REMARK  Name = 
REMARK  4 active torsions:
REMARK  status: ('A' for Active; 'I' for Inactive)
REMARK    1  A    between atoms: C_1  and  C_2
REMARK    2  A    between atoms: C_6  and  C_8
REMARK    3  A    between atoms: C_10  and  N_11
REMARK    4  A    between atoms: N_11  and  C_12
REMARK                            x       y       z     vdW  Elec       q    Type
REMARK                         _______ _______ _______ _____ _____    ______ ____
ROOT
ATOM      1  C   UNL     1       6.298  -5.027  26.443  0.00  0.00    +0.181 A 
ATOM      2  N   UNL     1       5.515  -5.524  25.464  0.00  0.00    -0.226 NA
ATOM      3  C   UNL     1       5.987  -5.480  24.216  0.00  0.00    +0.077 A 
ATOM      4  C   UNL     1       7.244  -4.953  23.892  0.00  0.00    +0.040 A 
ATOM      5  C   UNL     1       7.688  -4.981  22.546  0.00  0.00    +0.013 A 
ATOM      6  C   UNL     1       6.886  -5.522  21.542  0.00  0.00    +0.001 A 
ATOM      7  C   UNL     1       5.631  -6.017  21.866  0.00  0.00    +0.002 A 
ATOM      8  C   UNL     1       7.954  -4.401  24.970  0.00  0.00    +0.135 A 
ATOM      9  C   UNL     1       5.196  -5.989  23.194  0.00  0.00    +0.028 A 
ATOM     10  N   UNL     1       7.485  -4.442  26.226  0.00  0.00    -0.210 NA
ENDROOT
BRANCH   1  14
ATOM     11  C   UNL     1       3.583  -3.352  30.096  0.00  0.00    +0.065 C 
ATOM     12  C   UNL     1       4.575  -4.375  29.631  0.00  0.00    +0.039 A 
ATOM     13  N   UNL     1       4.964  -4.292  28.338  0.00  0.00    -0.249 NA
ATOM     14  C   UNL     1       5.856  -5.202  27.849  0.00  0.00    +0.108 A 
ATOM     15  C   UNL     1       6.352  -6.221  28.662  0.00  0.00    +0.031 A 
ATOM     16  C   UNL     1       5.941  -6.301  29.991  0.00  0.00    +0.004 A 
ATOM     17  C   UNL     1       5.041  -5.365  30.485  0.00  0.00    +0.023 A 
ENDBRANCH   1  14
BRANCH   8  18
ATOM     18  N   UNL     1       9.225  -3.807  24.750  0.00  0.00    -0.299 N 
ATOM     19  H   UNL     1       9.870  -4.147  25.458  0.00  0.00    +0.154 HD
BRANCH  18  20
ATOM     20  C   UNL     1       9.446  -2.446  24.427  0.00  0.00    +0.035 A 
ATOM     21  C   UNL     1       8.956  -1.415  25.237  0.00  0.00    +0.043 A 
ATOM     22  C   UNL     1       9.140  -0.101  24.841  0.00  0.00    +0.112 A 
ATOM     23  N   UNL     1       9.759   0.261  23.697  0.00  0.00    -0.263 NA
ATOM     24  C   UNL     1      10.211  -0.746  22.922  0.00  0.00    +0.112 A 
ATOM     25  C   UNL     1      10.068  -2.091  23.230  0.00  0.00    +0.043 A 
ENDBRANCH  18  20
ENDBRANCH   8  18
TORSDOF 3
ENDMDL
MODEL 4
REMARK VINA RESULT:      -6.5      3.334      7.797
REMARK  Name = 
REMARK  4 active torsions:
REMARK  status: ('A' for Active; 'I' for Inactive)
REMARK    1  A    between atoms: C_1  and  C_2
REMARK    2  A    between atoms: C_6  and  C_8
REMARK    3  A    between atoms: C_10  and  N_11
REMARK    4  A    between atoms: N_11  and  C_12
REMARK                            x       y       z     vdW  Elec       q    Type
REMARK                         _______ _______ _______ _____ _____    ______ ____
ROOT
ATOM      1  C   UNL     1       9.038   1.286  23.554  0.00  0.00    +0.181 A 
ATOM      2  N   UNL     1      10.250   1.842  23.352  0.00  0.00    -0.226 NA
ATOM      3  C   UNL     1      10.355   3.164  23.514  0.00  0.00    +0.077 A 
ATOM      4  C   UNL     1       9.276   3.977  23.885  0.00  0.00    +0.040 A 
ATOM      5  C   UNL     1       9.483   5.367  24.077  0.00  0.00    +0.013 A 
ATOM      6  C   UNL     1      10.744   5.932  23.894  0.00  0.00    +0.001 A 
ATOM      7  C   UNL     1      11.801   5.125  23.500  0.00  0.00    +0.002 A 
ATOM      8  C   UNL     1       8.045   3.315  24.006  0.00  0.00    +0.135 A 
ATOM      9  C   UNL     1      11.596   3.755  23.313  0.00  0.00    +0.028 A 
ATOM     10  N   UNL     1       7.933   1.988  23.845  0.00  0.00    -0.210 NA
ENDROOT
BRANCH   1  14
ATOM     11  C   UNL     1       6.284  -2.583  22.575  0.00  0.00    +0.065 C 
ATOM     12  C   UNL     1       7.594  -2.069  23.089  0.00  0.00    +0.039 A 
ATOM     13  N   UNL     1       7.758  -0.726  23.081  0.00  0.00    -0.249 NA
ATOM     14  C   UNL     1       8.934  -0.194  23.525  0.00  0.00    +0.108 A 
ATOM     15  C   UNL     1       9.968  -1.020  23.967  0.00  0.00    +0.031 A 
ATOM     16  C   UNL     1       9.791  -2.402  23.967  0.00  0.00    +0.004 A 
ATOM     17  C   UNL     1       8.587  -2.936  23.524  0.00  0.00    +0.023 A 
ENDBRANCH   1  14
BRANCH   8  18
ATOM     18  N   UNL     1       6.877   4.049  24.344  0.00  0.00    -0.299 N 
ATOM     19  H   UNL     1       6.964   4.376  25.302  0.00  0.00    +0.154 HD
BRANCH  18  20
ATOM     20  C   UNL     1       5.552   3.669  24.020  0.00  0.00    +0.035 A 
ATOM     21  C   UNL     1       5.071   3.747  22.708  0.00  0.00    +0.043 A 
ATOM     22  C   UNL     1       3.747   3.428  22.455  0.00  0.00    +0.112 A 
ATOM     23  N   UNL     1       2.868   3.053  23.409  0.00  0.00    -0.263 NA
ATOM     24  C   UNL     1       3.346   2.998  24.669  0.00  0.00    +0.112 A 
ATOM     25  C   UNL     1       4.652   3.305  25.022  0.00  0.00    +0.043 A 
ENDBRANCH  18  20
ENDBRANCH   8  18
TORSDOF 3
ENDMDL
MODEL 5
REMARK VINA RESULT:      -6.5      2.313      6.065
REMARK  Name = 
REMARK  4 active torsions:
REMARK  status: ('A' for Active; 'I' for Inactive)
REMARK    1  A    between atoms: C_1  and  C_2
REMARK    2  A    between atoms: C_6  and  C_8
REMARK    3  A    between atoms: C_10  and  N_11
REMARK    4  A    between atoms: N_11  and  C_12
REMARK                            x       y       z     vdW  Elec       q    Type
REMARK                         _______ _______ _______ _____ _____    ______ ____
ROOT
ATOM      1  C   UNL     1       7.735  -1.827  23.668  0.00  0.00    +0.181 A 
ATOM      2  N   UNL     1       8.309  -1.171  22.640  0.00  0.00    -0.226 NA
ATOM      3  C   UNL     1       8.913  -0.011  22.911  0.00  0.00    +0.077 A 
ATOM      4  C   UNL     1       8.976   0.536  24.199  0.00  0.00    +0.040 A 
ATOM      5  C   UNL     1       9.672   1.753  24.408  0.00  0.00    +0.013 A 
ATOM      6  C   UNL     1      10.289   2.414  23.346  0.00  0.00    +0.001 A 
ATOM      7  C   UNL     1      10.198   1.880  22.069  0.00  0.00    +0.002 A 
ATOM      8  C   UNL     1       8.292  -0.188  25.187  0.00  0.00    +0.135 A 
ATOM      9  C   UNL     1       9.512   0.680  21.865  0.00  0.00    +0.028 A 
ATOM     10  N   UNL     1       7.684  -1.354  24.922  0.00  0.00    -0.210 NA
ENDROOT
BRANCH   1  14
ATOM     11  C   UNL     1       5.641  -5.787  25.527  0.00  0.00    +0.065 C 
ATOM     12  C   UNL     1       6.213  -5.117  24.314  0.00  0.00    +0.039 A 
ATOM     13  N   UNL     1       6.669  -3.855  24.483  0.00  0.00    -0.249 NA
ATOM     14  C   UNL     1       7.191  -3.185  23.415  0.00  0.00    +0.108 A 
ATOM     15  C   UNL     1       7.241  -3.781  22.154  0.00  0.00    +0.031 A 
ATOM     16  C   UNL     1       6.764  -5.080  21.990  0.00  0.00    +0.004 A 
ATOM     17  C   UNL     1       6.244  -5.760  23.085  0.00  0.00    +0.023 A 
ENDBRANCH   1  14
BRANCH   8  18
ATOM     18  N   UNL     1       8.261   0.293  26.524  0.00  0.00    -0.299 N 
ATOM     19  H   UNL     1       8.659  -0.415  27.134  0.00  0.00    +0.154 HD
BRANCH  18  20
ATOM     20  C   UNL     1       7.171   0.972  27.122  0.00  0.00    +0.035 A 
ATOM     21  C   UNL     1       6.210   0.287  27.874  0.00  0.00    +0.043 A 
ATOM     22  C   UNL     1       5.127   0.987  28.382  0.00  0.00    +0.112 A 
ATOM     23  N   UNL     1       4.924   2.306  28.182  0.00  0.00    -0.263 NA
ATOM     24  C   UNL     1       5.852   2.945  27.442  0.00  0.00    +0.112 A 
ATOM     25  C   UNL     1       6.965   2.331  26.887  0.00  0.00    +0.043 A 
ENDBRANCH  18  20
ENDBRANCH   8  18
TORSDOF 3
ENDMDL
MODEL 6
REMARK VINA RESULT:      -6.3      2.712      6.750
REMARK  Name = 
REMARK  4 active torsions:
REMARK  status: ('A' for Active; 'I' for Inactive)
REMARK    1  A    between atoms: C_1  and  C_2
REMARK    2  A    between atoms: C_6  and  C_8
REMARK    3  A    between atoms: C_10  and  N_11
REMARK    4  A    between atoms: N_11  and  C_12
REMARK                            x       y       z     vdW  Elec       q    Type
REMARK                         _______ _______ _______ _____ _____    ______ ____
ROOT
ATOM      1  C   UNL     1       7.942  -1.050  23.092  0.00  0.00    +0.181 A 
ATOM      2  N   UNL     1       9.182  -0.549  23.261  0.00  0.00    -0.226 NA
ATOM      3  C   UNL     1       9.301   0.777  23.361  0.00  0.00    +0.077 A 
ATOM      4  C   UNL     1       8.206   1.650  23.305  0.00  0.00    +0.040 A 
ATOM      5  C   UNL     1       8.416   3.044  23.461  0.00  0.00    +0.013 A 
ATOM      6  C   UNL     1       9.697   3.555  23.663  0.00  0.00    +0.001 A 
ATOM      7  C   UNL     1      10.779   2.687  23.690  0.00  0.00    +0.002 A 
ATOM      8  C   UNL     1       6.968   1.037  23.060  0.00  0.00    +0.135 A 
ATOM      9  C   UNL     1      10.571   1.314  23.537  0.00  0.00    +0.028 A 
ATOM     10  N   UNL     1       6.842  -0.294  22.959  0.00  0.00    -0.210 NA
ENDROOT
BRANCH   1  14
ATOM     11  C   UNL     1       9.175  -5.241  25.198  0.00  0.00    +0.065 C 
ATOM     12  C   UNL     1       8.394  -4.558  24.118  0.00  0.00    +0.039 A 
ATOM     13  N   UNL     1       8.471  -3.208  24.081  0.00  0.00    -0.249 NA
ATOM     14  C   UNL     1       7.772  -2.524  23.128  0.00  0.00    +0.108 A 
ATOM     15  C   UNL     1       6.971  -3.202  22.208  0.00  0.00    +0.031 A 
ATOM     16  C   UNL     1       6.894  -4.592  22.258  0.00  0.00    +0.004 A 
ATOM     17  C   UNL     1       7.617  -5.282  23.224  0.00  0.00    +0.023 A 
ENDBRANCH   1  14
BRANCH   8  18
ATOM     18  N   UNL     1       5.795   1.831  22.949  0.00  0.00    -0.299 N 
ATOM     19  H   UNL     1       5.977   2.592  22.302  0.00  0.00    +0.154 HD
BRANCH  18  20
ATOM     20  C   UNL     1       4.971   2.226  24.031  0.00  0.00    +0.035 A 
ATOM     21  C   UNL     1       5.119   1.664  25.304  0.00  0.00    +0.043 A 
ATOM     22  C   UNL     1       4.244   2.035  26.311  0.00  0.00    +0.112 A 
ATOM     23  N   UNL     1       3.229   2.908  26.141  0.00  0.00    -0.263 NA
ATOM     24  C   UNL     1       3.093   3.428  24.904  0.00  0.00    +0.112 A 
ATOM     25  C   UNL     1       3.914   3.113  23.831  0.00  0.00    +0.043 A 
ENDBRANCH  18  20
ENDBRANCH   8  18
TORSDOF 3
ENDMDL
MODEL 7
REMARK VINA RESULT:      -6.3      4.078      8.077
REMARK  Name = 
REMARK  4 active torsions:
REMARK  status: ('A' for Active; 'I' for Inactive)
REMARK    1  A    between atoms: C_1  and  C_2
REMARK    2  A    between atoms: C_6  and  C_8
REMARK    3  A    between atoms: C_10  and  N_11
REMARK    4  A    between atoms: N_11  and  C_12
REMARK                            x       y       z     vdW  Elec       q    Type
REMARK                         _______ _______ _______ _____ _____    ______ ____
ROOT
ATOM      1  C   UNL     1       7.678   1.887  25.634  0.00  0.00    +0.181 A 
ATOM      2  N   UNL     1       7.706   0.653  25.093  0.00  0.00    -0.226 NA
ATOM      3  C   UNL     1       8.294   0.516  23.902  0.00  0.00    +0.077 A 
ATOM      4  C   UNL     1       8.878   1.585  23.211  0.00  0.00    +0.040 A 
ATOM      5  C   UNL     1       9.520   1.347  21.969  0.00  0.00    +0.013 A 
ATOM      6  C   UNL     1       9.570   0.063  21.427  0.00  0.00    +0.001 A 
ATOM      7  C   UNL     1       8.965  -0.986  22.104  0.00  0.00    +0.002 A 
ATOM      8  C   UNL     1       8.739   2.839  23.825  0.00  0.00    +0.135 A 
ATOM      9  C   UNL     1       8.335  -0.749  23.329  0.00  0.00    +0.028 A 
ATOM     10  N   UNL     1       8.149   2.983  25.021  0.00  0.00    -0.210 NA
ENDROOT
BRANCH   1  14
ATOM     11  C   UNL     1       6.830   4.858  29.372  0.00  0.00    +0.065 C 
ATOM     12  C   UNL     1       6.785   3.457  28.844  0.00  0.00    +0.039 A 
ATOM     13  N   UNL     1       7.191   3.284  27.565  0.00  0.00    -0.249 NA
ATOM     14  C   UNL     1       7.163   2.033  27.019  0.00  0.00    +0.108 A 
ATOM     15  C   UNL     1       6.705   0.942  27.759  0.00  0.00    +0.031 A 
ATOM     16  C   UNL     1       6.284   1.132  29.074  0.00  0.00    +0.004 A 
ATOM     17  C   UNL     1       6.326   2.407  29.626  0.00  0.00    +0.023 A 
ENDBRANCH   1  14
BRANCH   8  18
ATOM     18  N   UNL     1       9.263   3.999  23.194  0.00  0.00    -0.299 N 
ATOM     19  H   UNL     1       9.243   3.859  22.188  0.00  0.00    +0.154 HD
BRANCH  18  20
ATOM     20  C   UNL     1      10.412   4.710  23.618  0.00  0.00    +0.035 A 
ATOM     21  C   UNL     1      10.306   5.862  24.407  0.00  0.00    +0.043 A 
ATOM     22  C   UNL     1      11.456   6.559  24.739  0.00  0.00    +0.112 A 
ATOM     23  N   UNL     1      12.694   6.206  24.333  0.00  0.00    -0.263 NA
ATOM     24  C   UNL     1      12.774   5.103  23.561  0.00  0.00    +0.112 A 
ATOM     25  C   UNL     1      11.681   4.344  23.171  0.00  0.00    +0.043 A 
ENDBRANCH  18  20
ENDBRANCH   8  18
TORSDOF 3
ENDMDL
MODEL 8
REMARK VINA RESULT:      -6.3      3.303      8.479
REMARK  Name = 
REMARK  4 active torsions:
REMARK  status: ('A' for Active; 'I' for Inactive)
REMARK    1  A    between atoms: C_1  and  C_2
REMARK    2  A    between atoms: C_6  and  C_8
REMARK    3  A    between atoms: C_10  and  N_11
REMARK    4  A    between atoms: N_11  and  C_12
REMARK                            x       y       z     vdW  Elec       q    Type
REMARK                         _______ _______ _______ _____ _____    ______ ____
ROOT
ATOM      1  C   UNL     1       9.456   1.723  23.631  0.00  0.00    +0.181 A 
ATOM      2  N   UNL     1      10.627   2.339  23.375  0.00  0.00    -0.226 NA
ATOM      3  C   UNL     1      10.698   3.650  23.619  0.00  0.00    +0.077 A 
ATOM      4  C   UNL     1       9.625   4.393  24.128  0.00  0.00    +0.040 A 
ATOM      5  C   UNL     1       9.797   5.775  24.398  0.00  0.00    +0.013 A 
ATOM      6  C   UNL     1      11.019   6.402  24.158  0.00  0.00    +0.001 A 
ATOM      7  C   UNL     1      12.069   5.665  23.628  0.00  0.00    +0.002 A 
ATOM      8  C   UNL     1       8.431   3.675  24.298  0.00  0.00    +0.135 A 
ATOM      9  C   UNL     1      11.898   4.304  23.364  0.00  0.00    +0.028 A 
ATOM     10  N   UNL     1       8.353   2.358  24.054  0.00  0.00    -0.210 NA
ENDROOT
BRANCH   1  14
ATOM     11  C   UNL     1       8.531  -2.514  25.802  0.00  0.00    +0.065 C 
ATOM     12  C   UNL     1       8.993  -1.810  24.563  0.00  0.00    +0.039 A 
ATOM     13  N   UNL     1       9.003  -0.457  24.608  0.00  0.00    -0.249 NA
ATOM     14  C   UNL     1       9.402   0.245  23.508  0.00  0.00    +0.108 A 
ATOM     15  C   UNL     1       9.779  -0.417  22.338  0.00  0.00    +0.031 A 
ATOM     16  C   UNL     1       9.760  -1.810  22.300  0.00  0.00    +0.004 A 
ATOM     17  C   UNL     1       9.363  -2.518  23.428  0.00  0.00    +0.023 A 
ENDBRANCH   1  14
BRANCH   8  18
ATOM     18  N   UNL     1       7.269   4.337  24.775  0.00  0.00    -0.299 N 
ATOM     19  H   UNL     1       6.974   3.894  25.640  0.00  0.00    +0.154 HD
BRANCH  18  20
ATOM     20  C   UNL     1       6.173   4.742  23.974  0.00  0.00    +0.035 A 
ATOM     21  C   UNL     1       6.140   6.004  23.369  0.00  0.00    +0.043 A 
ATOM     22  C   UNL     1       5.016   6.378  22.651  0.00  0.00    +0.112 A 
ATOM     23  N   UNL     1       3.923   5.599  22.505  0.00  0.00    -0.263 NA
ATOM     24  C   UNL     1       3.967   4.394  23.108  0.00  0.00    +0.112 A 
ATOM     25  C   UNL     1       5.044   3.934  23.853  0.00  0.00    +0.043 A 
ENDBRANCH  18  20
ENDBRANCH   8  18
TORSDOF 3
ENDMDL
MODEL 9
REMARK VINA RESULT:      -6.3      3.265      7.820
REMARK  Name = 
REMARK  4 active torsions:
REMARK  status: ('A' for Active; 'I' for Inactive)
REMARK    1  A    between atoms: C_1  and  C_2
REMARK    2  A    between atoms: C_6  and  C_8
REMARK    3  A    between atoms: C_10  and  N_11
REMARK    4  A    between atoms: N_11  and  C_12
REMARK                            x       y       z     vdW  Elec       q    Type
REMARK                         _______ _______ _______ _____ _____    ______ ____
ROOT
ATOM      1  C   UNL     1       9.496   1.495  24.021  0.00  0.00    +0.181 A 
ATOM      2  N   UNL     1      10.562   2.173  23.551  0.00  0.00    -0.226 NA
ATOM      3  C   UNL     1      10.575   3.497  23.726  0.00  0.00    +0.077 A 
ATOM      4  C   UNL     1       9.545   4.193  24.372  0.00  0.00    +0.040 A 
ATOM      5  C   UNL     1       9.657   5.595  24.553  0.00  0.00    +0.013 A 
ATOM      6  C   UNL     1      10.775   6.288  24.090  0.00  0.00    +0.001 A 
ATOM      7  C   UNL     1      11.777   5.595  23.427  0.00  0.00    +0.002 A 
ATOM      8  C   UNL     1       8.451   3.408  24.765  0.00  0.00    +0.135 A 
ATOM      9  C   UNL     1      11.666   4.213  23.250  0.00  0.00    +0.028 A 
ATOM     10  N   UNL     1       8.432   2.078  24.593  0.00  0.00    -0.210 NA
ENDROOT
BRANCH   1  14
ATOM     11  C   UNL     1       8.287  -2.685  26.164  0.00  0.00    +0.065 C 
ATOM     12  C   UNL     1       8.983  -2.012  25.020  0.00  0.00    +0.039 A 
ATOM     13  N   UNL     1       8.928  -0.661  24.993  0.00  0.00    -0.249 NA
ATOM     14  C   UNL     1       9.532   0.012  23.970  0.00  0.00    +0.108 A 
ATOM     15  C   UNL     1      10.186  -0.680  22.950  0.00  0.00    +0.031 A 
ATOM     16  C   UNL     1      10.233  -2.072  22.985  0.00  0.00    +0.004 A 
ATOM     17  C   UNL     1       9.625  -2.749  24.035  0.00  0.00    +0.023 A 
ENDBRANCH   1  14
BRANCH   8  18
ATOM     18  N   UNL     1       7.334   4.016  25.398  0.00  0.00    -0.299 N 
ATOM     19  H   UNL     1       7.071   4.843  24.870  0.00  0.00    +0.154 HD
BRANCH  18  20
ATOM     20  C   UNL     1       7.186   4.198  26.795  0.00  0.00    +0.035 A 
ATOM     21  C   UNL     1       6.966   3.114  27.652  0.00  0.00    +0.043 A 
ATOM     22  C   UNL     1       6.761   3.351  29.001  0.00  0.00    +0.112 A 
ATOM     23  N   UNL     1       6.743   4.583  29.554  0.00  0.00    -0.263 NA
ATOM     24  C   UNL     1       6.943   5.616  28.710  0.00  0.00    +0.112 A 
ATOM     25  C   UNL     1       7.150   5.479  27.345  0.00  0.00    +0.043 A 
ENDBRANCH  18  20
ENDBRANCH   8  18
TORSDOF 3
ENDMDL
