MODEL 1
REMARK VINA RESULT:      -6.8      0.000      0.000
REMARK  Name = 
REMARK  9 active torsions:
REMARK  status: ('A' for Active; 'I' for Inactive)
REMARK    1  A    between atoms: O_1  and  C_2
REMARK    2  A    between atoms: C_2  and  C_4
REMARK    3  A    between atoms: C_4  and  O_5
REMARK    4  A    between atoms: O_5  and  C_6
REMARK    5  A    between atoms: C_6  and  C_7
REMARK    6  A    between atoms: C_7  and  N_8
REMARK    7  A    between atoms: N_11  and  C_14
REMARK    8  A    between atoms: C_14  and  C_15
REMARK    9  A    between atoms: C_14  and  C_21
REMARK                            x       y       z     vdW  Elec       q    Type
REMARK                         _______ _______ _______ _____ _____    ______ ____
ROOT
ATOM      1  N   UNL     1       8.929   0.542  23.559  0.00  0.00    -0.298 NA
ATOM      2  C   UNL     1       8.729   0.045  24.938  0.00  0.00    +0.100 C 
ATOM      3  C   UNL     1       9.209  -1.399  25.250  0.00  0.00    +0.100 C 
ATOM      4  N   UNL     1       8.919  -2.435  24.223  0.00  0.00    -0.289 NA
ATOM      5  C   UNL     1       9.318  -1.865  22.917  0.00  0.00    +0.100 C 
ATOM      6  C   UNL     1       8.607  -0.530  22.598  0.00  0.00    +0.100 C 
ENDROOT
BRANCH   1   7
ATOM      7  C   UNL     1      10.275   1.093  23.333  0.00  0.00    +0.112 C 
BRANCH   7   8
ATOM      8  C   UNL     1      10.266   2.626  23.088  0.00  0.00    +0.176 C 
BRANCH   8   9
ATOM      9  O   UNL     1      11.468   3.289  23.507  0.00  0.00    -0.367 OA
BRANCH   9  10
ATOM     10  C   UNL     1      11.381   4.713  23.374  0.00  0.00    +0.280 C 
BRANCH  10  11
ATOM     11  C   UNL     1      12.776   5.310  23.435  0.00  0.00    +0.331 C 
ATOM     12  O   UNL     1      13.664   5.070  22.630  0.00  0.00    -0.248 OA
BRANCH  11  13
ATOM     13  O   UNL     1      12.936   6.141  24.492  0.00  0.00    -0.479 OA
ATOM     14  H   UNL     1      13.744   6.683  24.315  0.00  0.00    +0.295 HD
ENDBRANCH  11  13
ENDBRANCH  10  11
ENDBRANCH   9  10
ENDBRANCH   8   9
ENDBRANCH   7   8
ENDBRANCH   1   7
BRANCH   4  15
ATOM     15  C   UNL     1       7.494  -2.898  24.210  0.00  0.00    +0.117 C 
BRANCH  15  16
ATOM     16  C   UNL     1       7.063  -3.481  25.561  0.00  0.00    -0.026 A 
ATOM     17  C   UNL     1       5.849  -3.123  26.171  0.00  0.00    +0.007 A 
ATOM     18  C   UNL     1       5.395  -3.795  27.309  0.00  0.00    +0.020 A 
ATOM     19  C   UNL     1       6.147  -4.838  27.844  0.00  0.00    +0.041 A 
ATOM     20 CL   UNL     1       5.544  -5.720  29.192  0.00  0.00    -0.084 Cl
ATOM     21  C   UNL     1       7.367  -5.191  27.275  0.00  0.00    +0.020 A 
ATOM     22  C   UNL     1       7.828  -4.508  26.146  0.00  0.00    +0.007 A 
ENDBRANCH  15  16
BRANCH  15  23
ATOM     23  C   UNL     1       7.207  -3.827  23.011  0.00  0.00    -0.026 A 
ATOM     24  C   UNL     1       7.670  -5.159  23.034  0.00  0.00    +0.005 A 
ATOM     25  C   UNL     1       7.249  -6.084  22.070  0.00  0.00    +0.000 A 
ATOM     26  C   UNL     1       6.384  -5.692  21.055  0.00  0.00    +0.000 A 
ATOM     27  C   UNL     1       5.945  -4.372  20.991  0.00  0.00    +0.000 A 
ATOM     28  C   UNL     1       6.351  -3.450  21.963  0.00  0.00    +0.005 A 
ENDBRANCH  15  23
ENDBRANCH   4  15
TORSDOF 9
ENDMDL
MODEL 2
REMARK VINA RESULT:      -6.6      1.924      2.449
REMARK  Name = 
REMARK  9 active torsions:
REMARK  status: ('A' for Active; 'I' for Inactive)
REMARK    1  A    between atoms: O_1  and  C_2
REMARK    2  A    between atoms: C_2  and  C_4
REMARK    3  A    between atoms: C_4  and  O_5
REMARK    4  A    between atoms: O_5  and  C_6
REMARK    5  A    between atoms: C_6  and  C_7
REMARK    6  A    between atoms: C_7  and  N_8
REMARK    7  A    between atoms: N_11  and  C_14
REMARK    8  A    between atoms: C_14  and  C_15
REMARK    9  A    between atoms: C_14  and  C_21
REMARK                            x       y       z     vdW  Elec       q    Type
REMARK                         _______ _______ _______ _____ _____    ______ ____
ROOT
ATOM      1  N   UNL     1       8.998  -0.138  24.711  0.00  0.00    -0.298 NA
ATOM      2  C   UNL     1       8.462  -0.670  25.983  0.00  0.00    +0.100 C 
ATOM      3  C   UNL     1       8.718  -2.172  26.288  0.00  0.00    +0.100 C 
ATOM      4  N   UNL     1       8.547  -3.121  25.156  0.00  0.00    -0.289 NA
ATOM      5  C   UNL     1       9.267  -2.542  24.001  0.00  0.00    +0.100 C 
ATOM      6  C   UNL     1       8.779  -1.122  23.635  0.00  0.00    +0.100 C 
ENDROOT
BRANCH   1   7
ATOM      7  C   UNL     1      10.410   0.267  24.803  0.00  0.00    +0.112 C 
BRANCH   7   8
ATOM      8  C   UNL     1      10.675   1.673  24.199  0.00  0.00    +0.176 C 
BRANCH   8   9
ATOM      9  O   UNL     1       9.592   2.597  24.378  0.00  0.00    -0.367 OA
BRANCH   9  10
ATOM     10  C   UNL     1       9.272   3.304  23.173  0.00  0.00    +0.280 C 
BRANCH  10  11
ATOM     11  C   UNL     1       8.438   2.409  22.273  0.00  0.00    +0.331 C 
ATOM     12  O   UNL     1       7.280   2.090  22.500  0.00  0.00    -0.248 OA
BRANCH  11  13
ATOM     13  O   UNL     1       9.123   1.993  21.182  0.00  0.00    -0.479 OA
ATOM     14  H   UNL     1       9.107   1.005  21.189  0.00  0.00    +0.295 HD
ENDBRANCH  11  13
ENDBRANCH  10  11
ENDBRANCH   9  10
ENDBRANCH   8   9
ENDBRANCH   7   8
ENDBRANCH   1   7
BRANCH   4  15
ATOM     15  C   UNL     1       7.117  -3.419  24.821  0.00  0.00    +0.117 C 
BRANCH  15  16
ATOM     16  C   UNL     1       6.398  -4.156  25.958  0.00  0.00    -0.026 A 
ATOM     17  C   UNL     1       4.997  -4.223  26.030  0.00  0.00    +0.007 A 
ATOM     18  C   UNL     1       4.368  -5.044  26.968  0.00  0.00    +0.020 A 
ATOM     19  C   UNL     1       5.133  -5.813  27.840  0.00  0.00    +0.041 A 
ATOM     20 CL   UNL     1       4.357  -6.889  28.936  0.00  0.00    -0.084 Cl
ATOM     21  C   UNL     1       6.522  -5.742  27.807  0.00  0.00    +0.020 A 
ATOM     22  C   UNL     1       7.152  -4.909  26.879  0.00  0.00    +0.007 A 
ENDBRANCH  15  16
BRANCH  15  23
ATOM     23  C   UNL     1       6.985  -4.112  23.448  0.00  0.00    -0.026 A 
ATOM     24  C   UNL     1       7.487  -5.419  23.276  0.00  0.00    +0.005 A 
ATOM     25  C   UNL     1       7.198  -6.154  22.118  0.00  0.00    +0.000 A 
ATOM     26  C   UNL     1       6.430  -5.590  21.106  0.00  0.00    +0.000 A 
ATOM     27  C   UNL     1       5.958  -4.287  21.238  0.00  0.00    +0.000 A 
ATOM     28  C   UNL     1       6.231  -3.557  22.401  0.00  0.00    +0.005 A 
ENDBRANCH  15  23
ENDBRANCH   4  15
TORSDOF 9
ENDMDL
MODEL 3
REMARK VINA RESULT:      -6.6      4.627      8.755
REMARK  Name = 
REMARK  9 active torsions:
REMARK  status: ('A' for Active; 'I' for Inactive)
REMARK    1  A    between atoms: O_1  and  C_2
REMARK    2  A    between atoms: C_2  and  C_4
REMARK    3  A    between atoms: C_4  and  O_5
REMARK    4  A    between atoms: O_5  and  C_6
REMARK    5  A    between atoms: C_6  and  C_7
REMARK    6  A    between atoms: C_7  and  N_8
REMARK    7  A    between atoms: N_11  and  C_14
REMARK    8  A    between atoms: C_14  and  C_15
REMARK    9  A    between atoms: C_14  and  C_21
REMARK                            x       y       z     vdW  Elec       q    Type
REMARK                         _______ _______ _______ _____ _____    ______ ____
ROOT
ATOM      1  N   UNL     1       8.953  -1.173  24.565  0.00  0.00    -0.298 NA
ATOM      2  C   UNL     1       8.187  -0.501  23.491  0.00  0.00    +0.100 C 
ATOM      3  C   UNL     1       8.968   0.470  22.563  0.00  0.00    +0.100 C 
ATOM      4  N   UNL     1       9.947   1.377  23.219  0.00  0.00    -0.289 NA
ATOM      5  C   UNL     1      10.750   0.544  24.141  0.00  0.00    +0.100 C 
ATOM      6  C   UNL     1       9.887  -0.212  25.178  0.00  0.00    +0.100 C 
ENDROOT
BRANCH   1   7
ATOM      7  C   UNL     1       9.642  -2.391  24.107  0.00  0.00    +0.112 C 
BRANCH   7   8
ATOM      8  C   UNL     1       8.662  -3.528  23.714  0.00  0.00    +0.176 C 
BRANCH   8   9
ATOM      9  O   UNL     1       8.907  -4.768  24.393  0.00  0.00    -0.367 OA
BRANCH   9  10
ATOM     10  C   UNL     1       7.802  -5.168  25.214  0.00  0.00    +0.280 C 
BRANCH  10  11
ATOM     11  C   UNL     1       8.263  -5.282  26.657  0.00  0.00    +0.331 C 
ATOM     12  O   UNL     1       7.554  -5.658  27.579  0.00  0.00    -0.248 OA
BRANCH  11  13
ATOM     13  O   UNL     1       9.556  -4.914  26.815  0.00  0.00    -0.479 OA
ATOM     14  H   UNL     1       9.565  -4.154  27.447  0.00  0.00    +0.295 HD
ENDBRANCH  11  13
ENDBRANCH  10  11
ENDBRANCH   9  10
ENDBRANCH   8   9
ENDBRANCH   7   8
ENDBRANCH   1   7
BRANCH   4  15
ATOM     15  C   UNL     1       9.320   2.539  23.928  0.00  0.00    +0.117 C 
BRANCH  15  16
ATOM     16  C   UNL     1       7.849   2.730  23.539  0.00  0.00    -0.026 A 
ATOM     17  C   UNL     1       6.808   2.565  24.468  0.00  0.00    +0.007 A 
ATOM     18  C   UNL     1       5.496   2.914  24.140  0.00  0.00    +0.020 A 
ATOM     19  C   UNL     1       5.212   3.440  22.882  0.00  0.00    +0.041 A 
ATOM     20 CL   UNL     1       3.612   3.950  22.511  0.00  0.00    -0.084 Cl
ATOM     21  C   UNL     1       6.222   3.584  21.935  0.00  0.00    +0.020 A 
ATOM     22  C   UNL     1       7.532   3.220  22.258  0.00  0.00    +0.007 A 
ENDBRANCH  15  16
BRANCH  15  23
ATOM     23  C   UNL     1      10.172   3.819  23.790  0.00  0.00    -0.026 A 
ATOM     24  C   UNL     1       9.703   5.031  24.335  0.00  0.00    +0.005 A 
ATOM     25  C   UNL     1      10.536   6.155  24.416  0.00  0.00    +0.000 A 
ATOM     26  C   UNL     1      11.838   6.096  23.933  0.00  0.00    +0.000 A 
ATOM     27  C   UNL     1      12.309   4.921  23.354  0.00  0.00    +0.000 A 
ATOM     28  C   UNL     1      11.484   3.791  23.287  0.00  0.00    +0.005 A 
ENDBRANCH  15  23
ENDBRANCH   4  15
TORSDOF 9
ENDMDL
MODEL 4
REMARK VINA RESULT:      -6.5      0.561      1.229
REMARK  Name = 
REMARK  9 active torsions:
REMARK  status: ('A' for Active; 'I' for Inactive)
REMARK    1  A    between atoms: O_1  and  C_2
REMARK    2  A    between atoms: C_2  and  C_4
REMARK    3  A    between atoms: C_4  and  O_5
REMARK    4  A    between atoms: O_5  and  C_6
REMARK    5  A    between atoms: C_6  and  C_7
REMARK    6  A    between atoms: C_7  and  N_8
REMARK    7  A    between atoms: N_11  and  C_14
REMARK    8  A    between atoms: C_14  and  C_15
REMARK    9  A    between atoms: C_14  and  C_21
REMARK                            x       y       z     vdW  Elec       q    Type
REMARK                         _______ _______ _______ _____ _____    ______ ____
ROOT
ATOM      1  N   UNL     1       8.795   0.463  24.231  0.00  0.00    -0.298 NA
ATOM      2  C   UNL     1       8.422  -0.097  25.549  0.00  0.00    +0.100 C 
ATOM      3  C   UNL     1       8.838  -1.566  25.840  0.00  0.00    +0.100 C 
ATOM      4  N   UNL     1       8.658  -2.543  24.734  0.00  0.00    -0.289 NA
ATOM      5  C   UNL     1       9.220  -1.918  23.516  0.00  0.00    +0.100 C 
ATOM      6  C   UNL     1       8.574  -0.553  23.185  0.00  0.00    +0.100 C 
ENDROOT
BRANCH   1   7
ATOM      7  C   UNL     1      10.167   0.994  24.197  0.00  0.00    +0.112 C 
BRANCH   7   8
ATOM      8  C   UNL     1      10.226   2.486  23.771  0.00  0.00    +0.176 C 
BRANCH   8   9
ATOM      9  O   UNL     1      11.553   3.031  23.743  0.00  0.00    -0.367 OA
BRANCH   9  10
ATOM     10  C   UNL     1      11.632   4.237  22.972  0.00  0.00    +0.280 C 
BRANCH  10  11
ATOM     11  C   UNL     1      12.647   5.172  23.605  0.00  0.00    +0.331 C 
ATOM     12  O   UNL     1      12.367   6.061  24.395  0.00  0.00    -0.248 OA
BRANCH  11  13
ATOM     13  O   UNL     1      13.911   4.918  23.190  0.00  0.00    -0.479 OA
ATOM     14  H   UNL     1      13.917   4.000  22.824  0.00  0.00    +0.295 HD
ENDBRANCH  11  13
ENDBRANCH  10  11
ENDBRANCH   9  10
ENDBRANCH   8   9
ENDBRANCH   7   8
ENDBRANCH   1   7
BRANCH   4  15
ATOM     15  C   UNL     1       7.237  -2.973  24.527  0.00  0.00    +0.117 C 
BRANCH  15  16
ATOM     16  C   UNL     1       6.644  -3.631  25.778  0.00  0.00    -0.026 A 
ATOM     17  C   UNL     1       7.274  -4.710  26.420  0.00  0.00    +0.007 A 
ATOM     18  C   UNL     1       6.813  -5.177  27.653  0.00  0.00    +0.020 A 
ATOM     19  C   UNL     1       5.720  -4.566  28.261  0.00  0.00    +0.041 A 
ATOM     20 CL   UNL     1       5.207  -5.087  29.818  0.00  0.00    -0.084 Cl
ATOM     21  C   UNL     1       5.060  -3.515  27.630  0.00  0.00    +0.020 A 
ATOM     22  C   UNL     1       5.513  -3.058  26.390  0.00  0.00    +0.007 A 
ENDBRANCH  15  16
BRANCH  15  23
ATOM     23  C   UNL     1       7.078  -3.817  23.244  0.00  0.00    -0.026 A 
ATOM     24  C   UNL     1       7.643  -5.108  23.185  0.00  0.00    +0.005 A 
ATOM     25  C   UNL     1       7.341  -5.979  22.130  0.00  0.00    +0.000 A 
ATOM     26  C   UNL     1       6.493  -5.569  21.107  0.00  0.00    +0.000 A 
ATOM     27  C   UNL     1       5.956  -4.285  21.125  0.00  0.00    +0.000 A 
ATOM     28  C   UNL     1       6.244  -3.419  22.187  0.00  0.00    +0.005 A 
ENDBRANCH  15  23
ENDBRANCH   4  15
TORSDOF 9
ENDMDL
MODEL 5
REMARK VINA RESULT:      -6.3      4.535      8.915
REMARK  Name = 
REMARK  9 active torsions:
REMARK  status: ('A' for Active; 'I' for Inactive)
REMARK    1  A    between atoms: O_1  and  C_2
REMARK    2  A    between atoms: C_2  and  C_4
REMARK    3  A    between atoms: C_4  and  O_5
REMARK    4  A    between atoms: O_5  and  C_6
REMARK    5  A    between atoms: C_6  and  C_7
REMARK    6  A    between atoms: C_7  and  N_8
REMARK    7  A    between atoms: N_11  and  C_14
REMARK    8  A    between atoms: C_14  and  C_15
REMARK    9  A    between atoms: C_14  and  C_21
REMARK                            x       y       z     vdW  Elec       q    Type
REMARK                         _______ _______ _______ _____ _____    ______ ____
ROOT
ATOM      1  N   UNL     1       8.715  -1.153  24.197  0.00  0.00    -0.298 NA
ATOM      2  C   UNL     1       8.357  -0.347  23.008  0.00  0.00    +0.100 C 
ATOM      3  C   UNL     1       9.449   0.599  22.437  0.00  0.00    +0.100 C 
ATOM      4  N   UNL     1      10.251   1.367  23.427  0.00  0.00    -0.289 NA
ATOM      5  C   UNL     1      10.677   0.407  24.469  0.00  0.00    +0.100 C 
ATOM      6  C   UNL     1       9.491  -0.325  25.138  0.00  0.00    +0.100 C 
ENDROOT
BRANCH   1   7
ATOM      7  C   UNL     1       9.419  -2.401  23.858  0.00  0.00    +0.112 C 
BRANCH   7   8
ATOM      8  C   UNL     1       8.498  -3.649  23.919  0.00  0.00    +0.176 C 
BRANCH   8   9
ATOM      9  O   UNL     1       7.916  -4.005  22.656  0.00  0.00    -0.367 OA
BRANCH   9  10
ATOM     10  C   UNL     1       7.240  -5.268  22.704  0.00  0.00    +0.280 C 
BRANCH  10  11
ATOM     11  C   UNL     1       5.981  -5.196  21.856  0.00  0.00    +0.331 C 
ATOM     12  O   UNL     1       5.319  -4.183  21.690  0.00  0.00    -0.248 OA
BRANCH  11  13
ATOM     13  O   UNL     1       5.664  -6.390  21.302  0.00  0.00    -0.479 OA
ATOM     14  H   UNL     1       4.678  -6.442  21.270  0.00  0.00    +0.295 HD
ENDBRANCH  11  13
ENDBRANCH  10  11
ENDBRANCH   9  10
ENDBRANCH   8   9
ENDBRANCH   7   8
ENDBRANCH   1   7
BRANCH   4  15
ATOM     15  C   UNL     1       9.527   2.538  24.020  0.00  0.00    +0.117 C 
BRANCH  15  16
ATOM     16  C   UNL     1       8.079   2.635  23.525  0.00  0.00    -0.026 A 
ATOM     17  C   UNL     1       6.990   2.305  24.348  0.00  0.00    +0.007 A 
ATOM     18  C   UNL     1       5.681   2.567  23.939  0.00  0.00    +0.020 A 
ATOM     19  C   UNL     1       5.446   3.169  22.706  0.00  0.00    +0.041 A 
ATOM     20 CL   UNL     1       3.839   3.570  22.243  0.00  0.00    -0.084 Cl
ATOM     21  C   UNL     1       6.508   3.478  21.861  0.00  0.00    +0.020 A 
ATOM     22  C   UNL     1       7.817   3.201  22.263  0.00  0.00    +0.007 A 
ENDBRANCH  15  16
BRANCH  15  23
ATOM     23  C   UNL     1      10.330   3.847  23.856  0.00  0.00    -0.026 A 
ATOM     24  C   UNL     1       9.817   5.050  24.382  0.00  0.00    +0.005 A 
ATOM     25  C   UNL     1      10.607   6.205  24.441  0.00  0.00    +0.000 A 
ATOM     26  C   UNL     1      11.909   6.187  23.953  0.00  0.00    +0.000 A 
ATOM     27  C   UNL     1      12.422   5.021  23.392  0.00  0.00    +0.000 A 
ATOM     28  C   UNL     1      11.640   3.860  23.348  0.00  0.00    +0.005 A 
ENDBRANCH  15  23
ENDBRANCH   4  15
TORSDOF 9
ENDMDL
MODEL 6
REMARK VINA RESULT:      -6.0      5.136      8.478
REMARK  Name = 
REMARK  9 active torsions:
REMARK  status: ('A' for Active; 'I' for Inactive)
REMARK    1  A    between atoms: O_1  and  C_2
REMARK    2  A    between atoms: C_2  and  C_4
REMARK    3  A    between atoms: C_4  and  O_5
REMARK    4  A    between atoms: O_5  and  C_6
REMARK    5  A    between atoms: C_6  and  C_7
REMARK    6  A    between atoms: C_7  and  N_8
REMARK    7  A    between atoms: N_11  and  C_14
REMARK    8  A    between atoms: C_14  and  C_15
REMARK    9  A    between atoms: C_14  and  C_21
REMARK                            x       y       z     vdW  Elec       q    Type
REMARK                         _______ _______ _______ _____ _____    ______ ____
ROOT
ATOM      1  N   UNL     1       8.394  -2.744  22.955  0.00  0.00    -0.298 NA
ATOM      2  C   UNL     1       9.315  -1.750  23.550  0.00  0.00    +0.100 C 
ATOM      3  C   UNL     1       8.727  -0.790  24.621  0.00  0.00    +0.100 C 
ATOM      4  N   UNL     1       7.380  -0.225  24.344  0.00  0.00    -0.289 NA
ATOM      5  C   UNL     1       6.523  -1.352  23.916  0.00  0.00    +0.100 C 
ATOM      6  C   UNL     1       7.089  -2.110  22.693  0.00  0.00    +0.100 C 
ENDROOT
BRANCH   1   7
ATOM      7  C   UNL     1       8.256  -3.963  23.769  0.00  0.00    +0.112 C 
BRANCH   7   8
ATOM      8  C   UNL     1       7.151  -4.918  23.242  0.00  0.00    +0.176 C 
BRANCH   8   9
ATOM      9  O   UNL     1       6.339  -5.494  24.276  0.00  0.00    -0.367 OA
BRANCH   9  10
ATOM     10  C   UNL     1       6.460  -4.792  25.520  0.00  0.00    +0.280 C 
BRANCH  10  11
ATOM     11  C   UNL     1       6.731  -5.788  26.634  0.00  0.00    +0.331 C 
ATOM     12  O   UNL     1       5.871  -6.464  27.179  0.00  0.00    -0.248 OA
BRANCH  11  13
ATOM     13  O   UNL     1       8.042  -5.845  26.967  0.00  0.00    -0.479 OA
ATOM     14  H   UNL     1       8.530  -6.171  26.172  0.00  0.00    +0.295 HD
ENDBRANCH  11  13
ENDBRANCH  10  11
ENDBRANCH   9  10
ENDBRANCH   8   9
ENDBRANCH   7   8
ENDBRANCH   1   7
BRANCH   4  15
ATOM     15  C   UNL     1       7.380   0.882  23.333  0.00  0.00    +0.117 C 
BRANCH  15  16
ATOM     16  C   UNL     1       8.673   1.705  23.376  0.00  0.00    -0.026 A 
ATOM     17  C   UNL     1       9.661   1.589  22.385  0.00  0.00    +0.007 A 
ATOM     18  C   UNL     1      10.744   2.470  22.347  0.00  0.00    +0.020 A 
ATOM     19  C   UNL     1      10.846   3.484  23.297  0.00  0.00    +0.041 A 
ATOM     20 CL   UNL     1      12.133   4.621  23.197  0.00  0.00    -0.084 Cl
ATOM     21  C   UNL     1       9.895   3.601  24.306  0.00  0.00    +0.020 A 
ATOM     22  C   UNL     1       8.820   2.709  24.352  0.00  0.00    +0.007 A 
ENDBRANCH  15  16
BRANCH  15  23
ATOM     23  C   UNL     1       6.096   1.734  23.420  0.00  0.00    -0.026 A 
ATOM     24  C   UNL     1       5.346   1.745  24.614  0.00  0.00    +0.005 A 
ATOM     25  C   UNL     1       4.304   2.662  24.802  0.00  0.00    +0.000 A 
ATOM     26  C   UNL     1       3.976   3.563  23.795  0.00  0.00    +0.000 A 
ATOM     27  C   UNL     1       4.677   3.543  22.592  0.00  0.00    +0.000 A 
ATOM     28  C   UNL     1       5.730   2.638  22.409  0.00  0.00    +0.005 A 
ENDBRANCH  15  23
ENDBRANCH   4  15
TORSDOF 9
ENDMDL
MODEL 7
REMARK VINA RESULT:      -6.0      5.043      8.479
REMARK  Name = 
REMARK  9 active torsions:
REMARK  status: ('A' for Active; 'I' for Inactive)
REMARK    1  A    between atoms: O_1  and  C_2
REMARK    2  A    between atoms: C_2  and  C_4
REMARK    3  A    between atoms: C_4  and  O_5
REMARK    4  A    between atoms: O_5  and  C_6
REMARK    5  A    between atoms: C_6  and  C_7
REMARK    6  A    between atoms: C_7  and  N_8
REMARK    7  A    between atoms: N_11  and  C_14
REMARK    8  A    between atoms: C_14  and  C_15
REMARK    9  A    between atoms: C_14  and  C_21
REMARK                            x       y       z     vdW  Elec       q    Type
REMARK                         _______ _______ _______ _____ _____    ______ ____
ROOT
ATOM      1  N   UNL     1       8.147  -2.720  23.767  0.00  0.00    -0.298 NA
ATOM      2  C   UNL     1       9.098  -1.687  24.235  0.00  0.00    +0.100 C 
ATOM      3  C   UNL     1       8.537  -0.573  25.161  0.00  0.00    +0.100 C 
ATOM      4  N   UNL     1       7.212  -0.005  24.795  0.00  0.00    -0.289 NA
ATOM      5  C   UNL     1       6.320  -1.150  24.512  0.00  0.00    +0.100 C 
ATOM      6  C   UNL     1       6.867  -2.083  23.408  0.00  0.00    +0.100 C 
ENDROOT
BRANCH   1   7
ATOM      7  C   UNL     1       7.961  -3.814  24.734  0.00  0.00    +0.112 C 
BRANCH   7   8
ATOM      8  C   UNL     1       7.512  -5.141  24.065  0.00  0.00    +0.176 C 
BRANCH   8   9
ATOM      9  O   UNL     1       7.972  -5.296  22.714  0.00  0.00    -0.367 OA
BRANCH   9  10
ATOM     10  C   UNL     1       7.125  -6.159  21.945  0.00  0.00    +0.280 C 
BRANCH  10  11
ATOM     11  C   UNL     1       5.842  -5.424  21.597  0.00  0.00    +0.331 C 
ATOM     12  O   UNL     1       5.796  -4.383  20.959  0.00  0.00    -0.248 OA
BRANCH  11  13
ATOM     13  O   UNL     1       4.742  -6.050  22.078  0.00  0.00    -0.479 OA
ATOM     14  H   UNL     1       4.107  -5.346  22.356  0.00  0.00    +0.295 HD
ENDBRANCH  11  13
ENDBRANCH  10  11
ENDBRANCH   9  10
ENDBRANCH   8   9
ENDBRANCH   7   8
ENDBRANCH   1   7
BRANCH   4  15
ATOM     15  C   UNL     1       7.258   0.956  23.646  0.00  0.00    +0.117 C 
BRANCH  15  16
ATOM     16  C   UNL     1       8.560   1.765  23.619  0.00  0.00    -0.026 A 
ATOM     17  C   UNL     1       9.565   1.523  22.668  0.00  0.00    +0.007 A 
ATOM     18  C   UNL     1      10.659   2.383  22.550  0.00  0.00    +0.020 A 
ATOM     19  C   UNL     1      10.757   3.499  23.377  0.00  0.00    +0.041 A 
ATOM     20 CL   UNL     1      12.060   4.603  23.172  0.00  0.00    -0.084 Cl
ATOM     21  C   UNL     1       9.789   3.743  24.347  0.00  0.00    +0.020 A 
ATOM     22  C   UNL     1       8.702   2.874  24.475  0.00  0.00    +0.007 A 
ENDBRANCH  15  16
BRANCH  15  23
ATOM     23  C   UNL     1       5.983   1.825  23.578  0.00  0.00    -0.026 A 
ATOM     24  C   UNL     1       5.153   1.935  24.712  0.00  0.00    +0.005 A 
ATOM     25  C   UNL     1       4.114   2.873  24.756  0.00  0.00    +0.000 A 
ATOM     26  C   UNL     1       3.871   3.698  23.664  0.00  0.00    +0.000 A 
ATOM     27  C   UNL     1       4.653   3.579  22.518  0.00  0.00    +0.000 A 
ATOM     28  C   UNL     1       5.702   2.652  22.478  0.00  0.00    +0.005 A 
ENDBRANCH  15  23
ENDBRANCH   4  15
TORSDOF 9
ENDMDL
MODEL 8
REMARK VINA RESULT:      -5.9      2.791      4.911
REMARK  Name = 
REMARK  9 active torsions:
REMARK  status: ('A' for Active; 'I' for Inactive)
REMARK    1  A    between atoms: O_1  and  C_2
REMARK    2  A    between atoms: C_2  and  C_4
REMARK    3  A    between atoms: C_4  and  O_5
REMARK    4  A    between atoms: O_5  and  C_6
REMARK    5  A    between atoms: C_6  and  C_7
REMARK    6  A    between atoms: C_7  and  N_8
REMARK    7  A    between atoms: N_11  and  C_14
REMARK    8  A    between atoms: C_14  and  C_15
REMARK    9  A    between atoms: C_14  and  C_21
REMARK                            x       y       z     vdW  Elec       q    Type
REMARK                         _______ _______ _______ _____ _____    ______ ____
ROOT
ATOM      1  N   UNL     1       8.288  -0.390  25.551  0.00  0.00    -0.298 NA
ATOM      2  C   UNL     1       7.641  -1.067  24.405  0.00  0.00    +0.100 C 
ATOM      3  C   UNL     1       6.192  -1.586  24.613  0.00  0.00    +0.100 C 
ATOM      4  N   UNL     1       5.902  -2.256  25.908  0.00  0.00    -0.289 NA
ATOM      5  C   UNL     1       6.460  -1.392  26.971  0.00  0.00    +0.100 C 
ATOM      6  C   UNL     1       7.972  -1.118  26.794  0.00  0.00    +0.100 C 
ENDROOT
BRANCH   1   7
ATOM      7  C   UNL     1       7.942   1.037  25.650  0.00  0.00    +0.112 C 
BRANCH   7   8
ATOM      8  C   UNL     1       8.224   1.818  24.338  0.00  0.00    +0.176 C 
BRANCH   8   9
ATOM      9  O   UNL     1       9.548   2.368  24.261  0.00  0.00    -0.367 OA
BRANCH   9  10
ATOM     10  C   UNL     1      10.482   1.459  23.666  0.00  0.00    +0.280 C 
BRANCH  10  11
ATOM     11  C   UNL     1      10.102   1.226  22.214  0.00  0.00    +0.331 C 
ATOM     12  O   UNL     1       9.867   0.128  21.730  0.00  0.00    -0.248 OA
BRANCH  11  13
ATOM     13  O   UNL     1      10.055   2.377  21.502  0.00  0.00    -0.479 OA
ATOM     14  H   UNL     1      10.697   2.283  20.757  0.00  0.00    +0.295 HD
ENDBRANCH  11  13
ENDBRANCH  10  11
ENDBRANCH   9  10
ENDBRANCH   8   9
ENDBRANCH   7   8
ENDBRANCH   1   7
BRANCH   4  15
ATOM     15  C   UNL     1       6.430  -3.656  26.001  0.00  0.00    +0.117 C 
BRANCH  15  16
ATOM     16  C   UNL     1       6.310  -4.410  24.672  0.00  0.00    -0.026 A 
ATOM     17  C   UNL     1       5.065  -4.666  24.073  0.00  0.00    +0.007 A 
ATOM     18  C   UNL     1       4.988  -5.194  22.783  0.00  0.00    +0.020 A 
ATOM     19  C   UNL     1       6.154  -5.466  22.073  0.00  0.00    +0.041 A 
ATOM     20 CL   UNL     1       6.056  -6.035  20.453  0.00  0.00    -0.084 Cl
ATOM     21  C   UNL     1       7.399  -5.248  22.657  0.00  0.00    +0.020 A 
ATOM     22  C   UNL     1       7.477  -4.734  23.954  0.00  0.00    +0.007 A 
ENDBRANCH  15  16
BRANCH  15  23
ATOM     23  C   UNL     1       5.827  -4.414  27.204  0.00  0.00    -0.026 A 
ATOM     24  C   UNL     1       6.539  -5.486  27.780  0.00  0.00    +0.005 A 
ATOM     25  C   UNL     1       6.129  -6.054  28.993  0.00  0.00    +0.000 A 
ATOM     26  C   UNL     1       4.991  -5.582  29.636  0.00  0.00    +0.000 A 
ATOM     27  C   UNL     1       4.250  -4.550  29.065  0.00  0.00    +0.000 A 
ATOM     28  C   UNL     1       4.668  -3.970  27.861  0.00  0.00    +0.005 A 
ENDBRANCH  15  23
ENDBRANCH   4  15
TORSDOF 9
ENDMDL
MODEL 9
REMARK VINA RESULT:      -5.8      4.811      7.911
REMARK  Name = 
REMARK  9 active torsions:
REMARK  status: ('A' for Active; 'I' for Inactive)
REMARK    1  A    between atoms: O_1  and  C_2
REMARK    2  A    between atoms: C_2  and  C_4
REMARK    3  A    between atoms: C_4  and  O_5
REMARK    4  A    between atoms: O_5  and  C_6
REMARK    5  A    between atoms: C_6  and  C_7
REMARK    6  A    between atoms: C_7  and  N_8
REMARK    7  A    between atoms: N_11  and  C_14
REMARK    8  A    between atoms: C_14  and  C_15
REMARK    9  A    between atoms: C_14  and  C_21
REMARK                            x       y       z     vdW  Elec       q    Type
REMARK                         _______ _______ _______ _____ _____    ______ ____
ROOT
ATOM      1  N   UNL     1       7.436  -3.936  26.323  0.00  0.00    -0.298 NA
ATOM      2  C   UNL     1       6.262  -3.036  26.322  0.00  0.00    +0.100 C 
ATOM      3  C   UNL     1       5.952  -2.274  25.004  0.00  0.00    +0.100 C 
ATOM      4  N   UNL     1       7.114  -1.697  24.277  0.00  0.00    -0.289 NA
ATOM      5  C   UNL     1       8.145  -2.756  24.210  0.00  0.00    +0.100 C 
ATOM      6  C   UNL     1       8.550  -3.293  25.602  0.00  0.00    +0.100 C 
ENDROOT
BRANCH   1   7
ATOM      7  C   UNL     1       7.138  -5.274  25.786  0.00  0.00    +0.112 C 
BRANCH   7   8
ATOM      8  C   UNL     1       5.744  -5.802  26.222  0.00  0.00    +0.176 C 
BRANCH   8   9
ATOM      9  O   UNL     1       4.811  -5.943  25.140  0.00  0.00    -0.367 OA
BRANCH   9  10
ATOM     10  C   UNL     1       5.433  -5.783  23.859  0.00  0.00    +0.280 C 
BRANCH  10  11
ATOM     11  C   UNL     1       4.484  -5.046  22.929  0.00  0.00    +0.331 C 
ATOM     12  O   UNL     1       3.272  -5.202  22.916  0.00  0.00    -0.248 OA
BRANCH  11  13
ATOM     13  O   UNL     1       5.132  -4.192  22.102  0.00  0.00    -0.479 OA
ATOM     14  H   UNL     1       5.327  -3.375  22.624  0.00  0.00    +0.295 HD
ENDBRANCH  11  13
ENDBRANCH  10  11
ENDBRANCH   9  10
ENDBRANCH   8   9
ENDBRANCH   7   8
ENDBRANCH   1   7
BRANCH   4  15
ATOM     15  C   UNL     1       7.653  -0.440  24.891  0.00  0.00    +0.117 C 
BRANCH  15  16
ATOM     16  C   UNL     1       6.538   0.474  25.413  0.00  0.00    -0.026 A 
ATOM     17  C   UNL     1       6.381   0.745  26.782  0.00  0.00    +0.007 A 
ATOM     18  C   UNL     1       5.475   1.714  27.219  0.00  0.00    +0.020 A 
ATOM     19  C   UNL     1       4.722   2.428  26.291  0.00  0.00    +0.041 A 
ATOM     20 CL   UNL     1       3.671   3.681  26.826  0.00  0.00    -0.084 Cl
ATOM     21  C   UNL     1       4.839   2.156  24.931  0.00  0.00    +0.020 A 
ATOM     22  C   UNL     1       5.734   1.175  24.495  0.00  0.00    +0.007 A 
ENDBRANCH  15  16
BRANCH  15  23
ATOM     23  C   UNL     1       8.653   0.270  23.952  0.00  0.00    -0.026 A 
ATOM     24  C   UNL     1       8.506   0.145  22.556  0.00  0.00    +0.005 A 
ATOM     25  C   UNL     1       9.256   0.939  21.679  0.00  0.00    +0.000 A 
ATOM     26  C   UNL     1      10.180   1.850  22.178  0.00  0.00    +0.000 A 
ATOM     27  C   UNL     1      10.369   1.962  23.553  0.00  0.00    +0.000 A 
ATOM     28  C   UNL     1       9.609   1.180  24.431  0.00  0.00    +0.005 A 
ENDBRANCH  15  23
ENDBRANCH   4  15
TORSDOF 9
ENDMDL
