MODEL 1
REMARK VINA RESULT:      -7.4      0.000      0.000
REMARK  Name = 
REMARK  10 active torsions:
REMARK  status: ('A' for Active; 'I' for Inactive)
REMARK    1  A    between atoms: C_1  and  C_2
REMARK    2  A    between atoms: C_3  and  C_28
REMARK    3  A    between atoms: N_4  and  C_5
REMARK    4  A    between atoms: C_5  and  C_6
REMARK    5  A    between atoms: C_9  and  O_10
REMARK    6  A    between atoms: O_10  and  C_11
REMARK    7  A    between atoms: C_11  and  C_12
REMARK    8  A    between atoms: C_12  and  N_13
REMARK    9  A    between atoms: C_24  and  O_25
REMARK   10  A    between atoms: C_31  and  O_32
REMARK                            x       y       z     vdW  Elec       q    Type
REMARK                         _______ _______ _______ _____ _____    ______ ____
ROOT
ATOM      1  C   UNL     1       8.949  -0.178  26.835  0.00  0.00    +0.046 C 
ATOM      2  C   UNL     1       9.005  -0.673  25.425  0.00  0.00    -0.017 A 
ATOM      3  C   UNL     1       9.452   0.174  24.364  0.00  0.00    +0.007 A 
ATOM      4  C   UNL     1       9.997   1.485  24.351  0.00  0.00    +0.055 A 
ATOM      5  C   UNL     1      10.185   2.132  23.131  0.00  0.00    +0.118 A 
ATOM      6  C   UNL     1       9.779   1.549  21.953  0.00  0.00    +0.047 A 
ATOM      7  C   UNL     1       9.223   0.263  21.971  0.00  0.00    +0.030 A 
ATOM      8  C   UNL     1       9.143  -0.464  23.163  0.00  0.00    +0.050 A 
ATOM      9  N   UNL     1       8.828  -1.787  23.475  0.00  0.00    -0.335 N 
ATOM     10  C   UNL     1       8.599  -1.894  24.867  0.00  0.00    +0.053 A 
ENDROOT
BRANCH  10  11
ATOM     11  C   UNL     1       8.031  -3.082  25.564  0.00  0.00    -0.001 A 
ATOM     12  C   UNL     1       6.671  -3.127  25.910  0.00  0.00    +0.013 A 
ATOM     13  C   UNL     1       6.086  -4.271  26.466  0.00  0.00    +0.046 A 
ATOM     14  C   UNL     1       6.874  -5.371  26.756  0.00  0.00    +0.117 A 
ATOM     15  C   UNL     1       8.234  -5.348  26.481  0.00  0.00    +0.046 A 
ATOM     16  C   UNL     1       8.799  -4.222  25.859  0.00  0.00    +0.013 A 
BRANCH  14  17
ATOM     17  O   UNL     1       6.270  -6.458  27.310  0.00  0.00    -0.507 OA
ATOM     18  H   UNL     1       5.758  -6.917  26.624  0.00  0.00    +0.292 HD
ENDBRANCH  14  17
ENDBRANCH  10  11
BRANCH   5  19
ATOM     19  O   UNL     1      10.747   3.374  23.065  0.00  0.00    -0.507 OA
ATOM     20  H   UNL     1      11.029   3.535  22.149  0.00  0.00    +0.292 HD
ENDBRANCH   5  19
BRANCH   9  21
ATOM     21  C   UNL     1       8.726  -2.921  22.525  0.00  0.00    +0.157 C 
BRANCH  21  22
ATOM     22  C   UNL     1       7.423  -3.696  22.507  0.00  0.00    -0.028 A 
ATOM     23  C   UNL     1       7.375  -5.096  22.575  0.00  0.00    +0.009 A 
ATOM     24  C   UNL     1       6.179  -5.769  22.862  0.00  0.00    +0.046 A 
ATOM     25  C   UNL     1       4.983  -5.064  22.911  0.00  0.00    +0.121 A 
ATOM     26  C   UNL     1       5.003  -3.703  22.580  0.00  0.00    +0.046 A 
ATOM     27  C   UNL     1       6.208  -3.019  22.414  0.00  0.00    +0.009 A 
BRANCH  25  28
ATOM     28  O   UNL     1       3.860  -5.768  23.299  0.00  0.00    -0.491 OA
BRANCH  28  29
ATOM     29  C   UNL     1       4.172  -6.840  24.193  0.00  0.00    +0.244 C 
BRANCH  29  30
ATOM     30  C   UNL     1       3.281  -6.929  25.441  0.00  0.00    +0.125 C 
BRANCH  30  31
ATOM     31  N   UNL     1       1.865  -7.067  25.032  0.00  0.00    -0.299 NA
ATOM     32  C   UNL     1       0.917  -6.902  26.138  0.00  0.00    +0.084 C 
ATOM     33  C   UNL     1       0.793  -8.128  27.046  0.00  0.00    +0.015 C 
ATOM     34  C   UNL     1       0.509  -9.395  26.247  0.00  0.00    +0.002 C 
ATOM     35  C   UNL     1       1.511  -9.555  25.113  0.00  0.00    +0.015 C 
ATOM     36  C   UNL     1       1.564  -8.286  24.264  0.00  0.00    +0.084 C 
ENDBRANCH  30  31
ENDBRANCH  29  30
ENDBRANCH  28  29
ENDBRANCH  25  28
ENDBRANCH  21  22
ENDBRANCH   9  21
TORSDOF 9
ENDMDL
MODEL 2
REMARK VINA RESULT:      -7.3      2.660      9.416
REMARK  Name = 
REMARK  10 active torsions:
REMARK  status: ('A' for Active; 'I' for Inactive)
REMARK    1  A    between atoms: C_1  and  C_2
REMARK    2  A    between atoms: C_3  and  C_28
REMARK    3  A    between atoms: N_4  and  C_5
REMARK    4  A    between atoms: C_5  and  C_6
REMARK    5  A    between atoms: C_9  and  O_10
REMARK    6  A    between atoms: O_10  and  C_11
REMARK    7  A    between atoms: C_11  and  C_12
REMARK    8  A    between atoms: C_12  and  N_13
REMARK    9  A    between atoms: C_24  and  O_25
REMARK   10  A    between atoms: C_31  and  O_32
REMARK                            x       y       z     vdW  Elec       q    Type
REMARK                         _______ _______ _______ _____ _____    ______ ____
ROOT
ATOM      1  C   UNL     1       5.728  -3.782  21.025  0.00  0.00    +0.046 C 
ATOM      2  C   UNL     1       6.270  -3.867  22.416  0.00  0.00    -0.017 A 
ATOM      3  C   UNL     1       5.843  -4.895  23.312  0.00  0.00    +0.007 A 
ATOM      4  C   UNL     1       5.001  -6.026  23.139  0.00  0.00    +0.055 A 
ATOM      5  C   UNL     1       4.621  -6.769  24.256  0.00  0.00    +0.118 A 
ATOM      6  C   UNL     1       4.987  -6.376  25.522  0.00  0.00    +0.047 A 
ATOM      7  C   UNL     1       5.801  -5.248  25.691  0.00  0.00    +0.030 A 
ATOM      8  C   UNL     1       6.306  -4.559  24.583  0.00  0.00    +0.050 A 
ATOM      9  N   UNL     1       7.256  -3.552  24.416  0.00  0.00    -0.335 N 
ATOM     10  C   UNL     1       7.142  -3.017  23.112  0.00  0.00    +0.053 A 
ENDROOT
BRANCH  10  11
ATOM     11  C   UNL     1       7.823  -1.788  22.615  0.00  0.00    -0.001 A 
ATOM     12  C   UNL     1       7.194  -0.536  22.703  0.00  0.00    +0.013 A 
ATOM     13  C   UNL     1       7.850   0.648  22.346  0.00  0.00    +0.046 A 
ATOM     14  C   UNL     1       9.129   0.591  21.821  0.00  0.00    +0.117 A 
ATOM     15  C   UNL     1       9.767  -0.632  21.666  0.00  0.00    +0.046 A 
ATOM     16  C   UNL     1       9.128  -1.808  22.092  0.00  0.00    +0.013 A 
BRANCH  14  17
ATOM     17  O   UNL     1       9.727   1.764  21.472  0.00  0.00    -0.507 OA
ATOM     18  H   UNL     1       9.134   2.499  21.698  0.00  0.00    +0.292 HD
ENDBRANCH  14  17
ENDBRANCH  10  11
BRANCH   5  19
ATOM     19  O   UNL     1       3.851  -7.888  24.135  0.00  0.00    -0.507 OA
ATOM     20  H   UNL     1       3.061  -7.779  24.689  0.00  0.00    +0.292 HD
ENDBRANCH   5  19
BRANCH   9  21
ATOM     21  C   UNL     1       8.236  -3.081  25.427  0.00  0.00    +0.157 C 
BRANCH  21  22
ATOM     22  C   UNL     1       8.019  -1.698  26.010  0.00  0.00    -0.028 A 
ATOM     23  C   UNL     1       8.953  -0.662  25.863  0.00  0.00    +0.009 A 
ATOM     24  C   UNL     1       8.609   0.669  26.137  0.00  0.00    +0.046 A 
ATOM     25  C   UNL     1       7.385   0.961  26.727  0.00  0.00    +0.121 A 
ATOM     26  C   UNL     1       6.566  -0.108  27.114  0.00  0.00    +0.046 A 
ATOM     27  C   UNL     1       6.860  -1.417  26.731  0.00  0.00    +0.009 A 
BRANCH  25  28
ATOM     28  O   UNL     1       7.067   2.297  26.875  0.00  0.00    -0.491 OA
BRANCH  28  29
ATOM     29  C   UNL     1       6.854   2.948  25.620  0.00  0.00    +0.244 C 
BRANCH  29  30
ATOM     30  C   UNL     1       7.755   4.162  25.353  0.00  0.00    +0.125 C 
BRANCH  30  31
ATOM     31  N   UNL     1       8.332   4.063  23.994  0.00  0.00    -0.299 NA
ATOM     32  C   UNL     1       9.376   5.057  23.726  0.00  0.00    +0.084 C 
ATOM     33  C   UNL     1       8.844   6.459  23.418  0.00  0.00    +0.015 C 
ATOM     34  C   UNL     1       7.796   6.433  22.310  0.00  0.00    +0.002 C 
ATOM     35  C   UNL     1       6.715   5.405  22.613  0.00  0.00    +0.015 C 
ATOM     36  C   UNL     1       7.341   4.043  22.905  0.00  0.00    +0.084 C 
ENDBRANCH  30  31
ENDBRANCH  29  30
ENDBRANCH  28  29
ENDBRANCH  25  28
ENDBRANCH  21  22
ENDBRANCH   9  21
TORSDOF 9
ENDMDL
MODEL 3
REMARK VINA RESULT:      -7.2      1.598      3.315
REMARK  Name = 
REMARK  10 active torsions:
REMARK  status: ('A' for Active; 'I' for Inactive)
REMARK    1  A    between atoms: C_1  and  C_2
REMARK    2  A    between atoms: C_3  and  C_28
REMARK    3  A    between atoms: N_4  and  C_5
REMARK    4  A    between atoms: C_5  and  C_6
REMARK    5  A    between atoms: C_9  and  O_10
REMARK    6  A    between atoms: O_10  and  C_11
REMARK    7  A    between atoms: C_11  and  C_12
REMARK    8  A    between atoms: C_12  and  N_13
REMARK    9  A    between atoms: C_24  and  O_25
REMARK   10  A    between atoms: C_31  and  O_32
REMARK                            x       y       z     vdW  Elec       q    Type
REMARK                         _______ _______ _______ _____ _____    ______ ____
ROOT
ATOM      1  C   UNL     1      10.073  -1.174  21.541  0.00  0.00    +0.046 C 
ATOM      2  C   UNL     1       9.012  -0.645  22.454  0.00  0.00    -0.017 A 
ATOM      3  C   UNL     1       9.076   0.689  22.962  0.00  0.00    +0.007 A 
ATOM      4  C   UNL     1       9.959   1.771  22.703  0.00  0.00    +0.055 A 
ATOM      5  C   UNL     1       9.878   2.919  23.489  0.00  0.00    +0.118 A 
ATOM      6  C   UNL     1       9.009   2.985  24.554  0.00  0.00    +0.047 A 
ATOM      7  C   UNL     1       8.153   1.908  24.819  0.00  0.00    +0.030 A 
ATOM      8  C   UNL     1       8.119   0.797  23.970  0.00  0.00    +0.050 A 
ATOM      9  N   UNL     1       7.281  -0.312  23.855  0.00  0.00    -0.335 N 
ATOM     10  C   UNL     1       7.898  -1.277  23.025  0.00  0.00    +0.053 A 
ENDROOT
BRANCH  10  11
ATOM     11  C   UNL     1       7.432  -2.679  22.828  0.00  0.00    -0.001 A 
ATOM     12  C   UNL     1       6.382  -2.965  21.942  0.00  0.00    +0.013 A 
ATOM     13  C   UNL     1       5.995  -4.280  21.654  0.00  0.00    +0.046 A 
ATOM     14  C   UNL     1       6.609  -5.334  22.309  0.00  0.00    +0.117 A 
ATOM     15  C   UNL     1       7.615  -5.091  23.232  0.00  0.00    +0.046 A 
ATOM     16  C   UNL     1       8.044  -3.773  23.463  0.00  0.00    +0.013 A 
BRANCH  14  17
ATOM     17  O   UNL     1       6.194  -6.596  22.011  0.00  0.00    -0.507 OA
ATOM     18  H   UNL     1       5.836  -7.007  22.815  0.00  0.00    +0.292 HD
ENDBRANCH  14  17
ENDBRANCH  10  11
BRANCH   5  19
ATOM     19  O   UNL     1      10.674   4.001  23.250  0.00  0.00    -0.507 OA
ATOM     20  H   UNL     1      10.856   4.441  24.096  0.00  0.00    +0.292 HD
ENDBRANCH   5  19
BRANCH   9  21
ATOM     21  C   UNL     1       5.956  -0.492  24.497  0.00  0.00    +0.157 C 
BRANCH  21  22
ATOM     22  C   UNL     1       5.737  -1.764  25.293  0.00  0.00    -0.028 A 
ATOM     23  C   UNL     1       4.633  -2.604  25.088  0.00  0.00    +0.009 A 
ATOM     24  C   UNL     1       4.605  -3.906  25.605  0.00  0.00    +0.046 A 
ATOM     25  C   UNL     1       5.601  -4.325  26.479  0.00  0.00    +0.121 A 
ATOM     26  C   UNL     1       6.560  -3.390  26.887  0.00  0.00    +0.046 A 
ATOM     27  C   UNL     1       6.650  -2.137  26.278  0.00  0.00    +0.009 A 
BRANCH  25  28
ATOM     28  O   UNL     1       5.570  -5.650  26.870  0.00  0.00    -0.491 OA
BRANCH  28  29
ATOM     29  C   UNL     1       5.155  -6.520  25.813  0.00  0.00    +0.244 C 
BRANCH  29  30
ATOM     30  C   UNL     1       3.833  -7.261  26.058  0.00  0.00    +0.125 C 
BRANCH  30  31
ATOM     31  N   UNL     1       3.302  -7.767  24.772  0.00  0.00    -0.299 NA
ATOM     32  C   UNL     1       3.139  -6.724  23.755  0.00  0.00    +0.084 C 
ATOM     33  C   UNL     1       1.897  -5.849  23.945  0.00  0.00    +0.015 C 
ATOM     34  C   UNL     1       0.633  -6.690  24.095  0.00  0.00    +0.002 C 
ATOM     35  C   UNL     1       0.818  -7.757  25.164  0.00  0.00    +0.015 C 
ATOM     36  C   UNL     1       2.078  -8.576  24.889  0.00  0.00    +0.084 C 
ENDBRANCH  30  31
ENDBRANCH  29  30
ENDBRANCH  28  29
ENDBRANCH  25  28
ENDBRANCH  21  22
ENDBRANCH   9  21
TORSDOF 9
ENDMDL
MODEL 4
REMARK VINA RESULT:      -7.0      3.898      7.639
REMARK  Name = 
REMARK  10 active torsions:
REMARK  status: ('A' for Active; 'I' for Inactive)
REMARK    1  A    between atoms: C_1  and  C_2
REMARK    2  A    between atoms: C_3  and  C_28
REMARK    3  A    between atoms: N_4  and  C_5
REMARK    4  A    between atoms: C_5  and  C_6
REMARK    5  A    between atoms: C_9  and  O_10
REMARK    6  A    between atoms: O_10  and  C_11
REMARK    7  A    between atoms: C_11  and  C_12
REMARK    8  A    between atoms: C_12  and  N_13
REMARK    9  A    between atoms: C_24  and  O_25
REMARK   10  A    between atoms: C_31  and  O_32
REMARK                            x       y       z     vdW  Elec       q    Type
REMARK                         _______ _______ _______ _____ _____    ______ ____
ROOT
ATOM      1  C   UNL     1       7.518   6.362  21.914  0.00  0.00    +0.046 C 
ATOM      2  C   UNL     1       7.351   5.273  22.926  0.00  0.00    -0.017 A 
ATOM      3  C   UNL     1       6.053   4.820  23.312  0.00  0.00    +0.007 A 
ATOM      4  C   UNL     1       4.750   5.136  22.843  0.00  0.00    +0.055 A 
ATOM      5  C   UNL     1       3.641   4.656  23.539  0.00  0.00    +0.118 A 
ATOM      6  C   UNL     1       3.794   3.951  24.710  0.00  0.00    +0.047 A 
ATOM      7  C   UNL     1       5.081   3.658  25.181  0.00  0.00    +0.030 A 
ATOM      8  C   UNL     1       6.211   4.011  24.437  0.00  0.00    +0.050 A 
ATOM      9  N   UNL     1       7.570   3.711  24.532  0.00  0.00    -0.335 N 
ATOM     10  C   UNL     1       8.300   4.591  23.700  0.00  0.00    +0.053 A 
ENDROOT
BRANCH  10  11
ATOM     11  C   UNL     1       9.783   4.741  23.684  0.00  0.00    -0.001 A 
ATOM     12  C   UNL     1      10.601   3.712  23.191  0.00  0.00    +0.013 A 
ATOM     13  C   UNL     1      11.986   3.867  23.062  0.00  0.00    +0.046 A 
ATOM     14  C   UNL     1      12.589   5.034  23.497  0.00  0.00    +0.117 A 
ATOM     15  C   UNL     1      11.823   6.054  24.042  0.00  0.00    +0.046 A 
ATOM     16  C   UNL     1      10.427   5.919  24.103  0.00  0.00    +0.013 A 
BRANCH  14  17
ATOM     17  O   UNL     1      13.941   5.139  23.367  0.00  0.00    -0.507 OA
ATOM     18  H   UNL     1      14.366   4.552  24.014  0.00  0.00    +0.292 HD
ENDBRANCH  14  17
ENDBRANCH  10  11
BRANCH   5  19
ATOM     19  O   UNL     1       2.371   4.896  23.102  0.00  0.00    -0.507 OA
ATOM     20  H   UNL     1       2.237   5.857  23.061  0.00  0.00    +0.292 HD
ENDBRANCH   5  19
BRANCH   9  21
ATOM     21  C   UNL     1       8.188   2.654  25.371  0.00  0.00    +0.157 C 
BRANCH  21  22
ATOM     22  C   UNL     1       8.675   1.404  24.665  0.00  0.00    -0.028 A 
ATOM     23  C   UNL     1       9.815   0.700  25.077  0.00  0.00    +0.009 A 
ATOM     24  C   UNL     1      10.073  -0.599  24.616  0.00  0.00    +0.046 A 
ATOM     25  C   UNL     1       9.289  -1.142  23.605  0.00  0.00    +0.121 A 
ATOM     26  C   UNL     1       8.314  -0.329  23.014  0.00  0.00    +0.046 A 
ATOM     27  C   UNL     1       7.986   0.913  23.557  0.00  0.00    +0.009 A 
BRANCH  25  28
ATOM     28  O   UNL     1       9.531  -2.461  23.269  0.00  0.00    -0.491 OA
BRANCH  28  29
ATOM     29  C   UNL     1       9.414  -3.338  24.393  0.00  0.00    +0.244 C 
BRANCH  29  30
ATOM     30  C   UNL     1       8.418  -4.494  24.217  0.00  0.00    +0.125 C 
BRANCH  30  31
ATOM     31  N   UNL     1       7.246  -4.026  23.443  0.00  0.00    -0.299 NA
ATOM     32  C   UNL     1       5.987  -4.085  24.192  0.00  0.00    +0.084 C 
ATOM     33  C   UNL     1       5.383  -5.487  24.294  0.00  0.00    +0.015 C 
ATOM     34  C   UNL     1       5.253  -6.147  22.925  0.00  0.00    +0.002 C 
ATOM     35  C   UNL     1       6.573  -6.087  22.169  0.00  0.00    +0.015 C 
ATOM     36  C   UNL     1       7.095  -4.653  22.119  0.00  0.00    +0.084 C 
ENDBRANCH  30  31
ENDBRANCH  29  30
ENDBRANCH  28  29
ENDBRANCH  25  28
ENDBRANCH  21  22
ENDBRANCH   9  21
TORSDOF 9
ENDMDL
MODEL 5
REMARK VINA RESULT:      -6.9      4.062      7.736
REMARK  Name = 
REMARK  10 active torsions:
REMARK  status: ('A' for Active; 'I' for Inactive)
REMARK    1  A    between atoms: C_1  and  C_2
REMARK    2  A    between atoms: C_3  and  C_28
REMARK    3  A    between atoms: N_4  and  C_5
REMARK    4  A    between atoms: C_5  and  C_6
REMARK    5  A    between atoms: C_9  and  O_10
REMARK    6  A    between atoms: O_10  and  C_11
REMARK    7  A    between atoms: C_11  and  C_12
REMARK    8  A    between atoms: C_12  and  N_13
REMARK    9  A    between atoms: C_24  and  O_25
REMARK   10  A    between atoms: C_31  and  O_32
REMARK                            x       y       z     vdW  Elec       q    Type
REMARK                         _______ _______ _______ _____ _____    ______ ____
ROOT
ATOM      1  C   UNL     1       7.797   5.968  26.517  0.00  0.00    +0.046 C 
ATOM      2  C   UNL     1       7.267   5.221  25.335  0.00  0.00    -0.017 A 
ATOM      3  C   UNL     1       5.880   4.896  25.230  0.00  0.00    +0.007 A 
ATOM      4  C   UNL     1       4.755   5.232  26.030  0.00  0.00    +0.055 A 
ATOM      5  C   UNL     1       3.530   4.619  25.773  0.00  0.00    +0.118 A 
ATOM      6  C   UNL     1       3.418   3.642  24.810  0.00  0.00    +0.047 A 
ATOM      7  C   UNL     1       4.534   3.299  24.036  0.00  0.00    +0.030 A 
ATOM      8  C   UNL     1       5.742   3.988  24.181  0.00  0.00    +0.050 A 
ATOM      9  N   UNL     1       6.938   4.015  23.462  0.00  0.00    -0.335 N 
ATOM     10  C   UNL     1       7.932   4.656  24.237  0.00  0.00    +0.053 A 
ENDROOT
BRANCH  10  11
ATOM     11  C   UNL     1       9.388   4.695  23.921  0.00  0.00    -0.001 A 
ATOM     12  C   UNL     1      10.061   5.921  23.799  0.00  0.00    +0.013 A 
ATOM     13  C   UNL     1      11.447   5.988  23.612  0.00  0.00    +0.046 A 
ATOM     14  C   UNL     1      12.176   4.821  23.468  0.00  0.00    +0.117 A 
ATOM     15  C   UNL     1      11.541   3.589  23.527  0.00  0.00    +0.046 A 
ATOM     16  C   UNL     1      10.162   3.529  23.785  0.00  0.00    +0.013 A 
BRANCH  14  17
ATOM     17  O   UNL     1      13.520   4.930  23.273  0.00  0.00    -0.507 OA
ATOM     18  H   UNL     1      13.944   4.098  23.538  0.00  0.00    +0.292 HD
ENDBRANCH  14  17
ENDBRANCH  10  11
BRANCH   5  19
ATOM     19  O   UNL     1       2.412   4.941  26.485  0.00  0.00    -0.507 OA
ATOM     20  H   UNL     1       2.624   5.690  27.066  0.00  0.00    +0.292 HD
ENDBRANCH   5  19
BRANCH   9  21
ATOM     21  C   UNL     1       7.169   3.458  22.106  0.00  0.00    +0.157 C 
BRANCH  21  22
ATOM     22  C   UNL     1       7.642   2.020  22.019  0.00  0.00    -0.028 A 
ATOM     23  C   UNL     1       8.711   1.625  21.201  0.00  0.00    +0.009 A 
ATOM     24  C   UNL     1       9.323   0.374  21.360  0.00  0.00    +0.046 A 
ATOM     25  C   UNL     1       8.763  -0.566  22.218  0.00  0.00    +0.121 A 
ATOM     26  C   UNL     1       7.544  -0.258  22.833  0.00  0.00    +0.046 A 
ATOM     27  C   UNL     1       7.006   1.028  22.764  0.00  0.00    +0.009 A 
BRANCH  25  28
ATOM     28  O   UNL     1       9.471  -1.737  22.406  0.00  0.00    -0.491 OA
BRANCH  28  29
ATOM     29  C   UNL     1       8.668  -2.773  22.978  0.00  0.00    +0.244 C 
BRANCH  29  30
ATOM     30  C   UNL     1       9.197  -3.357  24.296  0.00  0.00    +0.125 C 
BRANCH  30  31
ATOM     31  N   UNL     1       8.914  -4.809  24.346  0.00  0.00    -0.299 NA
ATOM     32  C   UNL     1       7.590  -5.165  23.827  0.00  0.00    +0.084 C 
ATOM     33  C   UNL     1       6.439  -4.888  24.797  0.00  0.00    +0.015 C 
ATOM     34  C   UNL     1       6.693  -5.513  26.165  0.00  0.00    +0.002 C 
ATOM     35  C   UNL     1       8.065  -5.120  26.692  0.00  0.00    +0.015 C 
ATOM     36  C   UNL     1       9.144  -5.435  25.658  0.00  0.00    +0.084 C 
ENDBRANCH  30  31
ENDBRANCH  29  30
ENDBRANCH  28  29
ENDBRANCH  25  28
ENDBRANCH  21  22
ENDBRANCH   9  21
TORSDOF 9
ENDMDL
MODEL 6
REMARK VINA RESULT:      -6.9      3.386      6.989
REMARK  Name = 
REMARK  10 active torsions:
REMARK  status: ('A' for Active; 'I' for Inactive)
REMARK    1  A    between atoms: C_1  and  C_2
REMARK    2  A    between atoms: C_3  and  C_28
REMARK    3  A    between atoms: N_4  and  C_5
REMARK    4  A    between atoms: C_5  and  C_6
REMARK    5  A    between atoms: C_9  and  O_10
REMARK    6  A    between atoms: O_10  and  C_11
REMARK    7  A    between atoms: C_11  and  C_12
REMARK    8  A    between atoms: C_12  and  N_13
REMARK    9  A    between atoms: C_24  and  O_25
REMARK   10  A    between atoms: C_31  and  O_32
REMARK                            x       y       z     vdW  Elec       q    Type
REMARK                         _______ _______ _______ _____ _____    ______ ____
ROOT
ATOM      1  C   UNL     1       8.130  -2.660  22.226  0.00  0.00    +0.046 C 
ATOM      2  C   UNL     1       8.342  -1.829  23.451  0.00  0.00    -0.017 A 
ATOM      3  C   UNL     1       8.954  -0.541  23.370  0.00  0.00    +0.007 A 
ATOM      4  C   UNL     1       9.370   0.254  22.270  0.00  0.00    +0.055 A 
ATOM      5  C   UNL     1      10.106   1.415  22.507  0.00  0.00    +0.118 A 
ATOM      6  C   UNL     1      10.495   1.755  23.782  0.00  0.00    +0.047 A 
ATOM      7  C   UNL     1      10.100   0.958  24.864  0.00  0.00    +0.030 A 
ATOM      8  C   UNL     1       9.252  -0.138  24.672  0.00  0.00    +0.050 A 
ATOM      9  N   UNL     1       8.552  -0.987  25.530  0.00  0.00    -0.335 N 
ATOM     10  C   UNL     1       8.105  -2.115  24.804  0.00  0.00    +0.053 A 
ENDROOT
BRANCH  10  11
ATOM     11  C   UNL     1       7.512  -3.349  25.394  0.00  0.00    -0.001 A 
ATOM     12  C   UNL     1       8.296  -4.220  26.166  0.00  0.00    +0.013 A 
ATOM     13  C   UNL     1       7.743  -5.326  26.823  0.00  0.00    +0.046 A 
ATOM     14  C   UNL     1       6.401  -5.623  26.656  0.00  0.00    +0.117 A 
ATOM     15  C   UNL     1       5.603  -4.817  25.857  0.00  0.00    +0.046 A 
ATOM     16  C   UNL     1       6.150  -3.671  25.258  0.00  0.00    +0.013 A 
BRANCH  14  17
ATOM     17  O   UNL     1       5.905  -6.715  27.300  0.00  0.00    -0.507 OA
ATOM     18  H   UNL     1       5.601  -7.359  26.639  0.00  0.00    +0.292 HD
ENDBRANCH  14  17
ENDBRANCH  10  11
BRANCH   5  19
ATOM     19  O   UNL     1      10.489   2.233  21.485  0.00  0.00    -0.507 OA
ATOM     20  H   UNL     1      11.084   2.913  21.843  0.00  0.00    +0.292 HD
ENDBRANCH   5  19
BRANCH   9  21
ATOM     21  C   UNL     1       8.309  -0.779  26.978  0.00  0.00    +0.157 C 
BRANCH  21  22
ATOM     22  C   UNL     1       7.095   0.043  27.366  0.00  0.00    -0.028 A 
ATOM     23  C   UNL     1       7.193   1.368  27.815  0.00  0.00    +0.009 A 
ATOM     24  C   UNL     1       6.066   2.200  27.875  0.00  0.00    +0.046 A 
ATOM     25  C   UNL     1       4.801   1.668  27.655  0.00  0.00    +0.121 A 
ATOM     26  C   UNL     1       4.688   0.285  27.466  0.00  0.00    +0.046 A 
ATOM     27  C   UNL     1       5.819  -0.513  27.289  0.00  0.00    +0.009 A 
BRANCH  25  28
ATOM     28  O   UNL     1       3.746   2.560  27.628  0.00  0.00    -0.491 OA
BRANCH  28  29
ATOM     29  C   UNL     1       3.142   2.648  26.334  0.00  0.00    +0.244 C 
BRANCH  29  30
ATOM     30  C   UNL     1       3.934   3.457  25.297  0.00  0.00    +0.125 C 
BRANCH  30  31
ATOM     31  N   UNL     1       4.193   2.617  24.105  0.00  0.00    -0.299 NA
ATOM     32  C   UNL     1       5.356   1.737  24.250  0.00  0.00    +0.084 C 
ATOM     33  C   UNL     1       6.703   2.440  24.070  0.00  0.00    +0.015 C 
ATOM     34  C   UNL     1       6.756   3.231  22.766  0.00  0.00    +0.002 C 
ATOM     35  C   UNL     1       5.548   4.148  22.641  0.00  0.00    +0.015 C 
ATOM     36  C   UNL     1       4.255   3.358  22.834  0.00  0.00    +0.084 C 
ENDBRANCH  30  31
ENDBRANCH  29  30
ENDBRANCH  28  29
ENDBRANCH  25  28
ENDBRANCH  21  22
ENDBRANCH   9  21
TORSDOF 9
ENDMDL
MODEL 7
REMARK VINA RESULT:      -6.8      1.701      2.516
REMARK  Name = 
REMARK  10 active torsions:
REMARK  status: ('A' for Active; 'I' for Inactive)
REMARK    1  A    between atoms: C_1  and  C_2
REMARK    2  A    between atoms: C_3  and  C_28
REMARK    3  A    between atoms: N_4  and  C_5
REMARK    4  A    between atoms: C_5  and  C_6
REMARK    5  A    between atoms: C_9  and  O_10
REMARK    6  A    between atoms: O_10  and  C_11
REMARK    7  A    between atoms: C_11  and  C_12
REMARK    8  A    between atoms: C_12  and  N_13
REMARK    9  A    between atoms: C_24  and  O_25
REMARK   10  A    between atoms: C_31  and  O_32
REMARK                            x       y       z     vdW  Elec       q    Type
REMARK                         _______ _______ _______ _____ _____    ______ ____
ROOT
ATOM      1  C   UNL     1       8.701   0.323  26.736  0.00  0.00    +0.046 C 
ATOM      2  C   UNL     1       8.643  -0.134  25.313  0.00  0.00    -0.017 A 
ATOM      3  C   UNL     1       8.721   0.801  24.236  0.00  0.00    +0.007 A 
ATOM      4  C   UNL     1       8.954   2.202  24.198  0.00  0.00    +0.055 A 
ATOM      5  C   UNL     1       8.800   2.885  22.993  0.00  0.00    +0.118 A 
ATOM      6  C   UNL     1       8.354   2.236  21.865  0.00  0.00    +0.047 A 
ATOM      7  C   UNL     1       8.107   0.858  21.910  0.00  0.00    +0.030 A 
ATOM      8  C   UNL     1       8.377   0.121  23.068  0.00  0.00    +0.050 A 
ATOM      9  N   UNL     1       8.415  -1.241  23.366  0.00  0.00    -0.335 N 
ATOM     10  C   UNL     1       8.436  -1.410  24.769  0.00  0.00    +0.053 A 
ENDROOT
BRANCH  10  11
ATOM     11  C   UNL     1       8.261  -2.702  25.492  0.00  0.00    -0.001 A 
ATOM     12  C   UNL     1       7.052  -3.003  26.137  0.00  0.00    +0.013 A 
ATOM     13  C   UNL     1       6.820  -4.250  26.729  0.00  0.00    +0.046 A 
ATOM     14  C   UNL     1       7.829  -5.197  26.750  0.00  0.00    +0.117 A 
ATOM     15  C   UNL     1       9.058  -4.920  26.170  0.00  0.00    +0.046 A 
ATOM     16  C   UNL     1       9.259  -3.692  25.518  0.00  0.00    +0.013 A 
BRANCH  14  17
ATOM     17  O   UNL     1       7.568  -6.392  27.348  0.00  0.00    -0.507 OA
ATOM     18  H   UNL     1       7.636  -7.098  26.684  0.00  0.00    +0.292 HD
ENDBRANCH  14  17
ENDBRANCH  10  11
BRANCH   5  19
ATOM     19  O   UNL     1       9.056   4.222  22.898  0.00  0.00    -0.507 OA
ATOM     20  H   UNL     1      10.017   4.356  22.947  0.00  0.00    +0.292 HD
ENDBRANCH   5  19
BRANCH   9  21
ATOM     21  C   UNL     1       8.420  -2.361  22.392  0.00  0.00    +0.157 C 
BRANCH  21  22
ATOM     22  C   UNL     1       7.289  -3.367  22.487  0.00  0.00    -0.028 A 
ATOM     23  C   UNL     1       7.505  -4.752  22.454  0.00  0.00    +0.009 A 
ATOM     24  C   UNL     1       6.504  -5.653  22.844  0.00  0.00    +0.046 A 
ATOM     25  C   UNL     1       5.220  -5.190  23.103  0.00  0.00    +0.121 A 
ATOM     26  C   UNL     1       4.946  -3.835  22.877  0.00  0.00    +0.046 A 
ATOM     27  C   UNL     1       5.971  -2.928  22.606  0.00  0.00    +0.009 A 
BRANCH  25  28
ATOM     28  O   UNL     1       4.310  -6.113  23.580  0.00  0.00    -0.491 OA
BRANCH  28  29
ATOM     29  C   UNL     1       3.172  -5.493  24.186  0.00  0.00    +0.244 C 
BRANCH  29  30
ATOM     30  C   UNL     1       3.012  -5.751  25.691  0.00  0.00    +0.125 C 
BRANCH  30  31
ATOM     31  N   UNL     1       2.115  -4.730  26.277  0.00  0.00    -0.299 NA
ATOM     32  C   UNL     1       2.257  -3.405  25.667  0.00  0.00    +0.084 C 
ATOM     33  C   UNL     1       3.485  -2.624  26.140  0.00  0.00    +0.015 C 
ATOM     34  C   UNL     1       3.555  -2.551  27.662  0.00  0.00    +0.002 C 
ATOM     35  C   UNL     1       3.419  -3.937  28.276  0.00  0.00    +0.015 C 
ATOM     36  C   UNL     1       2.169  -4.635  27.746  0.00  0.00    +0.084 C 
ENDBRANCH  30  31
ENDBRANCH  29  30
ENDBRANCH  28  29
ENDBRANCH  25  28
ENDBRANCH  21  22
ENDBRANCH   9  21
TORSDOF 9
ENDMDL
MODEL 8
REMARK VINA RESULT:      -6.7      2.925      9.607
REMARK  Name = 
REMARK  10 active torsions:
REMARK  status: ('A' for Active; 'I' for Inactive)
REMARK    1  A    between atoms: C_1  and  C_2
REMARK    2  A    between atoms: C_3  and  C_28
REMARK    3  A    between atoms: N_4  and  C_5
REMARK    4  A    between atoms: C_5  and  C_6
REMARK    5  A    between atoms: C_9  and  O_10
REMARK    6  A    between atoms: O_10  and  C_11
REMARK    7  A    between atoms: C_11  and  C_12
REMARK    8  A    between atoms: C_12  and  N_13
REMARK    9  A    between atoms: C_24  and  O_25
REMARK   10  A    between atoms: C_31  and  O_32
REMARK                            x       y       z     vdW  Elec       q    Type
REMARK                         _______ _______ _______ _____ _____    ______ ____
ROOT
ATOM      1  C   UNL     1       9.441  -4.822  25.887  0.00  0.00    +0.046 C 
ATOM      2  C   UNL     1       8.067  -4.237  25.824  0.00  0.00    -0.017 A 
ATOM      3  C   UNL     1       6.968  -4.866  26.488  0.00  0.00    +0.007 A 
ATOM      4  C   UNL     1       6.889  -5.985  27.358  0.00  0.00    +0.055 A 
ATOM      5  C   UNL     1       5.636  -6.479  27.720  0.00  0.00    +0.118 A 
ATOM      6  C   UNL     1       4.486  -5.944  27.187  0.00  0.00    +0.047 A 
ATOM      7  C   UNL     1       4.569  -4.852  26.313  0.00  0.00    +0.030 A 
ATOM      8  C   UNL     1       5.801  -4.252  26.034  0.00  0.00    +0.050 A 
ATOM      9  N   UNL     1       6.186  -3.081  25.381  0.00  0.00    -0.335 N 
ATOM     10  C   UNL     1       7.574  -3.130  25.118  0.00  0.00    +0.053 A 
ENDROOT
BRANCH  10  11
ATOM     11  C   UNL     1       8.329  -2.180  24.252  0.00  0.00    -0.001 A 
ATOM     12  C   UNL     1       8.200  -2.229  22.855  0.00  0.00    +0.013 A 
ATOM     13  C   UNL     1       8.809  -1.283  22.023  0.00  0.00    +0.046 A 
ATOM     14  C   UNL     1       9.623  -0.309  22.574  0.00  0.00    +0.117 A 
ATOM     15  C   UNL     1       9.820  -0.258  23.946  0.00  0.00    +0.046 A 
ATOM     16  C   UNL     1       9.150  -1.169  24.779  0.00  0.00    +0.013 A 
BRANCH  14  17
ATOM     17  O   UNL     1      10.209   0.585  21.729  0.00  0.00    -0.507 OA
ATOM     18  H   UNL     1       9.716   1.421  21.765  0.00  0.00    +0.292 HD
ENDBRANCH  14  17
ENDBRANCH  10  11
BRANCH   5  19
ATOM     19  O   UNL     1       5.509  -7.524  28.588  0.00  0.00    -0.507 OA
ATOM     20  H   UNL     1       5.532  -7.175  29.495  0.00  0.00    +0.292 HD
ENDBRANCH   5  19
BRANCH   9  21
ATOM     21  C   UNL     1       5.305  -1.952  24.994  0.00  0.00    +0.157 C 
BRANCH  21  22
ATOM     22  C   UNL     1       5.707  -0.567  25.463  0.00  0.00    -0.028 A 
ATOM     23  C   UNL     1       6.032  -0.286  26.798  0.00  0.00    +0.009 A 
ATOM     24  C   UNL     1       6.687   0.903  27.151  0.00  0.00    +0.046 A 
ATOM     25  C   UNL     1       6.866   1.902  26.203  0.00  0.00    +0.121 A 
ATOM     26  C   UNL     1       6.302   1.719  24.934  0.00  0.00    +0.046 A 
ATOM     27  C   UNL     1       5.760   0.491  24.556  0.00  0.00    +0.009 A 
BRANCH  25  28
ATOM     28  O   UNL     1       7.607   3.002  26.589  0.00  0.00    -0.491 OA
BRANCH  28  29
ATOM     29  C   UNL     1       7.354   4.145  25.767  0.00  0.00    +0.244 C 
BRANCH  29  30
ATOM     30  C   UNL     1       8.580   5.022  25.473  0.00  0.00    +0.125 C 
BRANCH  30  31
ATOM     31  N   UNL     1       8.829   5.053  24.014  0.00  0.00    -0.299 NA
ATOM     32  C   UNL     1       9.220   3.755  23.458  0.00  0.00    +0.084 C 
ATOM     33  C   UNL     1      10.679   3.374  23.717  0.00  0.00    +0.015 C 
ATOM     34  C   UNL     1      11.636   4.481  23.285  0.00  0.00    +0.002 C 
ATOM     35  C   UNL     1      11.221   5.818  23.883  0.00  0.00    +0.015 C 
ATOM     36  C   UNL     1       9.754   6.110  23.572  0.00  0.00    +0.084 C 
ENDBRANCH  30  31
ENDBRANCH  29  30
ENDBRANCH  28  29
ENDBRANCH  25  28
ENDBRANCH  21  22
ENDBRANCH   9  21
TORSDOF 9
ENDMDL
MODEL 9
REMARK VINA RESULT:      -6.7      2.713      9.073
REMARK  Name = 
REMARK  10 active torsions:
REMARK  status: ('A' for Active; 'I' for Inactive)
REMARK    1  A    between atoms: C_1  and  C_2
REMARK    2  A    between atoms: C_3  and  C_28
REMARK    3  A    between atoms: N_4  and  C_5
REMARK    4  A    between atoms: C_5  and  C_6
REMARK    5  A    between atoms: C_9  and  O_10
REMARK    6  A    between atoms: O_10  and  C_11
REMARK    7  A    between atoms: C_11  and  C_12
REMARK    8  A    between atoms: C_12  and  N_13
REMARK    9  A    between atoms: C_24  and  O_25
REMARK   10  A    between atoms: C_31  and  O_32
REMARK                            x       y       z     vdW  Elec       q    Type
REMARK                         _______ _______ _______ _____ _____    ______ ____
ROOT
ATOM      1  C   UNL     1       6.364  -5.890  22.192  0.00  0.00    +0.046 C 
ATOM      2  C   UNL     1       6.196  -5.405  23.597  0.00  0.00    -0.017 A 
ATOM      3  C   UNL     1       5.266  -6.029  24.484  0.00  0.00    +0.007 A 
ATOM      4  C   UNL     1       4.443  -7.179  24.355  0.00  0.00    +0.055 A 
ATOM      5  C   UNL     1       3.496  -7.452  25.341  0.00  0.00    +0.118 A 
ATOM      6  C   UNL     1       3.298  -6.584  26.389  0.00  0.00    +0.047 A 
ATOM      7  C   UNL     1       4.098  -5.439  26.503  0.00  0.00    +0.030 A 
ATOM      8  C   UNL     1       5.144  -5.207  25.604  0.00  0.00    +0.050 A 
ATOM      9  N   UNL     1       6.200  -4.296  25.556  0.00  0.00    -0.335 N 
ATOM     10  C   UNL     1       6.768  -4.311  24.262  0.00  0.00    +0.053 A 
ENDROOT
BRANCH  10  11
ATOM     11  C   UNL     1       7.769  -3.337  23.741  0.00  0.00    -0.001 A 
ATOM     12  C   UNL     1       7.376  -2.299  22.881  0.00  0.00    +0.013 A 
ATOM     13  C   UNL     1       8.271  -1.306  22.464  0.00  0.00    +0.046 A 
ATOM     14  C   UNL     1       9.600  -1.378  22.844  0.00  0.00    +0.117 A 
ATOM     15  C   UNL     1      10.041  -2.418  23.649  0.00  0.00    +0.046 A 
ATOM     16  C   UNL     1       9.122  -3.371  24.120  0.00  0.00    +0.013 A 
BRANCH  14  17
ATOM     17  O   UNL     1      10.441  -0.401  22.405  0.00  0.00    -0.507 OA
ATOM     18  H   UNL     1      10.996  -0.108  23.146  0.00  0.00    +0.292 HD
ENDBRANCH  14  17
ENDBRANCH  10  11
BRANCH   5  19
ATOM     19  O   UNL     1       2.713  -8.568  25.283  0.00  0.00    -0.507 OA
ATOM     20  H   UNL     1       2.708  -8.985  26.160  0.00  0.00    +0.292 HD
ENDBRANCH   5  19
BRANCH   9  21
ATOM     21  C   UNL     1       6.669  -3.425  26.662  0.00  0.00    +0.157 C 
BRANCH  21  22
ATOM     22  C   UNL     1       6.519  -1.928  26.477  0.00  0.00    -0.028 A 
ATOM     23  C   UNL     1       5.368  -1.346  25.926  0.00  0.00    +0.009 A 
ATOM     24  C   UNL     1       5.122   0.029  26.043  0.00  0.00    +0.046 A 
ATOM     25  C   UNL     1       6.105   0.867  26.555  0.00  0.00    +0.121 A 
ATOM     26  C   UNL     1       7.354   0.312  26.859  0.00  0.00    +0.046 A 
ATOM     27  C   UNL     1       7.551  -1.069  26.854  0.00  0.00    +0.009 A 
BRANCH  25  28
ATOM     28  O   UNL     1       5.761   2.192  26.738  0.00  0.00    -0.491 OA
BRANCH  28  29
ATOM     29  C   UNL     1       5.519   2.867  25.500  0.00  0.00    +0.244 C 
BRANCH  29  30
ATOM     30  C   UNL     1       6.555   3.938  25.128  0.00  0.00    +0.125 C 
BRANCH  30  31
ATOM     31  N   UNL     1       7.070   3.678  23.765  0.00  0.00    -0.299 NA
ATOM     32  C   UNL     1       7.607   2.325  23.590  0.00  0.00    +0.084 C 
ATOM     33  C   UNL     1       9.006   2.124  24.177  0.00  0.00    +0.015 C 
ATOM     34  C   UNL     1       9.983   3.185  23.681  0.00  0.00    +0.002 C 
ATOM     35  C   UNL     1       9.413   4.582  23.883  0.00  0.00    +0.015 C 
ATOM     36  C   UNL     1       8.020   4.685  23.265  0.00  0.00    +0.084 C 
ENDBRANCH  30  31
ENDBRANCH  29  30
ENDBRANCH  28  29
ENDBRANCH  25  28
ENDBRANCH  21  22
ENDBRANCH   9  21
TORSDOF 9
ENDMDL
