MODEL 1
REMARK VINA RESULT:      -5.4      0.000      0.000
REMARK  Name = 
REMARK  8 active torsions:
REMARK  status: ('A' for Active; 'I' for Inactive)
REMARK    1  A    between atoms: C_1  and  O_2
REMARK    2  A    between atoms: O_2  and  C_3
REMARK    3  A    between atoms: C_6  and  C_8
REMARK    4  A    between atoms: C_8  and  O_9
REMARK    5  A    between atoms: C_10  and  O_12
REMARK    6  A    between atoms: C_13  and  O_15
REMARK    7  A    between atoms: C_16  and  N_18
REMARK    8  A    between atoms: C_19  and  C_20
REMARK                            x       y       z     vdW  Elec       q    Type
REMARK                         _______ _______ _______ _____ _____    ______ ____
ROOT
ATOM      1  C   UNL     1       7.265  -4.028  23.614  0.00  0.00    +0.273 C 
ATOM      2  C   UNL     1       8.721  -3.490  23.652  0.00  0.00    +0.160 C 
ATOM      3  C   UNL     1       9.419  -4.052  24.910  0.00  0.00    +0.171 C 
ATOM      4  C   UNL     1       8.620  -3.680  26.167  0.00  0.00    +0.176 C 
ATOM      5  C   UNL     1       7.123  -4.039  26.049  0.00  0.00    +0.178 C 
ATOM      6  O   UNL     1       6.538  -3.663  24.793  0.00  0.00    -0.341 OA
ENDROOT
BRANCH   2   7
ATOM      7  N   UNL     1       8.806  -2.030  23.649  0.00  0.00    -0.305 N 
ATOM      8  H   UNL     1       8.008  -1.539  24.054  0.00  0.00    +0.149 HD
ATOM      9  C   UNL     1       9.782  -1.318  23.018  0.00  0.00    +0.210 C 
ATOM     10  O   UNL     1      10.676  -1.837  22.359  0.00  0.00    -0.276 OA
ATOM     11  C   UNL     1       9.696   0.173  23.233  0.00  0.00    +0.109 C 
ENDBRANCH   2   7
BRANCH   1  13
ATOM     12  C   UNL     1       7.197  -5.883  22.110  0.00  0.00    +0.197 C 
ATOM     13  O   UNL     1       7.311  -5.456  23.463  0.00  0.00    -0.353 OA
ENDBRANCH   1  13
BRANCH   3  14
ATOM     14  O   UNL     1       9.635  -5.466  24.831  0.00  0.00    -0.387 OA
ATOM     15  H   UNL     1       9.730  -5.708  23.885  0.00  0.00    +0.210 HD
ENDBRANCH   3  14
BRANCH   4  16
ATOM     16  O   UNL     1       8.730  -2.247  26.360  0.00  0.00    -0.387 OA
ATOM     17  H   UNL     1       8.715  -2.100  27.324  0.00  0.00    +0.210 HD
ENDBRANCH   4  16
BRANCH   5  18
ATOM     18  C   UNL     1       6.808  -5.491  26.437  0.00  0.00    +0.190 C 
BRANCH  18  19
ATOM     19  O   UNL     1       7.848  -6.015  27.260  0.00  0.00    -0.392 OA
ATOM     20  H   UNL     1       8.692  -5.694  26.889  0.00  0.00    +0.210 HD
ENDBRANCH  18  19
ENDBRANCH   5  18
TORSDOF 6
ENDMDL
MODEL 2
REMARK VINA RESULT:      -5.2      2.376      5.878
REMARK  Name = 
REMARK  8 active torsions:
REMARK  status: ('A' for Active; 'I' for Inactive)
REMARK    1  A    between atoms: C_1  and  O_2
REMARK    2  A    between atoms: O_2  and  C_3
REMARK    3  A    between atoms: C_6  and  C_8
REMARK    4  A    between atoms: C_8  and  O_9
REMARK    5  A    between atoms: C_10  and  O_12
REMARK    6  A    between atoms: C_13  and  O_15
REMARK    7  A    between atoms: C_16  and  N_18
REMARK    8  A    between atoms: C_19  and  C_20
REMARK                            x       y       z     vdW  Elec       q    Type
REMARK                         _______ _______ _______ _____ _____    ______ ____
ROOT
ATOM      1  C   UNL     1       8.121  -0.112  24.348  0.00  0.00    +0.273 C 
ATOM      2  C   UNL     1       9.400  -0.975  24.528  0.00  0.00    +0.160 C 
ATOM      3  C   UNL     1      10.516  -0.391  23.634  0.00  0.00    +0.171 C 
ATOM      4  C   UNL     1      10.046  -0.332  22.174  0.00  0.00    +0.176 C 
ATOM      5  C   UNL     1       8.673   0.357  22.018  0.00  0.00    +0.178 C 
ATOM      6  O   UNL     1       7.698  -0.077  22.980  0.00  0.00    -0.341 OA
ENDROOT
BRANCH   2   7
ATOM      7  N   UNL     1       9.202  -2.389  24.212  0.00  0.00    -0.305 N 
ATOM      8  H   UNL     1       9.258  -2.634  23.222  0.00  0.00    +0.149 HD
ATOM      9  C   UNL     1       8.807  -3.331  25.114  0.00  0.00    +0.210 C 
ATOM     10  O   UNL     1       8.547  -3.076  26.285  0.00  0.00    -0.276 OA
ATOM     11  C   UNL     1       8.754  -4.734  24.561  0.00  0.00    +0.109 C 
ENDBRANCH   2   7
BRANCH   1  13
ATOM     12  C   UNL     1       7.328   1.761  25.601  0.00  0.00    +0.197 C 
ATOM     13  O   UNL     1       8.394   1.212  24.833  0.00  0.00    -0.353 OA
ENDBRANCH   1  13
BRANCH   3  14
ATOM     14  O   UNL     1      10.967   0.891  24.088  0.00  0.00    -0.387 OA
ATOM     15  H   UNL     1      11.787   1.117  23.599  0.00  0.00    +0.210 HD
ENDBRANCH   3  14
BRANCH   4  16
ATOM     16  O   UNL     1       9.931  -1.691  21.685  0.00  0.00    -0.387 OA
ATOM     17  H   UNL     1       9.322  -2.149  22.293  0.00  0.00    +0.210 HD
ENDBRANCH   4  16
BRANCH   5  18
ATOM     18  C   UNL     1       8.761   1.886  21.916  0.00  0.00    +0.190 C 
BRANCH  18  19
ATOM     19  O   UNL     1      10.083   2.277  21.552  0.00  0.00    -0.392 OA
ATOM     20  H   UNL     1      10.258   1.897  20.670  0.00  0.00    +0.210 HD
ENDBRANCH  18  19
ENDBRANCH   5  18
TORSDOF 6
ENDMDL
MODEL 3
REMARK VINA RESULT:      -5.0      3.755      6.136
REMARK  Name = 
REMARK  8 active torsions:
REMARK  status: ('A' for Active; 'I' for Inactive)
REMARK    1  A    between atoms: C_1  and  O_2
REMARK    2  A    between atoms: O_2  and  C_3
REMARK    3  A    between atoms: C_6  and  C_8
REMARK    4  A    between atoms: C_8  and  O_9
REMARK    5  A    between atoms: C_10  and  O_12
REMARK    6  A    between atoms: C_13  and  O_15
REMARK    7  A    between atoms: C_16  and  N_18
REMARK    8  A    between atoms: C_19  and  C_20
REMARK                            x       y       z     vdW  Elec       q    Type
REMARK                         _______ _______ _______ _____ _____    ______ ____
ROOT
ATOM      1  C   UNL     1       9.657   0.754  24.743  0.00  0.00    +0.273 C 
ATOM      2  C   UNL     1       8.888   1.983  24.187  0.00  0.00    +0.160 C 
ATOM      3  C   UNL     1       8.240   1.589  22.841  0.00  0.00    +0.171 C 
ATOM      4  C   UNL     1       9.314   1.077  21.871  0.00  0.00    +0.176 C 
ATOM      5  C   UNL     1      10.210  -0.013  22.495  0.00  0.00    +0.178 C 
ATOM      6  O   UNL     1      10.657   0.299  23.823  0.00  0.00    -0.341 OA
ENDROOT
BRANCH   2   7
ATOM      7  N   UNL     1       9.728   3.167  24.006  0.00  0.00    -0.305 N 
ATOM      8  H   UNL     1      10.724   2.987  23.873  0.00  0.00    +0.149 HD
ATOM      9  C   UNL     1       9.291   4.449  24.157  0.00  0.00    +0.210 C 
ATOM     10  O   UNL     1       8.148   4.738  24.493  0.00  0.00    -0.276 OA
ATOM     11  C   UNL     1      10.329   5.497  23.834  0.00  0.00    +0.109 C 
ENDBRANCH   2   7
BRANCH   1  13
ATOM     12  C   UNL     1       8.815  -0.803  26.348  0.00  0.00    +0.197 C 
ATOM     13  O   UNL     1       8.709  -0.288  25.025  0.00  0.00    -0.353 OA
ENDBRANCH   1  13
BRANCH   3  14
ATOM     14  O   UNL     1       7.184   0.635  22.999  0.00  0.00    -0.387 OA
ATOM     15  H   UNL     1       7.261   0.239  23.894  0.00  0.00    +0.210 HD
ENDBRANCH   3  14
BRANCH   4  16
ATOM     16  O   UNL     1      10.154   2.199  21.499  0.00  0.00    -0.387 OA
ATOM     17  H   UNL     1      10.519   2.554  22.331  0.00  0.00    +0.210 HD
ENDBRANCH   4  16
BRANCH   5  18
ATOM     18  C   UNL     1       9.622  -1.427  22.386  0.00  0.00    +0.190 C 
BRANCH  18  19
ATOM     19  O   UNL     1      10.228  -2.286  23.349  0.00  0.00    -0.392 OA
ATOM     20  H   UNL     1       9.515  -2.599  23.938  0.00  0.00    +0.210 HD
ENDBRANCH  18  19
ENDBRANCH   5  18
TORSDOF 6
ENDMDL
MODEL 4
REMARK VINA RESULT:      -5.0      1.986      2.815
REMARK  Name = 
REMARK  8 active torsions:
REMARK  status: ('A' for Active; 'I' for Inactive)
REMARK    1  A    between atoms: C_1  and  O_2
REMARK    2  A    between atoms: O_2  and  C_3
REMARK    3  A    between atoms: C_6  and  C_8
REMARK    4  A    between atoms: C_8  and  O_9
REMARK    5  A    between atoms: C_10  and  O_12
REMARK    6  A    between atoms: C_13  and  O_15
REMARK    7  A    between atoms: C_16  and  N_18
REMARK    8  A    between atoms: C_19  and  C_20
REMARK                            x       y       z     vdW  Elec       q    Type
REMARK                         _______ _______ _______ _____ _____    ______ ____
ROOT
ATOM      1  C   UNL     1       7.158  -3.924  22.117  0.00  0.00    +0.273 C 
ATOM      2  C   UNL     1       8.064  -2.992  22.967  0.00  0.00    +0.160 C 
ATOM      3  C   UNL     1       7.391  -2.770  24.340  0.00  0.00    +0.171 C 
ATOM      4  C   UNL     1       5.977  -2.203  24.148  0.00  0.00    +0.176 C 
ATOM      5  C   UNL     1       5.137  -3.024  23.147  0.00  0.00    +0.178 C 
ATOM      6  O   UNL     1       5.847  -3.371  21.948  0.00  0.00    -0.341 OA
ENDROOT
BRANCH   2   7
ATOM      7  N   UNL     1       8.334  -1.701  22.333  0.00  0.00    -0.305 N 
ATOM      8  H   UNL     1       7.519  -1.214  21.957  0.00  0.00    +0.149 HD
ATOM      9  C   UNL     1       9.581  -1.210  22.091  0.00  0.00    +0.210 C 
ATOM     10  O   UNL     1      10.611  -1.822  22.354  0.00  0.00    -0.276 OA
ATOM     11  C   UNL     1       9.595   0.180  21.502  0.00  0.00    +0.109 C 
ENDBRANCH   2   7
BRANCH   1  13
ATOM     12  C   UNL     1       6.951  -6.289  21.849  0.00  0.00    +0.197 C 
ATOM     13  O   UNL     1       7.092  -5.206  22.762  0.00  0.00    -0.353 OA
ENDBRANCH   1  13
BRANCH   3  14
ATOM     14  O   UNL     1       7.371  -3.959  25.138  0.00  0.00    -0.387 OA
ATOM     15  H   UNL     1       8.006  -4.599  24.751  0.00  0.00    +0.210 HD
ENDBRANCH   3  14
BRANCH   4  16
ATOM     16  O   UNL     1       6.102  -0.852  23.638  0.00  0.00    -0.387 OA
ATOM     17  H   UNL     1       5.730  -0.866  22.736  0.00  0.00    +0.210 HD
ENDBRANCH   4  16
BRANCH   5  18
ATOM     18  C   UNL     1       4.428  -4.228  23.783  0.00  0.00    +0.190 C 
BRANCH  18  19
ATOM     19  O   UNL     1       3.858  -5.053  22.769  0.00  0.00    -0.392 OA
ATOM     20  H   UNL     1       3.326  -5.733  23.224  0.00  0.00    +0.210 HD
ENDBRANCH  18  19
ENDBRANCH   5  18
TORSDOF 6
ENDMDL
MODEL 5
REMARK VINA RESULT:      -5.0      2.144      5.242
REMARK  Name = 
REMARK  8 active torsions:
REMARK  status: ('A' for Active; 'I' for Inactive)
REMARK    1  A    between atoms: C_1  and  O_2
REMARK    2  A    between atoms: O_2  and  C_3
REMARK    3  A    between atoms: C_6  and  C_8
REMARK    4  A    between atoms: C_8  and  O_9
REMARK    5  A    between atoms: C_10  and  O_12
REMARK    6  A    between atoms: C_13  and  O_15
REMARK    7  A    between atoms: C_16  and  N_18
REMARK    8  A    between atoms: C_19  and  C_20
REMARK                            x       y       z     vdW  Elec       q    Type
REMARK                         _______ _______ _______ _____ _____    ______ ____
ROOT
ATOM      1  C   UNL     1       9.569  -0.897  24.517  0.00  0.00    +0.273 C 
ATOM      2  C   UNL     1       9.531  -2.349  23.969  0.00  0.00    +0.160 C 
ATOM      3  C   UNL     1       8.938  -2.321  22.543  0.00  0.00    +0.171 C 
ATOM      4  C   UNL     1       7.552  -1.661  22.563  0.00  0.00    +0.176 C 
ATOM      5  C   UNL     1       7.551  -0.297  23.285  0.00  0.00    +0.178 C 
ATOM      6  O   UNL     1       8.264  -0.305  24.531  0.00  0.00    -0.341 OA
ENDROOT
BRANCH   2   7
ATOM      7  N   UNL     1       8.764  -3.271  24.807  0.00  0.00    -0.305 N 
ATOM      8  H   UNL     1       7.898  -2.897  25.198  0.00  0.00    +0.149 HD
ATOM      9  C   UNL     1       9.205  -4.498  25.204  0.00  0.00    +0.210 C 
ATOM     10  O   UNL     1      10.312  -4.940  24.920  0.00  0.00    -0.276 OA
ATOM     11  C   UNL     1       8.194  -5.292  25.995  0.00  0.00    +0.109 C 
ENDBRANCH   2   7
BRANCH   1  13
ATOM     12  C   UNL     1      11.168   0.877  24.434  0.00  0.00    +0.197 C 
ATOM     13  O   UNL     1      10.471  -0.128  23.705  0.00  0.00    -0.353 OA
ENDBRANCH   1  13
BRANCH   3  14
ATOM     14  O   UNL     1       9.806  -1.680  21.601  0.00  0.00    -0.387 OA
ATOM     15  H   UNL     1       9.720  -2.145  20.741  0.00  0.00    +0.210 HD
ENDBRANCH   3  14
BRANCH   4  16
ATOM     16  O   UNL     1       6.643  -2.548  23.263  0.00  0.00    -0.387 OA
ATOM     17  H   UNL     1       7.128  -2.872  24.045  0.00  0.00    +0.210 HD
ENDBRANCH   4  16
BRANCH   5  18
ATOM     18  C   UNL     1       7.954   0.876  22.380  0.00  0.00    +0.190 C 
BRANCH  18  19
ATOM     19  O   UNL     1       8.192   2.041  23.166  0.00  0.00    -0.392 OA
ATOM     20  H   UNL     1       8.188   1.758  24.100  0.00  0.00    +0.210 HD
ENDBRANCH  18  19
ENDBRANCH   5  18
TORSDOF 6
ENDMDL
MODEL 6
REMARK VINA RESULT:      -4.9      2.514      4.955
REMARK  Name = 
REMARK  8 active torsions:
REMARK  status: ('A' for Active; 'I' for Inactive)
REMARK    1  A    between atoms: C_1  and  O_2
REMARK    2  A    between atoms: O_2  and  C_3
REMARK    3  A    between atoms: C_6  and  C_8
REMARK    4  A    between atoms: C_8  and  O_9
REMARK    5  A    between atoms: C_10  and  O_12
REMARK    6  A    between atoms: C_13  and  O_15
REMARK    7  A    between atoms: C_16  and  N_18
REMARK    8  A    between atoms: C_19  and  C_20
REMARK                            x       y       z     vdW  Elec       q    Type
REMARK                         _______ _______ _______ _____ _____    ______ ____
ROOT
ATOM      1  C   UNL     1       7.755  -0.844  22.548  0.00  0.00    +0.273 C 
ATOM      2  C   UNL     1       7.287  -2.021  23.447  0.00  0.00    +0.160 C 
ATOM      3  C   UNL     1       8.061  -1.957  24.782  0.00  0.00    +0.171 C 
ATOM      4  C   UNL     1       9.572  -1.983  24.517  0.00  0.00    +0.176 C 
ATOM      5  C   UNL     1      10.012  -0.937  23.470  0.00  0.00    +0.178 C 
ATOM      6  O   UNL     1       9.167  -0.894  22.310  0.00  0.00    -0.341 OA
ENDROOT
BRANCH   2   7
ATOM      7  N   UNL     1       7.468  -3.336  22.832  0.00  0.00    -0.305 N 
ATOM      8  H   UNL     1       8.403  -3.738  22.913  0.00  0.00    +0.149 HD
ATOM      9  C   UNL     1       6.537  -3.955  22.053  0.00  0.00    +0.210 C 
ATOM     10  O   UNL     1       5.457  -3.452  21.764  0.00  0.00    -0.276 OA
ATOM     11  C   UNL     1       6.929  -5.341  21.605  0.00  0.00    +0.109 C 
ENDBRANCH   2   7
BRANCH   1  13
ATOM     12  C   UNL     1       7.127   1.443  22.264  0.00  0.00    +0.197 C 
ATOM     13  O   UNL     1       7.387   0.389  23.186  0.00  0.00    -0.353 OA
ENDBRANCH   1  13
BRANCH   3  14
ATOM     14  O   UNL     1       7.692  -0.823  25.576  0.00  0.00    -0.387 OA
ATOM     15  H   UNL     1       7.940  -0.011  25.083  0.00  0.00    +0.210 HD
ENDBRANCH   3  14
BRANCH   4  16
ATOM     16  O   UNL     1       9.917  -3.300  24.017  0.00  0.00    -0.387 OA
ATOM     17  H   UNL     1       9.182  -3.571  23.436  0.00  0.00    +0.210 HD
ENDBRANCH   4  16
BRANCH   5  18
ATOM     18  C   UNL     1      10.271   0.454  24.065  0.00  0.00    +0.190 C 
BRANCH  18  19
ATOM     19  O   UNL     1      10.453   0.358  25.475  0.00  0.00    -0.392 OA
ATOM     20  H   UNL     1      10.777  -0.544  25.658  0.00  0.00    +0.210 HD
ENDBRANCH  18  19
ENDBRANCH   5  18
TORSDOF 6
ENDMDL
MODEL 7
REMARK VINA RESULT:      -4.8      1.862      5.018
REMARK  Name = 
REMARK  8 active torsions:
REMARK  status: ('A' for Active; 'I' for Inactive)
REMARK    1  A    between atoms: C_1  and  O_2
REMARK    2  A    between atoms: O_2  and  C_3
REMARK    3  A    between atoms: C_6  and  C_8
REMARK    4  A    between atoms: C_8  and  O_9
REMARK    5  A    between atoms: C_10  and  O_12
REMARK    6  A    between atoms: C_13  and  O_15
REMARK    7  A    between atoms: C_16  and  N_18
REMARK    8  A    between atoms: C_19  and  C_20
REMARK                            x       y       z     vdW  Elec       q    Type
REMARK                         _______ _______ _______ _____ _____    ______ ____
ROOT
ATOM      1  C   UNL     1       7.426  -2.066  25.149  0.00  0.00    +0.273 C 
ATOM      2  C   UNL     1       7.729  -3.586  25.252  0.00  0.00    +0.160 C 
ATOM      3  C   UNL     1       8.656  -3.982  24.082  0.00  0.00    +0.171 C 
ATOM      4  C   UNL     1       8.008  -3.600  22.744  0.00  0.00    +0.176 C 
ATOM      5  C   UNL     1       7.526  -2.134  22.712  0.00  0.00    +0.178 C 
ATOM      6  O   UNL     1       6.816  -1.736  23.895  0.00  0.00    -0.341 OA
ENDROOT
BRANCH   2   7
ATOM      7  N   UNL     1       6.531  -4.424  25.241  0.00  0.00    -0.305 N 
ATOM      8  H   UNL     1       5.733  -4.051  24.724  0.00  0.00    +0.149 HD
ATOM      9  C   UNL     1       6.378  -5.557  25.984  0.00  0.00    +0.210 C 
ATOM     10  O   UNL     1       7.227  -5.970  26.766  0.00  0.00    -0.276 OA
ATOM     11  C   UNL     1       5.083  -6.290  25.734  0.00  0.00    +0.109 C 
ENDBRANCH   2   7
BRANCH   1  13
ATOM     12  C   UNL     1       8.829  -0.846  26.649  0.00  0.00    +0.197 C 
ATOM     13  O   UNL     1       8.655  -1.344  25.326  0.00  0.00    -0.353 OA
ENDBRANCH   1  13
BRANCH   3  14
ATOM     14  O   UNL     1       9.967  -3.417  24.205  0.00  0.00    -0.387 OA
ATOM     15  H   UNL     1       9.923  -2.479  23.919  0.00  0.00    +0.210 HD
ENDBRANCH   3  14
BRANCH   4  16
ATOM     16  O   UNL     1       6.859  -4.461  22.541  0.00  0.00    -0.387 OA
ATOM     17  H   UNL     1       7.215  -5.341  22.317  0.00  0.00    +0.210 HD
ENDBRANCH   4  16
BRANCH   5  18
ATOM     18  C   UNL     1       8.624  -1.135  22.318  0.00  0.00    +0.190 C 
BRANCH  18  19
ATOM     19  O   UNL     1       9.666  -1.806  21.613  0.00  0.00    -0.392 OA
ATOM     20  H   UNL     1      10.033  -1.166  20.974  0.00  0.00    +0.210 HD
ENDBRANCH  18  19
ENDBRANCH   5  18
TORSDOF 6
ENDMDL
MODEL 8
REMARK VINA RESULT:      -4.7      2.731      3.934
REMARK  Name = 
REMARK  8 active torsions:
REMARK  status: ('A' for Active; 'I' for Inactive)
REMARK    1  A    between atoms: C_1  and  O_2
REMARK    2  A    between atoms: O_2  and  C_3
REMARK    3  A    between atoms: C_6  and  C_8
REMARK    4  A    between atoms: C_8  and  O_9
REMARK    5  A    between atoms: C_10  and  O_12
REMARK    6  A    between atoms: C_13  and  O_15
REMARK    7  A    between atoms: C_16  and  N_18
REMARK    8  A    between atoms: C_19  and  C_20
REMARK                            x       y       z     vdW  Elec       q    Type
REMARK                         _______ _______ _______ _____ _____    ______ ____
ROOT
ATOM      1  C   UNL     1       7.398  -0.773  23.089  0.00  0.00    +0.273 C 
ATOM      2  C   UNL     1       8.510   0.105  22.453  0.00  0.00    +0.160 C 
ATOM      3  C   UNL     1       9.860  -0.631  22.597  0.00  0.00    +0.171 C 
ATOM      4  C   UNL     1      10.132  -0.948  24.074  0.00  0.00    +0.176 C 
ATOM      5  C   UNL     1       8.942  -1.651  24.762  0.00  0.00    +0.178 C 
ATOM      6  O   UNL     1       7.671  -1.050  24.468  0.00  0.00    -0.341 OA
ENDROOT
BRANCH   2   7
ATOM      7  N   UNL     1       8.608   1.441  23.041  0.00  0.00    -0.305 N 
ATOM      8  H   UNL     1       9.116   1.499  23.925  0.00  0.00    +0.149 HD
ATOM      9  C   UNL     1       7.952   2.538  22.571  0.00  0.00    +0.210 C 
ATOM     10  O   UNL     1       7.181   2.506  21.618  0.00  0.00    -0.276 OA
ATOM     11  C   UNL     1       8.284   3.817  23.300  0.00  0.00    +0.109 C 
ENDBRANCH   2   7
BRANCH   1  13
ATOM     12  C   UNL     1       6.017  -2.614  22.446  0.00  0.00    +0.197 C 
ATOM     13  O   UNL     1       7.293  -1.991  22.334  0.00  0.00    -0.353 OA
ENDBRANCH   1  13
BRANCH   3  14
ATOM     14  O   UNL     1       9.929  -1.813  21.790  0.00  0.00    -0.387 OA
ATOM     15  H   UNL     1       9.774  -2.589  22.371  0.00  0.00    +0.210 HD
ENDBRANCH   3  14
BRANCH   4  16
ATOM     16  O   UNL     1      10.381   0.303  24.763  0.00  0.00    -0.387 OA
ATOM     17  H   UNL     1      11.334   0.485  24.661  0.00  0.00    +0.210 HD
ENDBRANCH   4  16
BRANCH   5  18
ATOM     18  C   UNL     1       8.935  -3.174  24.570  0.00  0.00    +0.190 C 
BRANCH  18  19
ATOM     19  O   UNL     1      10.223  -3.622  24.155  0.00  0.00    -0.392 OA
ATOM     20  H   UNL     1      10.869  -2.969  24.485  0.00  0.00    +0.210 HD
ENDBRANCH  18  19
ENDBRANCH   5  18
TORSDOF 6
ENDMDL
MODEL 9
REMARK VINA RESULT:      -4.7      3.531      6.666
REMARK  Name = 
REMARK  8 active torsions:
REMARK  status: ('A' for Active; 'I' for Inactive)
REMARK    1  A    between atoms: C_1  and  O_2
REMARK    2  A    between atoms: O_2  and  C_3
REMARK    3  A    between atoms: C_6  and  C_8
REMARK    4  A    between atoms: C_8  and  O_9
REMARK    5  A    between atoms: C_10  and  O_12
REMARK    6  A    between atoms: C_13  and  O_15
REMARK    7  A    between atoms: C_16  and  N_18
REMARK    8  A    between atoms: C_19  and  C_20
REMARK                            x       y       z     vdW  Elec       q    Type
REMARK                         _______ _______ _______ _____ _____    ______ ____
ROOT
ATOM      1  C   UNL     1       9.428   1.941  24.127  0.00  0.00    +0.273 C 
ATOM      2  C   UNL     1       9.549   0.751  23.137  0.00  0.00    +0.160 C 
ATOM      3  C   UNL     1       8.523   0.953  22.000  0.00  0.00    +0.171 C 
ATOM      4  C   UNL     1       7.110   1.093  22.583  0.00  0.00    +0.176 C 
ATOM      5  C   UNL     1       7.033   2.145  23.710  0.00  0.00    +0.178 C 
ATOM      6  O   UNL     1       8.103   2.048  24.663  0.00  0.00    -0.341 OA
ENDROOT
BRANCH   2   7
ATOM      7  N   UNL     1       9.344  -0.555  23.764  0.00  0.00    -0.305 N 
ATOM      8  H   UNL     1       8.833  -0.547  24.648  0.00  0.00    +0.149 HD
ATOM      9  C   UNL     1       9.911  -1.714  23.327  0.00  0.00    +0.210 C 
ATOM     10  O   UNL     1      10.682  -1.772  22.376  0.00  0.00    -0.276 OA
ATOM     11  C   UNL     1       9.478  -2.941  24.093  0.00  0.00    +0.109 C 
ENDBRANCH   2   7
BRANCH   1  13
ATOM     12  C   UNL     1      11.199   3.406  23.476  0.00  0.00    +0.197 C 
ATOM     13  O   UNL     1       9.800   3.146  23.438  0.00  0.00    -0.353 OA
ENDBRANCH   1  13
BRANCH   3  14
ATOM     14  O   UNL     1       8.851   2.064  21.157  0.00  0.00    -0.387 OA
ATOM     15  H   UNL     1       9.588   1.793  20.568  0.00  0.00    +0.210 HD
ENDBRANCH   3  14
BRANCH   4  16
ATOM     16  O   UNL     1       6.722  -0.191  23.132  0.00  0.00    -0.387 OA
ATOM     17  H   UNL     1       5.902  -0.036  23.635  0.00  0.00    +0.210 HD
ENDBRANCH   4  16
BRANCH   5  18
ATOM     18  C   UNL     1       6.825   3.578  23.199  0.00  0.00    +0.190 C 
BRANCH  18  19
ATOM     19  O   UNL     1       7.195   4.516  24.207  0.00  0.00    -0.392 OA
ATOM     20  H   UNL     1       7.996   4.973  23.887  0.00  0.00    +0.210 HD
ENDBRANCH  18  19
ENDBRANCH   5  18
TORSDOF 6
ENDMDL
