MODEL 1
REMARK VINA RESULT:      -6.1      0.000      0.000
REMARK  Name = 
REMARK  11 active torsions:
REMARK  status: ('A' for Active; 'I' for Inactive)
REMARK    1  A    between atoms: C_16  and  C_23
REMARK    2  A    between atoms: N_19  and  C_20
REMARK    3  A    between atoms: C_20  and  C_21
REMARK    4  A    between atoms: N_25  and  C_26
REMARK    5  A    between atoms: C_26  and  C_27
REMARK    6  A    between atoms: C_27  and  C_28
REMARK    7  A    between atoms: C_28  and  N_29
REMARK    8  A    between atoms: N_29  and  C_30
REMARK    9  A    between atoms: N_29  and  C_31
REMARK   10  A    between atoms: N_34  and  C_35
REMARK   11  A    between atoms: C_35  and  C_36
REMARK                            x       y       z     vdW  Elec       q    Type
REMARK                         _______ _______ _______ _____ _____    ______ ____
ROOT
ATOM      1  C   UNL     1       8.175  -2.894  25.021  0.00  0.00    +0.069 C 
ATOM      2  N   UNL     1       9.151  -1.858  24.672  0.00  0.00    -0.294 NA
ATOM      3  C   UNL     1       8.336  -0.604  24.759  0.00  0.00    +0.097 C 
ATOM      4  C   UNL     1       6.741  -0.733  24.553  0.00  0.00    +0.090 C 
ATOM      5  C   UNL     1       6.582  -1.785  23.385  0.00  0.00    +0.023 C 
ATOM      6  C   UNL     1       7.191  -3.184  23.797  0.00  0.00    +0.038 C 
ATOM      7  C   UNL     1       6.273  -4.341  24.139  0.00  0.00    -0.033 A 
ATOM      8  C   UNL     1       6.461  -4.978  25.379  0.00  0.00    +0.006 A 
ATOM      9  C   UNL     1       5.671  -6.008  25.833  0.00  0.00    +0.047 A 
ATOM     10  C   UNL     1       4.773  -6.645  24.984  0.00  0.00    +0.026 A 
ATOM     11  C   UNL     1       4.706  -6.149  23.667  0.00  0.00    +0.002 A 
ATOM     12  N   UNL     1       6.034  -6.195  27.151  0.00  0.00    -0.360 N 
ATOM     13  H   UNL     1       5.567  -6.820  27.792  0.00  0.00    +0.165 HD
ATOM     14  C   UNL     1       7.173  -5.475  27.442  0.00  0.00    +0.087 A 
ATOM     15  C   UNL     1       7.540  -4.845  26.279  0.00  0.00    -0.021 A 
ATOM     16  C   UNL     1       5.401  -4.992  23.263  0.00  0.00    +0.004 A 
ATOM     17  C   UNL     1       8.730  -4.065  25.842  0.00  0.00    +0.056 C 
ENDROOT
BRANCH   4  18
ATOM     18  C   UNL     1       5.584  -1.141  25.628  0.00  0.00    +0.227 C 
ATOM     19  N   UNL     1       5.378  -0.609  26.919  0.00  0.00    -0.226 N 
ATOM     20  C   UNL     1       6.081   0.496  27.364  0.00  0.00    +0.309 C 
ATOM     21  N   UNL     1       5.880   0.807  28.696  0.00  0.00    -0.299 N 
ATOM     22  H   UNL     1       5.513   0.095  29.314  0.00  0.00    +0.150 HD
ATOM     23  O   UNL     1       6.791   1.192  26.642  0.00  0.00    -0.252 OA
ATOM     24  O   UNL     1       4.692  -1.903  25.204  0.00  0.00    -0.275 OA
BRANCH  21  25
ATOM     25  C   UNL     1       6.697   1.826  29.316  0.00  0.00    +0.102 C 
ATOM     26  C   UNL     1       7.854   1.207  30.067  0.00  0.00    +0.024 C 
ENDBRANCH  21  25
BRANCH  19  27
ATOM     27  C   UNL     1       4.084  -0.944  27.619  0.00  0.00    +0.119 C 
BRANCH  27  28
ATOM     28  C   UNL     1       3.970  -2.187  28.536  0.00  0.00    +0.035 C 
BRANCH  28  29
ATOM     29  C   UNL     1       3.703  -3.630  28.025  0.00  0.00    +0.085 C 
BRANCH  29  30
ATOM     30  N   UNL     1       3.842  -4.839  28.874  0.00  0.00    -0.308 NA
ATOM     31  C   UNL     1       2.482  -5.320  29.230  0.00  0.00    +0.104 C 
ATOM     32  C   UNL     1       4.541  -4.598  30.147  0.00  0.00    +0.104 C 
ENDBRANCH  29  30
ENDBRANCH  28  29
ENDBRANCH  27  28
ENDBRANCH  19  27
ENDBRANCH   4  18
BRANCH   2  33
ATOM     33  C   UNL     1       9.799  -2.193  23.385  0.00  0.00    +0.111 C 
BRANCH  33  34
ATOM     34  C   UNL     1      10.209  -1.115  22.428  0.00  0.00    -0.019 C 
ATOM     35  C   UNL     1       9.487  -0.539  21.471  0.00  0.00    +0.005 C 
ENDBRANCH  33  34
ENDBRANCH   2  33
TORSDOF 8
ENDMDL
MODEL 2
REMARK VINA RESULT:      -6.0      1.598      2.308
REMARK  Name = 
REMARK  11 active torsions:
REMARK  status: ('A' for Active; 'I' for Inactive)
REMARK    1  A    between atoms: C_16  and  C_23
REMARK    2  A    between atoms: N_19  and  C_20
REMARK    3  A    between atoms: C_20  and  C_21
REMARK    4  A    between atoms: N_25  and  C_26
REMARK    5  A    between atoms: C_26  and  C_27
REMARK    6  A    between atoms: C_27  and  C_28
REMARK    7  A    between atoms: C_28  and  N_29
REMARK    8  A    between atoms: N_29  and  C_30
REMARK    9  A    between atoms: N_29  and  C_31
REMARK   10  A    between atoms: N_34  and  C_35
REMARK   11  A    between atoms: C_35  and  C_36
REMARK                            x       y       z     vdW  Elec       q    Type
REMARK                         _______ _______ _______ _____ _____    ______ ____
ROOT
ATOM      1  C   UNL     1       8.841  -1.138  24.011  0.00  0.00    +0.069 C 
ATOM      2  N   UNL     1       9.377   0.226  24.013  0.00  0.00    -0.294 NA
ATOM      3  C   UNL     1       8.207   1.032  24.489  0.00  0.00    +0.097 C 
ATOM      4  C   UNL     1       6.732   0.426  24.246  0.00  0.00    +0.090 C 
ATOM      5  C   UNL     1       6.806  -0.216  22.805  0.00  0.00    +0.023 C 
ATOM      6  C   UNL     1       7.883  -1.371  22.754  0.00  0.00    +0.038 C 
ATOM      7  C   UNL     1       7.442  -2.821  22.709  0.00  0.00    -0.033 A 
ATOM      8  C   UNL     1       7.960  -3.692  23.683  0.00  0.00    +0.006 A 
ATOM      9  C   UNL     1       7.607  -5.017  23.785  0.00  0.00    +0.047 A 
ATOM     10  C   UNL     1       6.886  -5.641  22.773  0.00  0.00    +0.026 A 
ATOM     11  C   UNL     1       6.519  -4.831  21.681  0.00  0.00    +0.002 A 
ATOM     12  N   UNL     1       8.150  -5.451  24.977  0.00  0.00    -0.360 N 
ATOM     13  H   UNL     1       7.986  -6.360  25.384  0.00  0.00    +0.165 HD
ATOM     14  C   UNL     1       9.011  -4.502  25.485  0.00  0.00    +0.087 A 
ATOM     15  C   UNL     1       9.024  -3.468  24.584  0.00  0.00    -0.021 A 
ATOM     16  C   UNL     1       6.745  -3.440  21.668  0.00  0.00    +0.004 A 
ATOM     17  C   UNL     1       9.836  -2.231  24.421  0.00  0.00    +0.056 C 
ENDROOT
BRANCH   4  18
ATOM     18  C   UNL     1       5.896  -0.659  25.132  0.00  0.00    +0.227 C 
ATOM     19  N   UNL     1       5.611  -0.611  26.514  0.00  0.00    -0.226 N 
ATOM     20  C   UNL     1       5.890   0.515  27.268  0.00  0.00    +0.309 C 
ATOM     21  N   UNL     1       5.693   0.358  28.627  0.00  0.00    -0.299 N 
ATOM     22  H   UNL     1       5.665  -0.577  29.013  0.00  0.00    +0.150 HD
ATOM     23  O   UNL     1       6.233   1.593  26.788  0.00  0.00    -0.252 OA
ATOM     24  O   UNL     1       5.318  -1.557  24.488  0.00  0.00    -0.275 OA
BRANCH  21  25
ATOM     25  C   UNL     1       6.123   1.403  29.530  0.00  0.00    +0.102 C 
ATOM     26  C   UNL     1       7.563   1.200  29.944  0.00  0.00    +0.024 C 
ENDBRANCH  21  25
BRANCH  19  27
ATOM     27  C   UNL     1       4.592  -1.582  27.055  0.00  0.00    +0.119 C 
BRANCH  27  28
ATOM     28  C   UNL     1       5.002  -3.011  27.491  0.00  0.00    +0.035 C 
BRANCH  28  29
ATOM     29  C   UNL     1       5.101  -4.225  26.528  0.00  0.00    +0.085 C 
BRANCH  29  30
ATOM     30  N   UNL     1       5.804  -5.487  26.868  0.00  0.00    -0.308 NA
ATOM     31  C   UNL     1       4.940  -6.628  26.466  0.00  0.00    +0.104 C 
ATOM     32  C   UNL     1       6.067  -5.655  28.307  0.00  0.00    +0.104 C 
ENDBRANCH  29  30
ENDBRANCH  28  29
ENDBRANCH  27  28
ENDBRANCH  19  27
ENDBRANCH   4  18
BRANCH   2  33
ATOM     33  C   UNL     1       9.958   0.538  22.688  0.00  0.00    +0.111 C 
BRANCH  33  34
ATOM     34  C   UNL     1      10.194   1.957  22.267  0.00  0.00    -0.019 C 
ATOM     35  C   UNL     1      10.732   2.950  22.970  0.00  0.00    +0.005 C 
ENDBRANCH  33  34
ENDBRANCH   2  33
TORSDOF 8
ENDMDL
MODEL 3
REMARK VINA RESULT:      -5.9      3.460      6.801
REMARK  Name = 
REMARK  11 active torsions:
REMARK  status: ('A' for Active; 'I' for Inactive)
REMARK    1  A    between atoms: C_16  and  C_23
REMARK    2  A    between atoms: N_19  and  C_20
REMARK    3  A    between atoms: C_20  and  C_21
REMARK    4  A    between atoms: N_25  and  C_26
REMARK    5  A    between atoms: C_26  and  C_27
REMARK    6  A    between atoms: C_27  and  C_28
REMARK    7  A    between atoms: C_28  and  N_29
REMARK    8  A    between atoms: N_29  and  C_30
REMARK    9  A    between atoms: N_29  and  C_31
REMARK   10  A    between atoms: N_34  and  C_35
REMARK   11  A    between atoms: C_35  and  C_36
REMARK                            x       y       z     vdW  Elec       q    Type
REMARK                         _______ _______ _______ _____ _____    ______ ____
ROOT
ATOM      1  C   UNL     1       8.334   2.790  23.191  0.00  0.00    +0.069 C 
ATOM      2  N   UNL     1       9.717   2.938  22.728  0.00  0.00    -0.294 NA
ATOM      3  C   UNL     1      10.163   1.515  22.584  0.00  0.00    +0.097 C 
ATOM      4  C   UNL     1       9.411   0.401  23.476  0.00  0.00    +0.090 C 
ATOM      5  C   UNL     1       9.199   1.100  24.877  0.00  0.00    +0.023 C 
ATOM      6  C   UNL     1       8.292   2.387  24.737  0.00  0.00    +0.038 C 
ATOM      7  C   UNL     1       6.856   2.361  25.220  0.00  0.00    -0.033 A 
ATOM      8  C   UNL     1       5.853   2.731  24.308  0.00  0.00    +0.006 A 
ATOM      9  C   UNL     1       4.509   2.707  24.601  0.00  0.00    +0.047 A 
ATOM     10  C   UNL     1       4.070   2.536  25.909  0.00  0.00    +0.026 A 
ATOM     11  C   UNL     1       5.071   2.357  26.882  0.00  0.00    +0.002 A 
ATOM     12  N   UNL     1       3.867   2.921  23.399  0.00  0.00    -0.360 N 
ATOM     13  H   UNL     1       2.868   2.865  23.264  0.00  0.00    +0.165 HD
ATOM     14  C   UNL     1       4.773   3.303  22.432  0.00  0.00    +0.087 A 
ATOM     15  C   UNL     1       5.999   3.351  23.047  0.00  0.00    -0.021 A 
ATOM     16  C   UNL     1       6.432   2.221  26.545  0.00  0.00    +0.004 A 
ATOM     17  C   UNL     1       7.350   3.836  22.653  0.00  0.00    +0.056 C 
ENDROOT
BRANCH   4  18
ATOM     18  C   UNL     1       8.006  -0.380  23.195  0.00  0.00    +0.227 C 
ATOM     19  N   UNL     1       7.579  -1.610  23.738  0.00  0.00    -0.226 N 
ATOM     20  C   UNL     1       8.282  -2.234  24.753  0.00  0.00    +0.309 C 
ATOM     21  N   UNL     1       7.825  -3.497  25.076  0.00  0.00    -0.299 N 
ATOM     22  H   UNL     1       7.254  -3.997  24.407  0.00  0.00    +0.150 HD
ATOM     23  O   UNL     1       9.206  -1.707  25.369  0.00  0.00    -0.252 OA
ATOM     24  O   UNL     1       7.153   0.254  22.542  0.00  0.00    -0.275 OA
BRANCH  21  25
ATOM     25  C   UNL     1       8.590  -4.314  25.991  0.00  0.00    +0.102 C 
ATOM     26  C   UNL     1       9.319  -5.414  25.253  0.00  0.00    +0.024 C 
ENDBRANCH  21  25
BRANCH  19  27
ATOM     27  C   UNL     1       6.132  -1.996  23.548  0.00  0.00    +0.119 C 
BRANCH  27  28
ATOM     28  C   UNL     1       5.684  -2.839  22.328  0.00  0.00    +0.035 C 
BRANCH  28  29
ATOM     29  C   UNL     1       5.330  -4.350  22.391  0.00  0.00    +0.085 C 
BRANCH  29  30
ATOM     30  N   UNL     1       6.123  -5.346  23.155  0.00  0.00    -0.308 NA
ATOM     31  C   UNL     1       7.015  -6.061  22.206  0.00  0.00    +0.104 C 
ATOM     32  C   UNL     1       5.308  -6.379  23.814  0.00  0.00    +0.104 C 
ENDBRANCH  29  30
ENDBRANCH  28  29
ENDBRANCH  27  28
ENDBRANCH  19  27
ENDBRANCH   4  18
BRANCH   2  33
ATOM     33  C   UNL     1      10.463   3.823  23.650  0.00  0.00    +0.111 C 
BRANCH  33  34
ATOM     34  C   UNL     1      11.841   4.303  23.308  0.00  0.00    -0.019 C 
ATOM     35  C   UNL     1      12.428   5.446  23.652  0.00  0.00    +0.005 C 
ENDBRANCH  33  34
ENDBRANCH   2  33
TORSDOF 8
ENDMDL
MODEL 4
REMARK VINA RESULT:      -5.8      2.002      3.286
REMARK  Name = 
REMARK  11 active torsions:
REMARK  status: ('A' for Active; 'I' for Inactive)
REMARK    1  A    between atoms: C_16  and  C_23
REMARK    2  A    between atoms: N_19  and  C_20
REMARK    3  A    between atoms: C_20  and  C_21
REMARK    4  A    between atoms: N_25  and  C_26
REMARK    5  A    between atoms: C_26  and  C_27
REMARK    6  A    between atoms: C_27  and  C_28
REMARK    7  A    between atoms: C_28  and  N_29
REMARK    8  A    between atoms: N_29  and  C_30
REMARK    9  A    between atoms: N_29  and  C_31
REMARK   10  A    between atoms: N_34  and  C_35
REMARK   11  A    between atoms: C_35  and  C_36
REMARK                            x       y       z     vdW  Elec       q    Type
REMARK                         _______ _______ _______ _____ _____    ______ ____
ROOT
ATOM      1  C   UNL     1       8.752  -0.822  24.176  0.00  0.00    +0.069 C 
ATOM      2  N   UNL     1       9.194   0.575  24.218  0.00  0.00    -0.294 NA
ATOM      3  C   UNL     1       8.342   1.150  25.308  0.00  0.00    +0.097 C 
ATOM      4  C   UNL     1       6.933   0.427  25.616  0.00  0.00    +0.090 C 
ATOM      5  C   UNL     1       6.368   0.049  24.190  0.00  0.00    +0.023 C 
ATOM      6  C   UNL     1       7.338  -0.950  23.443  0.00  0.00    +0.038 C 
ATOM      7  C   UNL     1       6.964  -2.412  23.304  0.00  0.00    -0.033 A 
ATOM      8  C   UNL     1       7.889  -3.369  23.758  0.00  0.00    +0.006 A 
ATOM      9  C   UNL     1       7.656  -4.724  23.733  0.00  0.00    +0.047 A 
ATOM     10  C   UNL     1       6.574  -5.248  23.035  0.00  0.00    +0.026 A 
ATOM     11  C   UNL     1       5.733  -4.314  22.400  0.00  0.00    +0.002 A 
ATOM     12  N   UNL     1       8.689  -5.287  24.455  0.00  0.00    -0.360 N 
ATOM     13  H   UNL     1       8.751  -6.264  24.700  0.00  0.00    +0.165 HD
ATOM     14  C   UNL     1       9.660  -4.344  24.717  0.00  0.00    +0.087 A 
ATOM     15  C   UNL     1       9.238  -3.179  24.129  0.00  0.00    -0.021 A 
ATOM     16  C   UNL     1       5.891  -2.924  22.570  0.00  0.00    +0.004 A 
ATOM     17  C   UNL     1       9.855  -1.847  23.881  0.00  0.00    +0.056 C 
ENDROOT
BRANCH   4  18
ATOM     18  C   UNL     1       6.615  -0.880  26.539  0.00  0.00    +0.227 C 
ATOM     19  N   UNL     1       5.382  -1.250  27.117  0.00  0.00    -0.226 N 
ATOM     20  C   UNL     1       4.209  -0.586  26.802  0.00  0.00    +0.309 C 
ATOM     21  N   UNL     1       3.115  -0.965  27.556  0.00  0.00    -0.299 N 
ATOM     22  H   UNL     1       3.269  -1.434  28.440  0.00  0.00    +0.150 HD
ATOM     23  O   UNL     1       4.112   0.237  25.895  0.00  0.00    -0.252 OA
ATOM     24  O   UNL     1       7.530  -1.724  26.619  0.00  0.00    -0.275 OA
BRANCH  21  25
ATOM     25  C   UNL     1       1.884  -0.215  27.442  0.00  0.00    +0.102 C 
ATOM     26  C   UNL     1       0.752  -1.104  26.980  0.00  0.00    +0.024 C 
ENDBRANCH  21  25
BRANCH  19  27
ATOM     27  C   UNL     1       5.267  -2.639  27.696  0.00  0.00    +0.119 C 
BRANCH  27  28
ATOM     28  C   UNL     1       5.254  -3.888  26.781  0.00  0.00    +0.035 C 
BRANCH  28  29
ATOM     29  C   UNL     1       6.176  -5.123  26.975  0.00  0.00    +0.085 C 
BRANCH  29  30
ATOM     30  N   UNL     1       5.675  -6.520  27.026  0.00  0.00    -0.308 NA
ATOM     31  C   UNL     1       4.724  -6.717  25.901  0.00  0.00    +0.104 C 
ATOM     32  C   UNL     1       4.934  -6.844  28.255  0.00  0.00    +0.104 C 
ENDBRANCH  29  30
ENDBRANCH  28  29
ENDBRANCH  27  28
ENDBRANCH  19  27
ENDBRANCH   4  18
BRANCH   2  33
ATOM     33  C   UNL     1       9.108   1.169  22.866  0.00  0.00    +0.111 C 
BRANCH  33  34
ATOM     34  C   UNL     1       8.640   2.579  22.675  0.00  0.00    -0.019 C 
ATOM     35  C   UNL     1       7.502   3.008  22.136  0.00  0.00    +0.005 C 
ENDBRANCH  33  34
ENDBRANCH   2  33
TORSDOF 8
ENDMDL
MODEL 5
REMARK VINA RESULT:      -5.7      1.833      2.443
REMARK  Name = 
REMARK  11 active torsions:
REMARK  status: ('A' for Active; 'I' for Inactive)
REMARK    1  A    between atoms: C_16  and  C_23
REMARK    2  A    between atoms: N_19  and  C_20
REMARK    3  A    between atoms: C_20  and  C_21
REMARK    4  A    between atoms: N_25  and  C_26
REMARK    5  A    between atoms: C_26  and  C_27
REMARK    6  A    between atoms: C_27  and  C_28
REMARK    7  A    between atoms: C_28  and  N_29
REMARK    8  A    between atoms: N_29  and  C_30
REMARK    9  A    between atoms: N_29  and  C_31
REMARK   10  A    between atoms: N_34  and  C_35
REMARK   11  A    between atoms: C_35  and  C_36
REMARK                            x       y       z     vdW  Elec       q    Type
REMARK                         _______ _______ _______ _____ _____    ______ ____
ROOT
ATOM      1  C   UNL     1       9.066  -1.626  24.135  0.00  0.00    +0.069 C 
ATOM      2  N   UNL     1       9.895  -0.439  23.910  0.00  0.00    -0.294 NA
ATOM      3  C   UNL     1       9.264   0.573  24.816  0.00  0.00    +0.097 C 
ATOM      4  C   UNL     1       7.710   0.368  25.199  0.00  0.00    +0.090 C 
ATOM      5  C   UNL     1       7.039  -0.124  23.856  0.00  0.00    +0.023 C 
ATOM      6  C   UNL     1       7.665  -1.493  23.378  0.00  0.00    +0.038 C 
ATOM      7  C   UNL     1       6.879  -2.782  23.525  0.00  0.00    -0.033 A 
ATOM      8  C   UNL     1       7.492  -3.846  24.209  0.00  0.00    +0.006 A 
ATOM      9  C   UNL     1       6.876  -5.051  24.453  0.00  0.00    +0.047 A 
ATOM     10  C   UNL     1       5.678  -5.376  23.827  0.00  0.00    +0.026 A 
ATOM     11  C   UNL     1       5.136  -4.395  22.974  0.00  0.00    +0.002 A 
ATOM     12  N   UNL     1       7.711  -5.721  25.323  0.00  0.00    -0.360 N 
ATOM     13  H   UNL     1       7.490  -6.600  25.767  0.00  0.00    +0.165 HD
ATOM     14  C   UNL     1       8.918  -5.064  25.431  0.00  0.00    +0.087 A 
ATOM     15  C   UNL     1       8.844  -3.978  24.597  0.00  0.00    -0.021 A 
ATOM     16  C   UNL     1       5.693  -3.106  22.861  0.00  0.00    +0.004 A 
ATOM     17  C   UNL     1       9.818  -2.963  24.110  0.00  0.00    +0.056 C 
ENDROOT
BRANCH   4  18
ATOM     18  C   UNL     1       7.039  -0.568  26.355  0.00  0.00    +0.227 C 
ATOM     19  N   UNL     1       5.745  -0.464  26.907  0.00  0.00    -0.226 N 
ATOM     20  C   UNL     1       4.800   0.394  26.373  0.00  0.00    +0.309 C 
ATOM     21  N   UNL     1       3.635   0.494  27.109  0.00  0.00    -0.299 N 
ATOM     22  H   UNL     1       3.644   0.213  28.081  0.00  0.00    +0.150 HD
ATOM     23  O   UNL     1       4.939   0.987  25.306  0.00  0.00    -0.252 OA
ATOM     24  O   UNL     1       7.691  -1.580  26.681  0.00  0.00    -0.275 OA
BRANCH  21  25
ATOM     25  C   UNL     1       2.653   1.493  26.748  0.00  0.00    +0.102 C 
ATOM     26  C   UNL     1       2.803   2.731  27.603  0.00  0.00    +0.024 C 
ENDBRANCH  21  25
BRANCH  19  27
ATOM     27  C   UNL     1       5.252  -1.606  27.761  0.00  0.00    +0.119 C 
BRANCH  27  28
ATOM     28  C   UNL     1       4.827  -2.953  27.125  0.00  0.00    +0.035 C 
BRANCH  28  29
ATOM     29  C   UNL     1       4.692  -4.286  27.911  0.00  0.00    +0.085 C 
BRANCH  29  30
ATOM     30  N   UNL     1       5.508  -5.493  27.626  0.00  0.00    -0.308 NA
ATOM     31  C   UNL     1       4.598  -6.578  27.177  0.00  0.00    +0.104 C 
ATOM     32  C   UNL     1       6.229  -6.017  28.797  0.00  0.00    +0.104 C 
ENDBRANCH  29  30
ENDBRANCH  28  29
ENDBRANCH  27  28
ENDBRANCH  19  27
ENDBRANCH   4  18
BRANCH   2  33
ATOM     33  C   UNL     1       9.966  -0.144  22.461  0.00  0.00    +0.111 C 
BRANCH  33  34
ATOM     34  C   UNL     1       9.818   1.258  21.955  0.00  0.00    -0.019 C 
ATOM     35  C   UNL     1       8.727   1.858  21.485  0.00  0.00    +0.005 C 
ENDBRANCH  33  34
ENDBRANCH   2  33
TORSDOF 8
ENDMDL
MODEL 6
REMARK VINA RESULT:      -5.7      2.554      5.115
REMARK  Name = 
REMARK  11 active torsions:
REMARK  status: ('A' for Active; 'I' for Inactive)
REMARK    1  A    between atoms: C_16  and  C_23
REMARK    2  A    between atoms: N_19  and  C_20
REMARK    3  A    between atoms: C_20  and  C_21
REMARK    4  A    between atoms: N_25  and  C_26
REMARK    5  A    between atoms: C_26  and  C_27
REMARK    6  A    between atoms: C_27  and  C_28
REMARK    7  A    between atoms: C_28  and  N_29
REMARK    8  A    between atoms: N_29  and  C_30
REMARK    9  A    between atoms: N_29  and  C_31
REMARK   10  A    between atoms: N_34  and  C_35
REMARK   11  A    between atoms: C_35  and  C_36
REMARK                            x       y       z     vdW  Elec       q    Type
REMARK                         _______ _______ _______ _____ _____    ______ ____
ROOT
ATOM      1  C   UNL     1       6.463  -4.618  24.707  0.00  0.00    +0.069 C 
ATOM      2  N   UNL     1       7.443  -4.970  23.675  0.00  0.00    -0.294 NA
ATOM      3  C   UNL     1       7.760  -3.639  23.064  0.00  0.00    +0.097 C 
ATOM      4  C   UNL     1       6.645  -2.479  23.178  0.00  0.00    +0.090 C 
ATOM      5  C   UNL     1       5.274  -3.229  22.946  0.00  0.00    +0.023 C 
ATOM      6  C   UNL     1       5.033  -4.326  24.058  0.00  0.00    +0.038 C 
ATOM      7  C   UNL     1       4.012  -4.086  25.153  0.00  0.00    -0.033 A 
ATOM      8  C   UNL     1       4.443  -4.211  26.485  0.00  0.00    +0.006 A 
ATOM      9  C   UNL     1       3.635  -3.975  27.573  0.00  0.00    +0.047 A 
ATOM     10  C   UNL     1       2.261  -3.825  27.418  0.00  0.00    +0.026 A 
ATOM     11  C   UNL     1       1.773  -3.892  26.099  0.00  0.00    +0.002 A 
ATOM     12  N   UNL     1       4.476  -3.987  28.665  0.00  0.00    -0.360 N 
ATOM     13  H   UNL     1       4.198  -3.750  29.607  0.00  0.00    +0.165 HD
ATOM     14  C   UNL     1       5.724  -4.450  28.305  0.00  0.00    +0.087 A 
ATOM     15  C   UNL     1       5.654  -4.754  26.969  0.00  0.00    -0.021 A 
ATOM     16  C   UNL     1       2.630  -3.970  24.983  0.00  0.00    +0.004 A 
ATOM     17  C   UNL     1       6.556  -5.436  26.001  0.00  0.00    +0.056 C 
ENDROOT
BRANCH   4  18
ATOM     18  C   UNL     1       6.340  -1.448  24.406  0.00  0.00    +0.227 C 
ATOM     19  N   UNL     1       7.226  -0.521  24.995  0.00  0.00    -0.226 N 
ATOM     20  C   UNL     1       8.470  -0.264  24.447  0.00  0.00    +0.309 C 
ATOM     21  N   UNL     1       9.278   0.552  25.216  0.00  0.00    -0.299 N 
ATOM     22  H   UNL     1       9.072   0.657  26.201  0.00  0.00    +0.150 HD
ATOM     23  O   UNL     1       8.830  -0.671  23.345  0.00  0.00    -0.252 OA
ATOM     24  O   UNL     1       5.148  -1.367  24.764  0.00  0.00    -0.275 OA
BRANCH  21  25
ATOM     25  C   UNL     1      10.660   0.742  24.834  0.00  0.00    +0.102 C 
ATOM     26  C   UNL     1      10.813   1.960  23.952  0.00  0.00    +0.024 C 
ENDBRANCH  21  25
BRANCH  19  27
ATOM     27  C   UNL     1       6.643   0.513  25.926  0.00  0.00    +0.119 C 
BRANCH  27  28
ATOM     28  C   UNL     1       5.792   1.688  25.383  0.00  0.00    +0.035 C 
BRANCH  28  29
ATOM     29  C   UNL     1       6.367   2.882  24.573  0.00  0.00    +0.085 C 
BRANCH  29  30
ATOM     30  N   UNL     1       7.366   2.729  23.486  0.00  0.00    -0.308 NA
ATOM     31  C   UNL     1       7.877   4.078  23.128  0.00  0.00    +0.104 C 
ATOM     32  C   UNL     1       6.819   2.153  22.248  0.00  0.00    +0.104 C 
ENDBRANCH  29  30
ENDBRANCH  28  29
ENDBRANCH  27  28
ENDBRANCH  19  27
ENDBRANCH   4  18
BRANCH   2  33
ATOM     33  C   UNL     1       6.895  -6.035  22.806  0.00  0.00    +0.111 C 
BRANCH  33  34
ATOM     34  C   UNL     1       7.016  -5.948  21.315  0.00  0.00    -0.019 C 
ATOM     35  C   UNL     1       6.049  -5.792  20.413  0.00  0.00    +0.005 C 
ENDBRANCH  33  34
ENDBRANCH   2  33
TORSDOF 8
ENDMDL
MODEL 7
REMARK VINA RESULT:      -5.6      2.439      6.206
REMARK  Name = 
REMARK  11 active torsions:
REMARK  status: ('A' for Active; 'I' for Inactive)
REMARK    1  A    between atoms: C_16  and  C_23
REMARK    2  A    between atoms: N_19  and  C_20
REMARK    3  A    between atoms: C_20  and  C_21
REMARK    4  A    between atoms: N_25  and  C_26
REMARK    5  A    between atoms: C_26  and  C_27
REMARK    6  A    between atoms: C_27  and  C_28
REMARK    7  A    between atoms: C_28  and  N_29
REMARK    8  A    between atoms: N_29  and  C_30
REMARK    9  A    between atoms: N_29  and  C_31
REMARK   10  A    between atoms: N_34  and  C_35
REMARK   11  A    between atoms: C_35  and  C_36
REMARK                            x       y       z     vdW  Elec       q    Type
REMARK                         _______ _______ _______ _____ _____    ______ ____
ROOT
ATOM      1  C   UNL     1       7.219  -2.272  23.907  0.00  0.00    +0.069 C 
ATOM      2  N   UNL     1       6.728  -3.652  23.934  0.00  0.00    -0.294 NA
ATOM      3  C   UNL     1       6.355  -3.835  25.373  0.00  0.00    +0.097 C 
ATOM      4  C   UNL     1       7.101  -2.907  26.463  0.00  0.00    +0.090 C 
ATOM      5  C   UNL     1       8.597  -2.842  25.961  0.00  0.00    +0.023 C 
ATOM      6  C   UNL     1       8.687  -2.178  24.530  0.00  0.00    +0.038 C 
ATOM      7  C   UNL     1       9.219  -0.766  24.379  0.00  0.00    -0.033 A 
ATOM      8  C   UNL     1       8.412   0.166  23.702  0.00  0.00    +0.006 A 
ATOM      9  C   UNL     1       8.752   1.488  23.536  0.00  0.00    +0.047 A 
ATOM     10  C   UNL     1      10.036   1.934  23.827  0.00  0.00    +0.026 A 
ATOM     11  C   UNL     1      10.931   0.968  24.326  0.00  0.00    +0.002 A 
ATOM     12  N   UNL     1       7.622   2.097  23.031  0.00  0.00    -0.360 N 
ATOM     13  H   UNL     1       7.520   3.092  22.890  0.00  0.00    +0.165 HD
ATOM     14  C   UNL     1       6.687   1.150  22.670  0.00  0.00    +0.087 A 
ATOM     15  C   UNL     1       7.253  -0.072  22.931  0.00  0.00    -0.021 A 
ATOM     16  C   UNL     1      10.523  -0.342  24.644  0.00  0.00    +0.004 A 
ATOM     17  C   UNL     1       6.882  -1.483  22.636  0.00  0.00    +0.056 C 
ENDROOT
BRANCH   4  18
ATOM     18  C   UNL     1       6.763  -1.382  26.933  0.00  0.00    +0.227 C 
ATOM     19  N   UNL     1       5.495  -0.819  27.191  0.00  0.00    -0.226 N 
ATOM     20  C   UNL     1       4.353  -1.599  27.231  0.00  0.00    +0.309 C 
ATOM     21  N   UNL     1       3.175  -0.887  27.346  0.00  0.00    -0.299 N 
ATOM     22  H   UNL     1       3.170   0.094  27.097  0.00  0.00    +0.150 HD
ATOM     23  O   UNL     1       4.364  -2.828  27.221  0.00  0.00    -0.252 OA
ATOM     24  O   UNL     1       7.746  -0.679  27.243  0.00  0.00    -0.275 OA
BRANCH  21  25
ATOM     25  C   UNL     1       1.913  -1.581  27.215  0.00  0.00    +0.102 C 
ATOM     26  C   UNL     1       0.773  -0.601  27.050  0.00  0.00    +0.024 C 
ENDBRANCH  21  25
BRANCH  19  27
ATOM     27  C   UNL     1       5.450   0.524  27.878  0.00  0.00    +0.119 C 
BRANCH  27  28
ATOM     28  C   UNL     1       5.453   1.840  27.060  0.00  0.00    +0.035 C 
BRANCH  28  29
ATOM     29  C   UNL     1       6.739   2.571  26.584  0.00  0.00    +0.085 C 
BRANCH  29  30
ATOM     30  N   UNL     1       6.742   3.630  25.544  0.00  0.00    -0.308 NA
ATOM     31  C   UNL     1       7.892   4.534  25.801  0.00  0.00    +0.104 C 
ATOM     32  C   UNL     1       5.540   4.478  25.551  0.00  0.00    +0.104 C 
ENDBRANCH  29  30
ENDBRANCH  28  29
ENDBRANCH  27  28
ENDBRANCH  19  27
ENDBRANCH   4  18
BRANCH   2  33
ATOM     33  C   UNL     1       7.740  -4.556  23.345  0.00  0.00    +0.111 C 
BRANCH  33  34
ATOM     34  C   UNL     1       7.347  -5.611  22.356  0.00  0.00    -0.019 C 
ATOM     35  C   UNL     1       6.393  -5.563  21.430  0.00  0.00    +0.005 C 
ENDBRANCH  33  34
ENDBRANCH   2  33
TORSDOF 8
ENDMDL
MODEL 8
REMARK VINA RESULT:      -5.6      3.063      6.615
REMARK  Name = 
REMARK  11 active torsions:
REMARK  status: ('A' for Active; 'I' for Inactive)
REMARK    1  A    between atoms: C_16  and  C_23
REMARK    2  A    between atoms: N_19  and  C_20
REMARK    3  A    between atoms: C_20  and  C_21
REMARK    4  A    between atoms: N_25  and  C_26
REMARK    5  A    between atoms: C_26  and  C_27
REMARK    6  A    between atoms: C_27  and  C_28
REMARK    7  A    between atoms: C_28  and  N_29
REMARK    8  A    between atoms: N_29  and  C_30
REMARK    9  A    between atoms: N_29  and  C_31
REMARK   10  A    between atoms: N_34  and  C_35
REMARK   11  A    between atoms: C_35  and  C_36
REMARK                            x       y       z     vdW  Elec       q    Type
REMARK                         _______ _______ _______ _____ _____    ______ ____
ROOT
ATOM      1  C   UNL     1       7.489  -1.733  23.200  0.00  0.00    +0.069 C 
ATOM      2  N   UNL     1       6.673  -2.946  23.306  0.00  0.00    -0.294 NA
ATOM      3  C   UNL     1       5.606  -2.534  24.274  0.00  0.00    +0.097 C 
ATOM      4  C   UNL     1       5.951  -1.341  25.304  0.00  0.00    +0.090 C 
ATOM      5  C   UNL     1       7.446  -1.618  25.735  0.00  0.00    +0.023 C 
ATOM      6  C   UNL     1       8.415  -1.556  24.489  0.00  0.00    +0.038 C 
ATOM      7  C   UNL     1       9.335  -0.366  24.300  0.00  0.00    -0.033 A 
ATOM      8  C   UNL     1       9.275   0.317  23.071  0.00  0.00    +0.006 A 
ATOM      9  C   UNL     1      10.018   1.437  22.786  0.00  0.00    +0.047 A 
ATOM     10  C   UNL     1      11.059   1.832  23.619  0.00  0.00    +0.026 A 
ATOM     11  C   UNL     1      11.269   1.044  24.767  0.00  0.00    +0.002 A 
ATOM     12  N   UNL     1       9.515   1.918  21.595  0.00  0.00    -0.360 N 
ATOM     13  H   UNL     1       9.789   2.791  21.167  0.00  0.00    +0.165 HD
ATOM     14  C   UNL     1       8.651   1.002  21.034  0.00  0.00    +0.087 A 
ATOM     15  C   UNL     1       8.634  -0.080  21.877  0.00  0.00    -0.021 A 
ATOM     16  C   UNL     1      10.398  -0.002  25.130  0.00  0.00    +0.004 A 
ATOM     17  C   UNL     1       8.066  -1.454  21.806  0.00  0.00    +0.056 C 
ENDROOT
BRANCH   4  18
ATOM     18  C   UNL     1       5.883   0.274  25.084  0.00  0.00    +0.227 C 
ATOM     19  N   UNL     1       5.930   1.282  26.070  0.00  0.00    -0.226 N 
ATOM     20  C   UNL     1       6.221   0.988  27.391  0.00  0.00    +0.309 C 
ATOM     21  N   UNL     1       6.084   2.053  28.260  0.00  0.00    -0.299 N 
ATOM     22  H   UNL     1       5.521   2.845  27.978  0.00  0.00    +0.150 HD
ATOM     23  O   UNL     1       6.622  -0.109  27.774  0.00  0.00    -0.252 OA
ATOM     24  O   UNL     1       5.947   0.664  23.902  0.00  0.00    -0.275 OA
BRANCH  21  25
ATOM     25  C   UNL     1       6.184   1.821  29.684  0.00  0.00    +0.102 C 
ATOM     26  C   UNL     1       7.514   2.303  30.217  0.00  0.00    +0.024 C 
ENDBRANCH  21  25
BRANCH  19  27
ATOM     27  C   UNL     1       6.129   2.705  25.610  0.00  0.00    +0.119 C 
BRANCH  27  28
ATOM     28  C   UNL     1       7.512   3.201  25.120  0.00  0.00    +0.035 C 
BRANCH  28  29
ATOM     29  C   UNL     1       7.724   4.444  24.212  0.00  0.00    +0.085 C 
BRANCH  29  30
ATOM     30  N   UNL     1       7.671   4.394  22.730  0.00  0.00    -0.308 NA
ATOM     31  C   UNL     1       7.606   5.788  22.217  0.00  0.00    +0.104 C 
ATOM     32  C   UNL     1       6.486   3.703  22.197  0.00  0.00    +0.104 C 
ENDBRANCH  29  30
ENDBRANCH  28  29
ENDBRANCH  27  28
ENDBRANCH  19  27
ENDBRANCH   4  18
BRANCH   2  33
ATOM     33  C   UNL     1       7.532  -4.100  23.651  0.00  0.00    +0.111 C 
BRANCH  33  34
ATOM     34  C   UNL     1       7.520  -5.344  22.815  0.00  0.00    -0.019 C 
ATOM     35  C   UNL     1       6.946  -5.541  21.631  0.00  0.00    +0.005 C 
ENDBRANCH  33  34
ENDBRANCH   2  33
TORSDOF 8
ENDMDL
MODEL 9
REMARK VINA RESULT:      -5.4      2.865      6.369
REMARK  Name = 
REMARK  11 active torsions:
REMARK  status: ('A' for Active; 'I' for Inactive)
REMARK    1  A    between atoms: C_16  and  C_23
REMARK    2  A    between atoms: N_19  and  C_20
REMARK    3  A    between atoms: C_20  and  C_21
REMARK    4  A    between atoms: N_25  and  C_26
REMARK    5  A    between atoms: C_26  and  C_27
REMARK    6  A    between atoms: C_27  and  C_28
REMARK    7  A    between atoms: C_28  and  N_29
REMARK    8  A    between atoms: N_29  and  C_30
REMARK    9  A    between atoms: N_29  and  C_31
REMARK   10  A    between atoms: N_34  and  C_35
REMARK   11  A    between atoms: C_35  and  C_36
REMARK                            x       y       z     vdW  Elec       q    Type
REMARK                         _______ _______ _______ _____ _____    ______ ____
ROOT
ATOM      1  C   UNL     1       5.018  -1.855  26.047  0.00  0.00    +0.069 C 
ATOM      2  N   UNL     1       4.336  -0.996  27.020  0.00  0.00    -0.294 NA
ATOM      3  C   UNL     1       4.969   0.339  26.771  0.00  0.00    +0.097 C 
ATOM      4  C   UNL     1       6.448   0.358  26.127  0.00  0.00    +0.090 C 
ATOM      5  C   UNL     1       7.201  -0.832  26.844  0.00  0.00    +0.023 C 
ATOM      6  C   UNL     1       6.494  -2.213  26.542  0.00  0.00    +0.038 C 
ATOM      7  C   UNL     1       7.131  -3.199  25.581  0.00  0.00    -0.033 A 
ATOM      8  C   UNL     1       6.350  -3.661  24.507  0.00  0.00    +0.006 A 
ATOM      9  C   UNL     1       6.817  -4.519  23.540  0.00  0.00    +0.047 A 
ATOM     10  C   UNL     1       8.035  -5.172  23.696  0.00  0.00    +0.026 A 
ATOM     11  C   UNL     1       8.754  -4.873  24.869  0.00  0.00    +0.002 A 
ATOM     12  N   UNL     1       5.837  -4.548  22.570  0.00  0.00    -0.360 N 
ATOM     13  H   UNL     1       5.924  -5.015  21.679  0.00  0.00    +0.165 HD
ATOM     14  C   UNL     1       4.695  -3.921  23.023  0.00  0.00    +0.087 A 
ATOM     15  C   UNL     1       4.960  -3.516  24.307  0.00  0.00    -0.021 A 
ATOM     16  C   UNL     1       8.340  -3.872  25.770  0.00  0.00    +0.004 A 
ATOM     17  C   UNL     1       4.144  -2.945  25.413  0.00  0.00    +0.056 C 
ENDROOT
BRANCH   4  18
ATOM     18  C   UNL     1       6.903   0.243  24.564  0.00  0.00    +0.227 C 
ATOM     19  N   UNL     1       6.448   1.015  23.474  0.00  0.00    -0.226 N 
ATOM     20  C   UNL     1       5.641   2.123  23.661  0.00  0.00    +0.309 C 
ATOM     21  N   UNL     1       5.158   2.685  22.495  0.00  0.00    -0.299 N 
ATOM     22  H   UNL     1       5.150   2.128  21.650  0.00  0.00    +0.150 HD
ATOM     23  O   UNL     1       5.404   2.619  24.760  0.00  0.00    -0.252 OA
ATOM     24  O   UNL     1       7.869  -0.510  24.334  0.00  0.00    -0.275 OA
BRANCH  21  25
ATOM     25  C   UNL     1       4.163   3.732  22.573  0.00  0.00    +0.102 C 
ATOM     26  C   UNL     1       2.952   3.389  21.735  0.00  0.00    +0.024 C 
ENDBRANCH  21  25
BRANCH  19  27
ATOM     27  C   UNL     1       7.211   0.915  22.176  0.00  0.00    +0.119 C 
BRANCH  27  28
ATOM     28  C   UNL     1       8.348   1.911  21.839  0.00  0.00    +0.035 C 
BRANCH  28  29
ATOM     29  C   UNL     1       9.835   1.709  22.241  0.00  0.00    +0.085 C 
BRANCH  29  30
ATOM     30  N   UNL     1      10.420   2.224  23.504  0.00  0.00    -0.308 NA
ATOM     31  C   UNL     1      10.901   1.067  24.303  0.00  0.00    +0.104 C 
ATOM     32  C   UNL     1       9.461   2.944  24.357  0.00  0.00    +0.104 C 
ENDBRANCH  29  30
ENDBRANCH  28  29
ENDBRANCH  27  28
ENDBRANCH  19  27
ENDBRANCH   4  18
BRANCH   2  33
ATOM     33  C   UNL     1       4.442  -1.587  28.372  0.00  0.00    +0.111 C 
BRANCH  33  34
ATOM     34  C   UNL     1       3.731  -0.970  29.538  0.00  0.00    -0.019 C 
ATOM     35  C   UNL     1       4.083   0.095  30.254  0.00  0.00    +0.005 C 
ENDBRANCH  33  34
ENDBRANCH   2  33
TORSDOF 8
ENDMDL
