MODEL 1
REMARK VINA RESULT:      -6.5      0.000      0.000
REMARK  Name = 
REMARK  6 active torsions:
REMARK  status: ('A' for Active; 'I' for Inactive)
REMARK    1  A    between atoms: N_1  and  C_2
REMARK    2  A    between atoms: C_2  and  C_3
REMARK    3  A    between atoms: C_5  and  C_7
REMARK    4  A    between atoms: C_7  and  C_8
REMARK    5  A    between atoms: N_17  and  C_18
REMARK    6  A    between atoms: C_18  and  C_19
REMARK                            x       y       z     vdW  Elec       q    Type
REMARK                         _______ _______ _______ _____ _____    ______ ____
ROOT
ATOM      1  C   UNL     1       8.814  -3.963  24.464  0.00  0.00    +0.305 C 
ATOM      2  N   UNL     1       7.688  -3.418  23.977  0.00  0.00    -0.150 N 
ATOM      3  C   UNL     1       8.040  -2.419  23.125  0.00  0.00    +0.353 C 
ATOM      4  O   UNL     1       7.315  -1.799  22.367  0.00  0.00    -0.243 OA
ATOM      5  C   UNL     1       9.518  -2.196  23.346  0.00  0.00    +0.336 C 
ATOM      6  N   UNL     1       9.935  -3.381  24.145  0.00  0.00    -0.071 NA
ENDROOT
BRANCH   1   7
ATOM      7  C   UNL     1       8.798  -5.249  25.265  0.00  0.00    +0.207 C 
BRANCH   7   8
ATOM      8  N   UNL     1      10.193  -5.664  25.456  0.00  0.00    -0.320 NA
ATOM      9  H   UNL     1      10.747  -4.818  25.616  0.00  0.00    +0.119 HD
ATOM     10  H   UNL     1      10.260  -6.195  26.323  0.00  0.00    +0.119 HD
ENDBRANCH   7   8
ENDBRANCH   1   7
BRANCH   2  11
ATOM     11  C   UNL     1       6.317  -3.807  24.224  0.00  0.00    +0.305 C 
BRANCH  11  12
ATOM     12  C   UNL     1       5.816  -4.670  23.078  0.00  0.00    +0.267 C 
ATOM     13  O   UNL     1       4.933  -4.346  22.287  0.00  0.00    -0.297 OA
ENDBRANCH  11  12
ENDBRANCH   2  11
BRANCH   5  14
ATOM     14  C   UNL     1       9.677  -0.924  24.174  0.00  0.00    +0.077 C 
BRANCH  14  15
ATOM     15  C   UNL     1      10.450   0.214  23.500  0.00  0.00    +0.039 C 
ATOM     16  C   UNL     1      10.338   1.432  24.386  0.00  0.00    -0.015 C 
ATOM     17  C   UNL     1       9.613   2.516  24.077  0.00  0.00    +0.047 C 
ATOM     18  C   UNL     1       8.900   2.599  22.783  0.00  0.00    +0.178 C 
ATOM     19  O   UNL     1       8.120   3.508  22.542  0.00  0.00    -0.288 OA
ATOM     20  C   UNL     1       9.199   1.552  21.778  0.00  0.00    +0.047 C 
ATOM     21  C   UNL     1       9.924   0.477  22.111  0.00  0.00    -0.015 C 
ENDBRANCH  14  15
ENDBRANCH   5  14
TORSDOF 6
ENDMDL
MODEL 2
REMARK VINA RESULT:      -6.1      1.779      2.129
REMARK  Name = 
REMARK  6 active torsions:
REMARK  status: ('A' for Active; 'I' for Inactive)
REMARK    1  A    between atoms: N_1  and  C_2
REMARK    2  A    between atoms: C_2  and  C_3
REMARK    3  A    between atoms: C_5  and  C_7
REMARK    4  A    between atoms: C_7  and  C_8
REMARK    5  A    between atoms: N_17  and  C_18
REMARK    6  A    between atoms: C_18  and  C_19
REMARK                            x       y       z     vdW  Elec       q    Type
REMARK                         _______ _______ _______ _____ _____    ______ ____
ROOT
ATOM      1  C   UNL     1       7.450  -4.498  26.014  0.00  0.00    +0.305 C 
ATOM      2  N   UNL     1       7.010  -4.822  24.788  0.00  0.00    -0.150 N 
ATOM      3  C   UNL     1       7.999  -4.538  23.899  0.00  0.00    +0.353 C 
ATOM      4  O   UNL     1       8.047  -4.839  22.720  0.00  0.00    -0.243 OA
ATOM      5  C   UNL     1       9.015  -3.724  24.666  0.00  0.00    +0.336 C 
ATOM      6  N   UNL     1       8.603  -3.899  26.087  0.00  0.00    -0.071 NA
ENDROOT
BRANCH   1   7
ATOM      7  C   UNL     1       6.692  -4.895  27.265  0.00  0.00    +0.207 C 
BRANCH   7   8
ATOM      8  N   UNL     1       7.396  -6.037  27.861  0.00  0.00    -0.320 NA
ATOM      9  H   UNL     1       7.352  -6.810  27.191  0.00  0.00    +0.119 HD
ATOM     10  H   UNL     1       8.386  -5.806  27.937  0.00  0.00    +0.119 HD
ENDBRANCH   7   8
ENDBRANCH   1   7
BRANCH   2  11
ATOM     11  C   UNL     1       5.748  -5.421  24.410  0.00  0.00    +0.305 C 
BRANCH  11  12
ATOM     12  C   UNL     1       4.845  -4.366  23.795  0.00  0.00    +0.267 C 
ATOM     13  O   UNL     1       4.598  -4.263  22.595  0.00  0.00    -0.297 OA
ENDBRANCH  11  12
ENDBRANCH   2  11
BRANCH   5  14
ATOM     14  C   UNL     1       8.851  -2.265  24.250  0.00  0.00    +0.077 C 
BRANCH  14  15
ATOM     15  C   UNL     1      10.066  -1.629  23.567  0.00  0.00    +0.039 C 
ATOM     16  C   UNL     1      10.365  -0.332  24.280  0.00  0.00    -0.015 C 
ATOM     17  C   UNL     1      10.157   0.879  23.747  0.00  0.00    +0.047 C 
ATOM     18  C   UNL     1       9.652   1.013  22.362  0.00  0.00    +0.178 C 
ATOM     19  O   UNL     1       9.319   2.097  21.907  0.00  0.00    -0.288 OA
ATOM     20  C   UNL     1       9.602  -0.218  21.539  0.00  0.00    +0.047 C 
ATOM     21  C   UNL     1       9.811  -1.418  22.096  0.00  0.00    -0.015 C 
ENDBRANCH  14  15
ENDBRANCH   5  14
TORSDOF 6
ENDMDL
MODEL 3
REMARK VINA RESULT:      -6.0      1.954      2.757
REMARK  Name = 
REMARK  6 active torsions:
REMARK  status: ('A' for Active; 'I' for Inactive)
REMARK    1  A    between atoms: N_1  and  C_2
REMARK    2  A    between atoms: C_2  and  C_3
REMARK    3  A    between atoms: C_5  and  C_7
REMARK    4  A    between atoms: C_7  and  C_8
REMARK    5  A    between atoms: N_17  and  C_18
REMARK    6  A    between atoms: C_18  and  C_19
REMARK                            x       y       z     vdW  Elec       q    Type
REMARK                         _______ _______ _______ _____ _____    ______ ____
ROOT
ATOM      1  C   UNL     1       7.446  -3.700  22.902  0.00  0.00    +0.305 C 
ATOM      2  N   UNL     1       7.835  -3.594  24.182  0.00  0.00    -0.150 N 
ATOM      3  C   UNL     1       8.216  -2.307  24.399  0.00  0.00    +0.353 C 
ATOM      4  O   UNL     1       8.475  -1.778  25.465  0.00  0.00    -0.243 OA
ATOM      5  C   UNL     1       8.300  -1.670  23.031  0.00  0.00    +0.336 C 
ATOM      6  N   UNL     1       7.622  -2.656  22.144  0.00  0.00    -0.071 NA
ENDROOT
BRANCH   1   7
ATOM      7  C   UNL     1       6.746  -4.939  22.380  0.00  0.00    +0.207 C 
BRANCH   7   8
ATOM      8  N   UNL     1       5.892  -4.521  21.261  0.00  0.00    -0.320 NA
ATOM      9  H   UNL     1       5.951  -5.248  20.541  0.00  0.00    +0.119 HD
ATOM     10  H   UNL     1       4.921  -4.530  21.570  0.00  0.00    +0.119 HD
ENDBRANCH   7   8
ENDBRANCH   1   7
BRANCH   2  11
ATOM     11  C   UNL     1       7.824  -4.606  25.216  0.00  0.00    +0.305 C 
BRANCH  11  12
ATOM     12  C   UNL     1       9.148  -5.351  25.215  0.00  0.00    +0.267 C 
ATOM     13  O   UNL     1      10.225  -4.872  24.867  0.00  0.00    -0.297 OA
ENDBRANCH  11  12
ENDBRANCH   2  11
BRANCH   5  14
ATOM     14  C   UNL     1       9.776  -1.561  22.660  0.00  0.00    +0.077 C 
BRANCH  14  15
ATOM     15  C   UNL     1      10.284  -0.145  22.369  0.00  0.00    +0.039 C 
ATOM     16  C   UNL     1      10.524   0.537  23.695  0.00  0.00    -0.015 C 
ATOM     17  C   UNL     1       9.763   1.531  24.173  0.00  0.00    +0.047 C 
ATOM     18  C   UNL     1       8.637   2.064  23.374  0.00  0.00    +0.178 C 
ATOM     19  O   UNL     1       7.844   2.866  23.846  0.00  0.00    -0.288 OA
ATOM     20  C   UNL     1       8.532   1.613  21.967  0.00  0.00    +0.047 C 
ATOM     21  C   UNL     1       9.303   0.616  21.513  0.00  0.00    -0.015 C 
ENDBRANCH  14  15
ENDBRANCH   5  14
TORSDOF 6
ENDMDL
MODEL 4
REMARK VINA RESULT:      -6.0      2.877      6.553
REMARK  Name = 
REMARK  6 active torsions:
REMARK  status: ('A' for Active; 'I' for Inactive)
REMARK    1  A    between atoms: N_1  and  C_2
REMARK    2  A    between atoms: C_2  and  C_3
REMARK    3  A    between atoms: C_5  and  C_7
REMARK    4  A    between atoms: C_7  and  C_8
REMARK    5  A    between atoms: N_17  and  C_18
REMARK    6  A    between atoms: C_18  and  C_19
REMARK                            x       y       z     vdW  Elec       q    Type
REMARK                         _______ _______ _______ _____ _____    ______ ____
ROOT
ATOM      1  C   UNL     1       7.803   0.271  22.625  0.00  0.00    +0.305 C 
ATOM      2  N   UNL     1       9.135   0.103  22.591  0.00  0.00    -0.150 N 
ATOM      3  C   UNL     1       9.387  -1.225  22.448  0.00  0.00    +0.353 C 
ATOM      4  O   UNL     1      10.458  -1.757  22.214  0.00  0.00    -0.243 OA
ATOM      5  C   UNL     1       8.066  -1.919  22.686  0.00  0.00    +0.336 C 
ATOM      6  N   UNL     1       7.075  -0.808  22.644  0.00  0.00    -0.071 NA
ENDROOT
BRANCH   1   7
ATOM      7  C   UNL     1       7.169   1.644  22.548  0.00  0.00    +0.207 C 
BRANCH   7   8
ATOM      8  N   UNL     1       5.831   1.543  23.145  0.00  0.00    -0.320 NA
ATOM      9  H   UNL     1       5.149   1.750  22.409  0.00  0.00    +0.119 HD
ATOM     10  H   UNL     1       5.661   0.571  23.401  0.00  0.00    +0.119 HD
ENDBRANCH   7   8
ENDBRANCH   1   7
BRANCH   2  11
ATOM     11  C   UNL     1      10.173   1.111  22.635  0.00  0.00    +0.305 C 
BRANCH  11  12
ATOM     12  C   UNL     1      10.558   1.383  24.079  0.00  0.00    +0.267 C 
ATOM     13  O   UNL     1      11.124   0.582  24.820  0.00  0.00    -0.297 OA
ENDBRANCH  11  12
ENDBRANCH   2  11
BRANCH   5  14
ATOM     14  C   UNL     1       8.109  -2.530  24.083  0.00  0.00    +0.077 C 
BRANCH  14  15
ATOM     15  C   UNL     1       8.360  -4.040  24.140  0.00  0.00    +0.039 C 
ATOM     16  C   UNL     1       7.038  -4.714  24.426  0.00  0.00    -0.015 C 
ATOM     17  C   UNL     1       6.737  -5.304  25.590  0.00  0.00    +0.047 C 
ATOM     18  C   UNL     1       7.738  -5.373  26.678  0.00  0.00    +0.178 C 
ATOM     19  O   UNL     1       7.442  -5.774  27.794  0.00  0.00    -0.288 OA
ATOM     20  C   UNL     1       9.125  -4.968  26.347  0.00  0.00    +0.047 C 
ATOM     21  C   UNL     1       9.400  -4.378  25.177  0.00  0.00    -0.015 C 
ENDBRANCH  14  15
ENDBRANCH   5  14
TORSDOF 6
ENDMDL
MODEL 5
REMARK VINA RESULT:      -5.9      2.111      6.317
REMARK  Name = 
REMARK  6 active torsions:
REMARK  status: ('A' for Active; 'I' for Inactive)
REMARK    1  A    between atoms: N_1  and  C_2
REMARK    2  A    between atoms: C_2  and  C_3
REMARK    3  A    between atoms: C_5  and  C_7
REMARK    4  A    between atoms: C_7  and  C_8
REMARK    5  A    between atoms: N_17  and  C_18
REMARK    6  A    between atoms: C_18  and  C_19
REMARK                            x       y       z     vdW  Elec       q    Type
REMARK                         _______ _______ _______ _____ _____    ______ ____
ROOT
ATOM      1  C   UNL     1       7.507  -0.692  23.403  0.00  0.00    +0.305 C 
ATOM      2  N   UNL     1       8.830  -0.571  23.210  0.00  0.00    -0.150 N 
ATOM      3  C   UNL     1       9.275  -1.718  22.630  0.00  0.00    +0.353 C 
ATOM      4  O   UNL     1      10.376  -1.930  22.153  0.00  0.00    -0.243 OA
ATOM      5  C   UNL     1       8.134  -2.701  22.741  0.00  0.00    +0.336 C 
ATOM      6  N   UNL     1       6.976  -1.851  23.136  0.00  0.00    -0.071 NA
ENDROOT
BRANCH   1   7
ATOM      7  C   UNL     1       6.650   0.485  23.820  0.00  0.00    +0.207 C 
BRANCH   7   8
ATOM      8  N   UNL     1       6.196   1.153  22.593  0.00  0.00    -0.320 NA
ATOM      9  H   UNL     1       5.552   0.515  22.116  0.00  0.00    +0.119 HD
ATOM     10  H   UNL     1       5.629   1.960  22.852  0.00  0.00    +0.119 HD
ENDBRANCH   7   8
ENDBRANCH   1   7
BRANCH   2  11
ATOM     11  C   UNL     1       9.683   0.563  23.490  0.00  0.00    +0.305 C 
BRANCH  11  12
ATOM     12  C   UNL     1       9.886   1.375  22.222  0.00  0.00    +0.267 C 
ATOM     13  O   UNL     1       8.985   1.751  21.475  0.00  0.00    -0.297 OA
ENDBRANCH  11  12
ENDBRANCH   2  11
BRANCH   5  14
ATOM     14  C   UNL     1       8.471  -3.680  23.862  0.00  0.00    +0.077 C 
BRANCH  14  15
ATOM     15  C   UNL     1       7.798  -5.053  23.767  0.00  0.00    +0.039 C 
ATOM     16  C   UNL     1       7.311  -5.229  22.348  0.00  0.00    -0.015 C 
ATOM     17  C   UNL     1       6.019  -5.214  21.995  0.00  0.00    +0.047 C 
ATOM     18  C   UNL     1       4.962  -5.070  23.020  0.00  0.00    +0.178 C 
ATOM     19  O   UNL     1       3.791  -4.908  22.710  0.00  0.00    -0.288 OA
ATOM     20  C   UNL     1       5.378  -5.165  24.439  0.00  0.00    +0.047 C 
ATOM     21  C   UNL     1       6.676  -5.176  24.767  0.00  0.00    -0.015 C 
ENDBRANCH  14  15
ENDBRANCH   5  14
TORSDOF 6
ENDMDL
MODEL 6
REMARK VINA RESULT:      -5.9      2.284      6.328
REMARK  Name = 
REMARK  6 active torsions:
REMARK  status: ('A' for Active; 'I' for Inactive)
REMARK    1  A    between atoms: N_1  and  C_2
REMARK    2  A    between atoms: C_2  and  C_3
REMARK    3  A    between atoms: C_5  and  C_7
REMARK    4  A    between atoms: C_7  and  C_8
REMARK    5  A    between atoms: N_17  and  C_18
REMARK    6  A    between atoms: C_18  and  C_19
REMARK                            x       y       z     vdW  Elec       q    Type
REMARK                         _______ _______ _______ _____ _____    ______ ____
ROOT
ATOM      1  C   UNL     1       9.520  -0.428  22.815  0.00  0.00    +0.305 C 
ATOM      2  N   UNL     1       8.962  -0.364  24.035  0.00  0.00    -0.150 N 
ATOM      3  C   UNL     1       8.890  -1.627  24.530  0.00  0.00    +0.353 C 
ATOM      4  O   UNL     1       8.599  -1.966  25.664  0.00  0.00    -0.243 OA
ATOM      5  C   UNL     1       9.201  -2.541  23.367  0.00  0.00    +0.336 C 
ATOM      6  N   UNL     1       9.745  -1.617  22.334  0.00  0.00    -0.071 NA
ENDROOT
BRANCH   1   7
ATOM      7  C   UNL     1       9.959   0.816  22.071  0.00  0.00    +0.207 C 
BRANCH   7   8
ATOM      8  N   UNL     1       8.886   1.164  21.130  0.00  0.00    -0.320 NA
ATOM      9  H   UNL     1       8.232   0.376  21.103  0.00  0.00    +0.119 HD
ATOM     10  H   UNL     1       8.352   1.941  21.516  0.00  0.00    +0.119 HD
ENDBRANCH   7   8
ENDBRANCH   1   7
BRANCH   2  11
ATOM     11  C   UNL     1       8.541   0.807  24.774  0.00  0.00    +0.305 C 
BRANCH  11  12
ATOM     12  C   UNL     1       7.104   1.147  24.417  0.00  0.00    +0.267 C 
ATOM     13  O   UNL     1       6.752   1.726  23.391  0.00  0.00    -0.297 OA
ENDBRANCH  11  12
ENDBRANCH   2  11
BRANCH   5  14
ATOM     14  C   UNL     1       7.886  -3.146  22.888  0.00  0.00    +0.077 C 
BRANCH  14  15
ATOM     15  C   UNL     1       7.663  -4.619  23.249  0.00  0.00    +0.039 C 
ATOM     16  C   UNL     1       7.235  -5.339  21.992  0.00  0.00    -0.015 C 
ATOM     17  C   UNL     1       5.996  -5.802  21.781  0.00  0.00    +0.047 C 
ATOM     18  C   UNL     1       4.957  -5.671  22.828  0.00  0.00    +0.178 C 
ATOM     19  O   UNL     1       3.789  -5.952  22.606  0.00  0.00    -0.288 OA
ATOM     20  C   UNL     1       5.401  -5.218  24.167  0.00  0.00    +0.047 C 
ATOM     21  C   UNL     1       6.644  -4.757  24.352  0.00  0.00    -0.015 C 
ENDBRANCH  14  15
ENDBRANCH   5  14
TORSDOF 6
ENDMDL
MODEL 7
REMARK VINA RESULT:      -5.9      2.784      6.559
REMARK  Name = 
REMARK  6 active torsions:
REMARK  status: ('A' for Active; 'I' for Inactive)
REMARK    1  A    between atoms: N_1  and  C_2
REMARK    2  A    between atoms: C_2  and  C_3
REMARK    3  A    between atoms: C_5  and  C_7
REMARK    4  A    between atoms: C_7  and  C_8
REMARK    5  A    between atoms: N_17  and  C_18
REMARK    6  A    between atoms: C_18  and  C_19
REMARK                            x       y       z     vdW  Elec       q    Type
REMARK                         _______ _______ _______ _____ _____    ______ ____
ROOT
ATOM      1  C   UNL     1       8.516   0.340  22.725  0.00  0.00    +0.305 C 
ATOM      2  N   UNL     1       8.102   0.654  23.962  0.00  0.00    -0.150 N 
ATOM      3  C   UNL     1       8.465  -0.358  24.795  0.00  0.00    +0.353 C 
ATOM      4  O   UNL     1       8.414  -0.372  26.012  0.00  0.00    -0.243 OA
ATOM      5  C   UNL     1       8.903  -1.490  23.896  0.00  0.00    +0.336 C 
ATOM      6  N   UNL     1       9.030  -0.845  22.559  0.00  0.00    -0.071 NA
ENDROOT
BRANCH   1   7
ATOM      7  C   UNL     1       8.479   1.344  21.591  0.00  0.00    +0.207 C 
BRANCH   7   8
ATOM      8  N   UNL     1       9.781   2.023  21.565  0.00  0.00    -0.320 NA
ATOM      9  H   UNL     1      10.344   1.639  22.330  0.00  0.00    +0.119 HD
ATOM     10  H   UNL     1      10.272   1.754  20.712  0.00  0.00    +0.119 HD
ENDBRANCH   7   8
ENDBRANCH   1   7
BRANCH   2  11
ATOM     11  C   UNL     1       7.436   1.856  24.414  0.00  0.00    +0.305 C 
BRANCH  11  12
ATOM     12  C   UNL     1       8.462   2.836  24.956  0.00  0.00    +0.267 C 
ATOM     13  O   UNL     1       9.479   3.191  24.364  0.00  0.00    -0.297 OA
ENDBRANCH  11  12
ENDBRANCH   2  11
BRANCH   5  14
ATOM     14  C   UNL     1       7.783  -2.525  23.873  0.00  0.00    +0.077 C 
BRANCH  14  15
ATOM     15  C   UNL     1       8.229  -3.987  23.984  0.00  0.00    +0.039 C 
ATOM     16  C   UNL     1       7.006  -4.816  24.299  0.00  0.00    -0.015 C 
ATOM     17  C   UNL     1       6.782  -5.398  25.485  0.00  0.00    +0.047 C 
ATOM     18  C   UNL     1       7.782  -5.295  26.571  0.00  0.00    +0.178 C 
ATOM     19  O   UNL     1       7.538  -5.690  27.702  0.00  0.00    -0.288 OA
ATOM     20  C   UNL     1       9.104  -4.725  26.222  0.00  0.00    +0.047 C 
ATOM     21  C   UNL     1       9.302  -4.147  25.031  0.00  0.00    -0.015 C 
ENDBRANCH  14  15
ENDBRANCH   5  14
TORSDOF 6
ENDMDL
MODEL 8
REMARK VINA RESULT:      -5.8      2.061      5.752
REMARK  Name = 
REMARK  6 active torsions:
REMARK  status: ('A' for Active; 'I' for Inactive)
REMARK    1  A    between atoms: N_1  and  C_2
REMARK    2  A    between atoms: C_2  and  C_3
REMARK    3  A    between atoms: C_5  and  C_7
REMARK    4  A    between atoms: C_7  and  C_8
REMARK    5  A    between atoms: N_17  and  C_18
REMARK    6  A    between atoms: C_18  and  C_19
REMARK                            x       y       z     vdW  Elec       q    Type
REMARK                         _______ _______ _______ _____ _____    ______ ____
ROOT
ATOM      1  C   UNL     1       9.756  -2.062  23.771  0.00  0.00    +0.305 C 
ATOM      2  N   UNL     1       8.989  -1.359  24.620  0.00  0.00    -0.150 N 
ATOM      3  C   UNL     1       8.667  -2.169  25.663  0.00  0.00    +0.353 C 
ATOM      4  O   UNL     1       8.126  -1.854  26.709  0.00  0.00    -0.243 OA
ATOM      5  C   UNL     1       9.076  -3.561  25.241  0.00  0.00    +0.336 C 
ATOM      6  N   UNL     1       9.917  -3.327  24.034  0.00  0.00    -0.071 NA
ENDROOT
BRANCH   1   7
ATOM      7  C   UNL     1      10.480  -1.403  22.616  0.00  0.00    +0.207 C 
BRANCH   7   8
ATOM      8  N   UNL     1       9.625  -1.536  21.429  0.00  0.00    -0.320 NA
ATOM      9  H   UNL     1       8.868  -2.184  21.667  0.00  0.00    +0.119 HD
ATOM     10  H   UNL     1       9.166  -0.643  21.255  0.00  0.00    +0.119 HD
ENDBRANCH   7   8
ENDBRANCH   1   7
BRANCH   2  11
ATOM     11  C   UNL     1       8.586   0.028  24.535  0.00  0.00    +0.305 C 
BRANCH  11  12
ATOM     12  C   UNL     1       7.328   0.143  23.692  0.00  0.00    +0.267 C 
ATOM     13  O   UNL     1       7.308   0.378  22.485  0.00  0.00    -0.297 OA
ENDBRANCH  11  12
ENDBRANCH   2  11
BRANCH   5  14
ATOM     14  C   UNL     1       7.809  -4.320  24.857  0.00  0.00    +0.077 C 
BRANCH  14  15
ATOM     15  C   UNL     1       7.370  -4.180  23.396  0.00  0.00    +0.039 C 
ATOM     16  C   UNL     1       6.074  -3.404  23.379  0.00  0.00    -0.015 C 
ATOM     17  C   UNL     1       4.884  -3.943  23.082  0.00  0.00    +0.047 C 
ATOM     18  C   UNL     1       4.781  -5.367  22.692  0.00  0.00    +0.178 C 
ATOM     19  O   UNL     1       3.697  -5.915  22.559  0.00  0.00    -0.288 OA
ATOM     20  C   UNL     1       6.048  -6.091  22.435  0.00  0.00    +0.047 C 
ATOM     21  C   UNL     1       7.225  -5.531  22.742  0.00  0.00    -0.015 C 
ENDBRANCH  14  15
ENDBRANCH   5  14
TORSDOF 6
ENDMDL
MODEL 9
REMARK VINA RESULT:      -5.8      1.707      2.008
REMARK  Name = 
REMARK  6 active torsions:
REMARK  status: ('A' for Active; 'I' for Inactive)
REMARK    1  A    between atoms: N_1  and  C_2
REMARK    2  A    between atoms: C_2  and  C_3
REMARK    3  A    between atoms: C_5  and  C_7
REMARK    4  A    between atoms: C_7  and  C_8
REMARK    5  A    between atoms: N_17  and  C_18
REMARK    6  A    between atoms: C_18  and  C_19
REMARK                            x       y       z     vdW  Elec       q    Type
REMARK                         _______ _______ _______ _____ _____    ______ ____
ROOT
ATOM      1  C   UNL     1       7.567  -4.133  25.075  0.00  0.00    +0.305 C 
ATOM      2  N   UNL     1       7.130  -3.958  23.818  0.00  0.00    -0.150 N 
ATOM      3  C   UNL     1       7.884  -2.983  23.244  0.00  0.00    +0.353 C 
ATOM      4  O   UNL     1       7.905  -2.654  22.071  0.00  0.00    -0.243 OA
ATOM      5  C   UNL     1       8.664  -2.352  24.374  0.00  0.00    +0.336 C 
ATOM      6  N   UNL     1       8.474  -3.303  25.504  0.00  0.00    -0.071 NA
ENDROOT
BRANCH   1   7
ATOM      7  C   UNL     1       7.103  -5.297  25.927  0.00  0.00    +0.207 C 
BRANCH   7   8
ATOM      8  N   UNL     1       8.246  -5.724  26.745  0.00  0.00    -0.320 NA
ATOM      9  H   UNL     1       7.986  -5.597  27.728  0.00  0.00    +0.119 HD
ATOM     10  H   UNL     1       8.372  -6.729  26.631  0.00  0.00    +0.119 HD
ENDBRANCH   7   8
ENDBRANCH   1   7
BRANCH   2  11
ATOM     11  C   UNL     1       6.090  -4.678  23.116  0.00  0.00    +0.305 C 
BRANCH  11  12
ATOM     12  C   UNL     1       6.693  -5.870  22.392  0.00  0.00    +0.267 C 
ATOM     13  O   UNL     1       7.322  -5.809  21.338  0.00  0.00    -0.297 OA
ENDBRANCH  11  12
ENDBRANCH   2  11
BRANCH   5  14
ATOM     14  C   UNL     1       8.007  -1.014  24.700  0.00  0.00    +0.077 C 
BRANCH  14  15
ATOM     15  C   UNL     1       8.874  -0.023  25.484  0.00  0.00    +0.039 C 
ATOM     16  C   UNL     1       8.283   1.354  25.293  0.00  0.00    -0.015 C 
ATOM     17  C   UNL     1       8.858   2.319  24.562  0.00  0.00    +0.047 C 
ATOM     18  C   UNL     1      10.173   2.093  23.923  0.00  0.00    +0.178 C 
ATOM     19  O   UNL     1      10.647   2.900  23.137  0.00  0.00    -0.288 OA
ATOM     20  C   UNL     1      10.908   0.864  24.303  0.00  0.00    +0.047 C 
ATOM     21  C   UNL     1      10.311  -0.087  25.033  0.00  0.00    -0.015 C 
ENDBRANCH  14  15
ENDBRANCH   5  14
TORSDOF 6
ENDMDL
