MODEL 1
REMARK VINA RESULT:      -4.5      0.000      0.000
REMARK  Name = 
REMARK  49 active torsions:
REMARK  status: ('A' for Active; 'I' for Inactive)
REMARK    1  A    between atoms: C_1  and  C_2
REMARK    2  A    between atoms: C_2  and  C_3
REMARK    3  A    between atoms: C_3  and  C_4
REMARK    4  A    between atoms: C_4  and  C_5
REMARK    5  A    between atoms: C_5  and  C_6
REMARK    6  A    between atoms: C_6  and  C_7
REMARK    7  A    between atoms: C_7  and  C_8
REMARK    8  A    between atoms: C_8  and  C_9
REMARK    9  A    between atoms: C_9  and  C_10
REMARK   10  A    between atoms: C_10  and  C_11
REMARK   11  A    between atoms: C_11  and  C_12
REMARK   12  A    between atoms: C_12  and  C_13
REMARK   13  A    between atoms: C_13  and  C_14
REMARK   14  A    between atoms: C_15  and  C_16
REMARK   15  A    between atoms: C_16  and  O_18
REMARK   16  A    between atoms: C_16  and  C_19
REMARK   17  A    between atoms: C_19  and  C_21
REMARK   18  A    between atoms: C_19  and  N_43
REMARK   19  A    between atoms: C_21  and  O_22
REMARK   20  A    between atoms: O_22  and  C_23
REMARK   21  A    between atoms: C_26  and  C_28
REMARK   22  A    between atoms: C_28  and  O_29
REMARK   23  A    between atoms: C_30  and  O_32
REMARK   24  A    between atoms: C_33  and  O_35
REMARK   25  A    between atoms: O_35  and  S_36
REMARK   26  A    between atoms: S_36  and  O_37
REMARK   27  A    between atoms: C_40  and  O_42
REMARK   28  A    between atoms: C_44  and  C_46
REMARK   29  A    between atoms: C_46  and  C_47
REMARK   30  A    between atoms: C_47  and  C_48
REMARK   31  A    between atoms: C_48  and  C_49
REMARK   32  A    between atoms: C_49  and  C_50
REMARK   33  A    between atoms: C_50  and  C_51
REMARK   34  A    between atoms: C_51  and  C_52
REMARK   35  A    between atoms: C_52  and  C_53
REMARK   36  A    between atoms: C_53  and  C_54
REMARK   37  A    between atoms: C_54  and  C_55
REMARK   38  A    between atoms: C_55  and  C_56
REMARK   39  A    between atoms: C_56  and  C_57
REMARK   40  A    between atoms: C_57  and  C_58
REMARK   41  A    between atoms: C_58  and  C_59
REMARK   42  A    between atoms: C_60  and  C_61
REMARK   43  A    between atoms: C_61  and  C_62
REMARK   44  A    between atoms: C_62  and  C_63
REMARK   45  A    between atoms: C_63  and  C_64
REMARK   46  A    between atoms: C_64  and  C_65
REMARK   47  A    between atoms: C_65  and  C_66
REMARK   48  A    between atoms: C_66  and  C_67
REMARK   49  A    between atoms: C_67  and  C_68
REMARK                            x       y       z     vdW  Elec       q    Type
REMARK                         _______ _______ _______ _____ _____    ______ ____
ROOT
ATOM      1  C   UNL     1       7.058  -0.176  27.464  0.00  0.00    +0.131 C 
ENDROOT
BRANCH   1   2
ATOM      2  N   UNL     1       6.868   1.264  27.206  0.00  0.00    -0.307 N 
ATOM      3  H   UNL     1       6.589   1.558  26.280  0.00  0.00    +0.149 HD
ATOM      4  C   UNL     1       7.021   2.193  28.203  0.00  0.00    +0.213 C 
ATOM      5  O   UNL     1       7.269   1.899  29.366  0.00  0.00    -0.276 OA
BRANCH   4   6
ATOM      6  C   UNL     1       6.814   3.612  27.727  0.00  0.00    +0.096 C 
BRANCH   6   7
ATOM      7  C   UNL     1       6.347   4.516  28.864  0.00  0.00    +0.009 C 
BRANCH   7   8
ATOM      8  C   UNL     1       6.793   5.966  28.717  0.00  0.00    +0.000 C 
BRANCH   8   9
ATOM      9  C   UNL     1       5.642   6.886  28.331  0.00  0.00    +0.000 C 
BRANCH   9  10
ATOM     10  C   UNL     1       4.309   6.186  28.523  0.00  0.00    +0.000 C 
BRANCH  10  11
ATOM     11  C   UNL     1       3.336   6.614  27.435  0.00  0.00    +0.000 C 
BRANCH  11  12
ATOM     12  C   UNL     1       3.928   6.297  26.075  0.00  0.00    -0.000 C 
BRANCH  12  13
ATOM     13  C   UNL     1       3.836   4.810  25.794  0.00  0.00    +0.000 C 
BRANCH  13  14
ATOM     14  C   UNL     1       3.156   4.586  24.453  0.00  0.00    +0.000 C 
BRANCH  14  15
ATOM     15  C   UNL     1       3.650   3.283  23.860  0.00  0.00    +0.000 C 
BRANCH  15  16
ATOM     16  C   UNL     1       4.690   2.627  24.757  0.00  0.00    +0.000 C 
BRANCH  16  17
ATOM     17  C   UNL     1       5.884   2.130  23.945  0.00  0.00    +0.004 C 
BRANCH  17  18
ATOM     18  C   UNL     1       5.900   2.620  22.495  0.00  0.00    +0.027 C 
BRANCH  18  19
ATOM     19  C   UNL     1       7.194   3.302  22.135  0.00  0.00    -0.031 C 
ATOM     20  C   UNL     1       7.391   4.626  22.191  0.00  0.00    -0.031 C 
BRANCH  20  21
ATOM     21  C   UNL     1       6.329   5.565  22.664  0.00  0.00    +0.027 C 
BRANCH  21  22
ATOM     22  C   UNL     1       6.791   6.456  23.801  0.00  0.00    +0.004 C 
BRANCH  22  23
ATOM     23  C   UNL     1       7.422   5.588  24.883  0.00  0.00    +0.000 C 
BRANCH  23  24
ATOM     24  C   UNL     1       8.622   6.290  25.493  0.00  0.00    +0.000 C 
BRANCH  24  25
ATOM     25  C   UNL     1       9.589   6.744  24.407  0.00  0.00    -0.000 C 
BRANCH  25  26
ATOM     26  C   UNL     1      10.484   5.585  23.986  0.00  0.00    -0.000 C 
BRANCH  26  27
ATOM     27  C   UNL     1      11.952   5.992  23.992  0.00  0.00    -0.003 C 
ATOM     28  C   UNL     1      12.774   5.055  23.124  0.00  0.00    +0.004 C 
ENDBRANCH  26  27
ENDBRANCH  25  26
ENDBRANCH  24  25
ENDBRANCH  23  24
ENDBRANCH  22  23
ENDBRANCH  21  22
ENDBRANCH  20  21
ENDBRANCH  18  19
ENDBRANCH  17  18
ENDBRANCH  16  17
ENDBRANCH  15  16
ENDBRANCH  14  15
ENDBRANCH  13  14
ENDBRANCH  12  13
ENDBRANCH  11  12
ENDBRANCH  10  11
ENDBRANCH   9  10
ENDBRANCH   8   9
ENDBRANCH   7   8
ENDBRANCH   6   7
ENDBRANCH   4   6
ENDBRANCH   1   2
BRANCH   1  29
ATOM     29  C   UNL     1       5.822  -0.963  26.994  0.00  0.00    +0.188 C 
BRANCH  29  30
ATOM     30  O   UNL     1       6.163  -2.267  26.514  0.00  0.00    -0.347 OA
BRANCH  30  31
ATOM     31  C   UNL     1       5.257  -3.265  27.007  0.00  0.00    +0.282 C 
ATOM     32  C   UNL     1       4.458  -3.866  25.818  0.00  0.00    +0.204 C 
ATOM     33  C   UNL     1       3.606  -5.063  26.289  0.00  0.00    +0.216 C 
ATOM     34  C   UNL     1       4.468  -6.048  27.092  0.00  0.00    +0.179 C 
ATOM     35  C   UNL     1       5.181  -5.314  28.232  0.00  0.00    +0.178 C 
ATOM     36  O   UNL     1       5.994  -4.256  27.713  0.00  0.00    -0.341 OA
BRANCH  34  37
ATOM     37  O   UNL     1       5.409  -6.642  26.188  0.00  0.00    -0.386 OA
ATOM     38  H   UNL     1       6.179  -6.055  26.108  0.00  0.00    +0.210 HD
ENDBRANCH  34  37
BRANCH  32  39
ATOM     39  O   UNL     1       3.594  -2.887  25.201  0.00  0.00    -0.384 OA
ATOM     40  H   UNL     1       3.064  -3.318  24.512  0.00  0.00    +0.210 HD
ENDBRANCH  32  39
BRANCH  35  41
ATOM     41  C   UNL     1       6.108  -6.253  29.008  0.00  0.00    +0.190 C 
BRANCH  41  42
ATOM     42  O   UNL     1       7.334  -6.413  28.296  0.00  0.00    -0.392 OA
ATOM     43  H   UNL     1       7.263  -7.276  27.843  0.00  0.00    +0.210 HD
ENDBRANCH  41  42
ENDBRANCH  35  41
BRANCH  33  44
ATOM     44  O   UNL     1       3.033  -5.710  25.144  0.00  0.00    -0.207 OA
BRANCH  44  45
ATOM     45  S   UNL     1       1.427  -5.603  24.911  0.00  0.00    +0.208 S 
ATOM     46  O   UNL     1       0.811  -6.810  25.410  0.00  0.00    -0.118 OA
ATOM     47  O   UNL     1       1.191  -5.139  23.560  0.00  0.00    -0.118 OA
BRANCH  45  48
ATOM     48  O   UNL     1       1.006  -4.381  25.859  0.00  0.00    -0.231 OA
ATOM     49  H   UNL     1       1.627  -4.368  26.616  0.00  0.00    +0.247 HD
ENDBRANCH  45  48
ENDBRANCH  44  45
ENDBRANCH  33  44
ENDBRANCH  30  31
ENDBRANCH  29  30
ENDBRANCH   1  29
BRANCH   1  50
ATOM     50  C   UNL     1       8.390  -0.706  26.879  0.00  0.00    +0.159 C 
BRANCH  50  51
ATOM     51  O   UNL     1       9.449  -0.453  27.811  0.00  0.00    -0.386 OA
ATOM     52  H   UNL     1       9.610   0.506  27.799  0.00  0.00    +0.210 HD
ENDBRANCH  50  51
BRANCH  50  54
ATOM     53  C   UNL     1      10.090  -0.031  25.156  0.00  0.00    -0.028 C 
ATOM     54  C   UNL     1       8.823  -0.060  25.595  0.00  0.00    +0.002 C 
BRANCH  53  55
ATOM     55  C   UNL     1      10.502   0.725  23.930  0.00  0.00    +0.027 C 
BRANCH  55  56
ATOM     56  C   UNL     1       9.463   0.599  22.823  0.00  0.00    +0.004 C 
BRANCH  56  57
ATOM     57  C   UNL     1       9.746  -0.635  21.969  0.00  0.00    +0.000 C 
BRANCH  57  58
ATOM     58  C   UNL     1       8.621  -1.650  22.118  0.00  0.00    +0.000 C 
BRANCH  58  59
ATOM     59  C   UNL     1       7.338  -0.985  22.600  0.00  0.00    +0.000 C 
BRANCH  59  60
ATOM     60  C   UNL     1       6.328  -2.044  23.022  0.00  0.00    +0.000 C 
BRANCH  60  61
ATOM     61  C   UNL     1       6.182  -3.117  21.951  0.00  0.00    -0.000 C 
BRANCH  61  62
ATOM     62  C   UNL     1       5.277  -4.241  22.440  0.00  0.00    -0.000 C 
BRANCH  62  63
ATOM     63  C   UNL     1       6.093  -5.486  22.762  0.00  0.00    -0.000 C 
BRANCH  63  64
ATOM     64  C   UNL     1       7.570  -5.144  22.922  0.00  0.00    -0.000 C 
BRANCH  64  65
ATOM     65  C   UNL     1       8.001  -5.290  24.379  0.00  0.00    -0.000 C 
BRANCH  65  67
ATOM     66  C   UNL     1       9.172  -4.166  26.295  0.00  0.00    +0.004 C 
ATOM     67  C   UNL     1       8.933  -4.156  24.794  0.00  0.00    -0.003 C 
ENDBRANCH  65  67
ENDBRANCH  64  65
ENDBRANCH  63  64
ENDBRANCH  62  63
ENDBRANCH  61  62
ENDBRANCH  60  61
ENDBRANCH  59  60
ENDBRANCH  58  59
ENDBRANCH  57  58
ENDBRANCH  56  57
ENDBRANCH  55  56
ENDBRANCH  53  55
ENDBRANCH  50  54
ENDBRANCH   1  50
TORSDOF 47
ENDMDL
MODEL 2
REMARK VINA RESULT:      -4.2      2.448      6.531
REMARK  Name = 
REMARK  49 active torsions:
REMARK  status: ('A' for Active; 'I' for Inactive)
REMARK    1  A    between atoms: C_1  and  C_2
REMARK    2  A    between atoms: C_2  and  C_3
REMARK    3  A    between atoms: C_3  and  C_4
REMARK    4  A    between atoms: C_4  and  C_5
REMARK    5  A    between atoms: C_5  and  C_6
REMARK    6  A    between atoms: C_6  and  C_7
REMARK    7  A    between atoms: C_7  and  C_8
REMARK    8  A    between atoms: C_8  and  C_9
REMARK    9  A    between atoms: C_9  and  C_10
REMARK   10  A    between atoms: C_10  and  C_11
REMARK   11  A    between atoms: C_11  and  C_12
REMARK   12  A    between atoms: C_12  and  C_13
REMARK   13  A    between atoms: C_13  and  C_14
REMARK   14  A    between atoms: C_15  and  C_16
REMARK   15  A    between atoms: C_16  and  O_18
REMARK   16  A    between atoms: C_16  and  C_19
REMARK   17  A    between atoms: C_19  and  C_21
REMARK   18  A    between atoms: C_19  and  N_43
REMARK   19  A    between atoms: C_21  and  O_22
REMARK   20  A    between atoms: O_22  and  C_23
REMARK   21  A    between atoms: C_26  and  C_28
REMARK   22  A    between atoms: C_28  and  O_29
REMARK   23  A    between atoms: C_30  and  O_32
REMARK   24  A    between atoms: C_33  and  O_35
REMARK   25  A    between atoms: O_35  and  S_36
REMARK   26  A    between atoms: S_36  and  O_37
REMARK   27  A    between atoms: C_40  and  O_42
REMARK   28  A    between atoms: C_44  and  C_46
REMARK   29  A    between atoms: C_46  and  C_47
REMARK   30  A    between atoms: C_47  and  C_48
REMARK   31  A    between atoms: C_48  and  C_49
REMARK   32  A    between atoms: C_49  and  C_50
REMARK   33  A    between atoms: C_50  and  C_51
REMARK   34  A    between atoms: C_51  and  C_52
REMARK   35  A    between atoms: C_52  and  C_53
REMARK   36  A    between atoms: C_53  and  C_54
REMARK   37  A    between atoms: C_54  and  C_55
REMARK   38  A    between atoms: C_55  and  C_56
REMARK   39  A    between atoms: C_56  and  C_57
REMARK   40  A    between atoms: C_57  and  C_58
REMARK   41  A    between atoms: C_58  and  C_59
REMARK   42  A    between atoms: C_60  and  C_61
REMARK   43  A    between atoms: C_61  and  C_62
REMARK   44  A    between atoms: C_62  and  C_63
REMARK   45  A    between atoms: C_63  and  C_64
REMARK   46  A    between atoms: C_64  and  C_65
REMARK   47  A    between atoms: C_65  and  C_66
REMARK   48  A    between atoms: C_66  and  C_67
REMARK   49  A    between atoms: C_67  and  C_68
REMARK                            x       y       z     vdW  Elec       q    Type
REMARK                         _______ _______ _______ _____ _____    ______ ____
ROOT
ATOM      1  C   UNL     1       7.333  -2.837  23.247  0.00  0.00    +0.131 C 
ENDROOT
BRANCH   1   2
ATOM      2  N   UNL     1       8.217  -1.791  22.698  0.00  0.00    -0.307 N 
ATOM      3  H   UNL     1       7.797  -0.983  22.257  0.00  0.00    +0.149 HD
ATOM      4  C   UNL     1       9.581  -1.876  22.814  0.00  0.00    +0.213 C 
ATOM      5  O   UNL     1      10.150  -2.780  23.414  0.00  0.00    -0.276 OA
BRANCH   4   6
ATOM      6  C   UNL     1      10.305  -0.722  22.160  0.00  0.00    +0.096 C 
BRANCH   6   7
ATOM      7  C   UNL     1       9.325   0.244  21.501  0.00  0.00    +0.009 C 
BRANCH   7   8
ATOM      8  C   UNL     1       9.617   1.710  21.799  0.00  0.00    +0.000 C 
BRANCH   8   9
ATOM      9  C   UNL     1      10.202   1.909  23.191  0.00  0.00    +0.000 C 
BRANCH   9  10
ATOM     10  C   UNL     1      10.958   3.222  23.273  0.00  0.00    +0.000 C 
BRANCH  10  11
ATOM     11  C   UNL     1      10.150   4.238  24.065  0.00  0.00    +0.000 C 
BRANCH  11  12
ATOM     12  C   UNL     1      10.608   5.639  23.706  0.00  0.00    -0.000 C 
BRANCH  12  13
ATOM     13  C   UNL     1       9.857   6.666  24.527  0.00  0.00    +0.000 C 
BRANCH  13  14
ATOM     14  C   UNL     1       8.377   6.610  24.185  0.00  0.00    +0.000 C 
BRANCH  14  15
ATOM     15  C   UNL     1       8.211   6.726  22.684  0.00  0.00    +0.000 C 
BRANCH  15  16
ATOM     16  C   UNL     1       6.946   6.023  22.211  0.00  0.00    +0.000 C 
BRANCH  16  17
ATOM     17  C   UNL     1       7.088   4.506  22.311  0.00  0.00    +0.004 C 
BRANCH  17  18
ATOM     18  C   UNL     1       5.946   3.821  23.066  0.00  0.00    +0.027 C 
BRANCH  18  19
ATOM     19  C   UNL     1       5.979   2.323  22.919  0.00  0.00    -0.031 C 
ATOM     20  C   UNL     1       6.549   1.490  23.800  0.00  0.00    -0.031 C 
BRANCH  20  21
ATOM     21  C   UNL     1       7.189   1.984  25.057  0.00  0.00    +0.027 C 
BRANCH  21  22
ATOM     22  C   UNL     1       6.335   1.748  26.288  0.00  0.00    +0.004 C 
BRANCH  22  23
ATOM     23  C   UNL     1       6.593   2.867  27.289  0.00  0.00    +0.000 C 
BRANCH  23  24
ATOM     24  C   UNL     1       7.229   4.061  26.598  0.00  0.00    +0.000 C 
BRANCH  24  25
ATOM     25  C   UNL     1       6.263   5.238  26.562  0.00  0.00    -0.000 C 
BRANCH  25  26
ATOM     26  C   UNL     1       4.878   4.792  27.015  0.00  0.00    -0.000 C 
BRANCH  26  27
ATOM     27  C   UNL     1       3.858   4.937  25.892  0.00  0.00    -0.003 C 
ATOM     28  C   UNL     1       3.210   3.600  25.579  0.00  0.00    +0.004 C 
ENDBRANCH  26  27
ENDBRANCH  25  26
ENDBRANCH  24  25
ENDBRANCH  23  24
ENDBRANCH  22  23
ENDBRANCH  21  22
ENDBRANCH  20  21
ENDBRANCH  18  19
ENDBRANCH  17  18
ENDBRANCH  16  17
ENDBRANCH  15  16
ENDBRANCH  14  15
ENDBRANCH  13  14
ENDBRANCH  12  13
ENDBRANCH  11  12
ENDBRANCH  10  11
ENDBRANCH   9  10
ENDBRANCH   8   9
ENDBRANCH   7   8
ENDBRANCH   6   7
ENDBRANCH   4   6
ENDBRANCH   1   2
BRANCH   1  29
ATOM     29  C   UNL     1       6.285  -2.205  24.180  0.00  0.00    +0.188 C 
BRANCH  29  30
ATOM     30  O   UNL     1       6.884  -1.585  25.322  0.00  0.00    -0.347 OA
BRANCH  30  31
ATOM     31  C   UNL     1       7.263  -2.555  26.310  0.00  0.00    +0.282 C 
ATOM     32  C   UNL     1       6.009  -3.366  26.740  0.00  0.00    +0.204 C 
ATOM     33  C   UNL     1       6.412  -4.532  27.666  0.00  0.00    +0.216 C 
ATOM     34  C   UNL     1       7.559  -5.340  27.039  0.00  0.00    +0.179 C 
ATOM     35  C   UNL     1       8.721  -4.410  26.681  0.00  0.00    +0.178 C 
ATOM     36  O   UNL     1       8.284  -3.390  25.777  0.00  0.00    -0.341 OA
BRANCH  34  37
ATOM     37  O   UNL     1       7.043  -5.999  25.875  0.00  0.00    -0.386 OA
ATOM     38  H   UNL     1       7.788  -6.313  25.337  0.00  0.00    +0.210 HD
ENDBRANCH  34  37
BRANCH  32  39
ATOM     39  O   UNL     1       5.041  -2.538  27.420  0.00  0.00    -0.384 OA
ATOM     40  H   UNL     1       4.391  -2.213  26.776  0.00  0.00    +0.210 HD
ENDBRANCH  32  39
BRANCH  35  41
ATOM     41  C   UNL     1       9.852  -5.171  25.985  0.00  0.00    +0.190 C 
BRANCH  41  42
ATOM     42  O   UNL     1       9.514  -5.386  24.616  0.00  0.00    -0.392 OA
ATOM     43  H   UNL     1       8.568  -5.152  24.541  0.00  0.00    +0.210 HD
ENDBRANCH  41  42
ENDBRANCH  35  41
BRANCH  33  44
ATOM     44  O   UNL     1       5.268  -5.369  27.890  0.00  0.00    -0.207 OA
BRANCH  44  45
ATOM     45  S   UNL     1       5.232  -6.299  29.224  0.00  0.00    +0.208 S 
ATOM     46  O   UNL     1       3.865  -6.394  29.678  0.00  0.00    -0.118 OA
ATOM     47  O   UNL     1       6.292  -5.868  30.111  0.00  0.00    -0.118 OA
BRANCH  45  48
ATOM     48  O   UNL     1       5.693  -7.732  28.676  0.00  0.00    -0.231 OA
ATOM     49  H   UNL     1       5.796  -7.659  27.706  0.00  0.00    +0.247 HD
ENDBRANCH  45  48
ENDBRANCH  44  45
ENDBRANCH  33  44
ENDBRANCH  30  31
ENDBRANCH  29  30
ENDBRANCH   1  29
BRANCH   1  50
ATOM     50  C   UNL     1       6.720  -3.727  22.138  0.00  0.00    +0.159 C 
BRANCH  50  51
ATOM     51  O   UNL     1       5.544  -3.093  21.619  0.00  0.00    -0.386 OA
ATOM     52  H   UNL     1       5.441  -3.401  20.702  0.00  0.00    +0.210 HD
ENDBRANCH  50  51
BRANCH  50  54
ATOM     53  C   UNL     1       5.026  -5.385  22.974  0.00  0.00    -0.028 C 
ATOM     54  C   UNL     1       6.276  -5.089  22.588  0.00  0.00    +0.002 C 
BRANCH  53  55
ATOM     55  C   UNL     1       4.648  -6.723  23.530  0.00  0.00    +0.027 C 
BRANCH  55  56
ATOM     56  C   UNL     1       3.190  -6.751  23.969  0.00  0.00    +0.004 C 
BRANCH  56  57
ATOM     57  C   UNL     1       3.088  -6.583  25.483  0.00  0.00    +0.000 C 
BRANCH  57  58
ATOM     58  C   UNL     1       1.630  -6.572  25.918  0.00  0.00    +0.000 C 
BRANCH  58  59
ATOM     59  C   UNL     1       1.433  -5.721  27.166  0.00  0.00    +0.000 C 
BRANCH  59  60
ATOM     60  C   UNL     1       2.087  -4.359  26.977  0.00  0.00    +0.000 C 
BRANCH  60  61
ATOM     61  C   UNL     1       1.373  -3.291  27.795  0.00  0.00    -0.000 C 
BRANCH  61  62
ATOM     62  C   UNL     1       1.534  -1.923  27.144  0.00  0.00    -0.000 C 
BRANCH  62  63
ATOM     63  C   UNL     1       1.487  -0.820  28.193  0.00  0.00    -0.000 C 
BRANCH  63  64
ATOM     64  C   UNL     1       2.465  -1.105  29.328  0.00  0.00    -0.000 C 
BRANCH  64  65
ATOM     65  C   UNL     1       2.980   0.198  29.934  0.00  0.00    -0.000 C 
BRANCH  65  67
ATOM     66  C   UNL     1       3.146   2.598  29.217  0.00  0.00    +0.004 C 
ATOM     67  C   UNL     1       3.460   1.157  28.850  0.00  0.00    -0.003 C 
ENDBRANCH  65  67
ENDBRANCH  64  65
ENDBRANCH  63  64
ENDBRANCH  62  63
ENDBRANCH  61  62
ENDBRANCH  60  61
ENDBRANCH  59  60
ENDBRANCH  58  59
ENDBRANCH  57  58
ENDBRANCH  56  57
ENDBRANCH  55  56
ENDBRANCH  53  55
ENDBRANCH  50  54
ENDBRANCH   1  50
TORSDOF 47
ENDMDL
MODEL 3
REMARK VINA RESULT:      -4.2      2.057      3.390
REMARK  Name = 
REMARK  49 active torsions:
REMARK  status: ('A' for Active; 'I' for Inactive)
REMARK    1  A    between atoms: C_1  and  C_2
REMARK    2  A    between atoms: C_2  and  C_3
REMARK    3  A    between atoms: C_3  and  C_4
REMARK    4  A    between atoms: C_4  and  C_5
REMARK    5  A    between atoms: C_5  and  C_6
REMARK    6  A    between atoms: C_6  and  C_7
REMARK    7  A    between atoms: C_7  and  C_8
REMARK    8  A    between atoms: C_8  and  C_9
REMARK    9  A    between atoms: C_9  and  C_10
REMARK   10  A    between atoms: C_10  and  C_11
REMARK   11  A    between atoms: C_11  and  C_12
REMARK   12  A    between atoms: C_12  and  C_13
REMARK   13  A    between atoms: C_13  and  C_14
REMARK   14  A    between atoms: C_15  and  C_16
REMARK   15  A    between atoms: C_16  and  O_18
REMARK   16  A    between atoms: C_16  and  C_19
REMARK   17  A    between atoms: C_19  and  C_21
REMARK   18  A    between atoms: C_19  and  N_43
REMARK   19  A    between atoms: C_21  and  O_22
REMARK   20  A    between atoms: O_22  and  C_23
REMARK   21  A    between atoms: C_26  and  C_28
REMARK   22  A    between atoms: C_28  and  O_29
REMARK   23  A    between atoms: C_30  and  O_32
REMARK   24  A    between atoms: C_33  and  O_35
REMARK   25  A    between atoms: O_35  and  S_36
REMARK   26  A    between atoms: S_36  and  O_37
REMARK   27  A    between atoms: C_40  and  O_42
REMARK   28  A    between atoms: C_44  and  C_46
REMARK   29  A    between atoms: C_46  and  C_47
REMARK   30  A    between atoms: C_47  and  C_48
REMARK   31  A    between atoms: C_48  and  C_49
REMARK   32  A    between atoms: C_49  and  C_50
REMARK   33  A    between atoms: C_50  and  C_51
REMARK   34  A    between atoms: C_51  and  C_52
REMARK   35  A    between atoms: C_52  and  C_53
REMARK   36  A    between atoms: C_53  and  C_54
REMARK   37  A    between atoms: C_54  and  C_55
REMARK   38  A    between atoms: C_55  and  C_56
REMARK   39  A    between atoms: C_56  and  C_57
REMARK   40  A    between atoms: C_57  and  C_58
REMARK   41  A    between atoms: C_58  and  C_59
REMARK   42  A    between atoms: C_60  and  C_61
REMARK   43  A    between atoms: C_61  and  C_62
REMARK   44  A    between atoms: C_62  and  C_63
REMARK   45  A    between atoms: C_63  and  C_64
REMARK   46  A    between atoms: C_64  and  C_65
REMARK   47  A    between atoms: C_65  and  C_66
REMARK   48  A    between atoms: C_66  and  C_67
REMARK   49  A    between atoms: C_67  and  C_68
REMARK                            x       y       z     vdW  Elec       q    Type
REMARK                         _______ _______ _______ _____ _____    ______ ____
ROOT
ATOM      1  C   UNL     1       7.107   0.148  27.297  0.00  0.00    +0.131 C 
ENDROOT
BRANCH   1   2
ATOM      2  N   UNL     1       7.167   1.591  27.602  0.00  0.00    -0.307 N 
ATOM      3  H   UNL     1       7.459   2.228  26.872  0.00  0.00    +0.149 HD
ATOM      4  C   UNL     1       6.796   2.077  28.829  0.00  0.00    +0.213 C 
ATOM      5  O   UNL     1       6.349   1.372  29.725  0.00  0.00    -0.276 OA
BRANCH   4   6
ATOM      6  C   UNL     1       6.960   3.574  28.947  0.00  0.00    +0.096 C 
BRANCH   6   7
ATOM      7  C   UNL     1       6.216   4.119  30.164  0.00  0.00    +0.009 C 
BRANCH   7   8
ATOM      8  C   UNL     1       6.437   5.609  30.400  0.00  0.00    +0.000 C 
BRANCH   8   9
ATOM      9  C   UNL     1       5.147   6.408  30.273  0.00  0.00    +0.000 C 
BRANCH   9  10
ATOM     10  C   UNL     1       3.940   5.489  30.317  0.00  0.00    +0.000 C 
BRANCH  10  11
ATOM     11  C   UNL     1       2.914   5.930  29.285  0.00  0.00    +0.000 C 
BRANCH  11  12
ATOM     12  C   UNL     1       3.534   5.876  27.901  0.00  0.00    -0.000 C 
BRANCH  12  13
ATOM     13  C   UNL     1       3.641   4.441  27.427  0.00  0.00    +0.000 C 
BRANCH  13  14
ATOM     14  C   UNL     1       2.274   3.950  26.977  0.00  0.00    +0.000 C 
BRANCH  14  15
ATOM     15  C   UNL     1       2.455   2.772  26.042  0.00  0.00    +0.000 C 
BRANCH  15  16
ATOM     16  C   UNL     1       3.625   2.995  25.093  0.00  0.00    +0.000 C 
BRANCH  16  17
ATOM     17  C   UNL     1       3.137   3.358  23.692  0.00  0.00    +0.004 C 
BRANCH  17  18
ATOM     18  C   UNL     1       3.172   4.859  23.390  0.00  0.00    +0.027 C 
BRANCH  18  19
ATOM     19  C   UNL     1       4.461   5.282  22.736  0.00  0.00    -0.031 C 
ATOM     20  C   UNL     1       5.367   6.089  23.305  0.00  0.00    -0.031 C 
BRANCH  20  21
ATOM     21  C   UNL     1       5.191   6.624  24.689  0.00  0.00    +0.027 C 
BRANCH  21  22
ATOM     22  C   UNL     1       6.440   6.489  25.539  0.00  0.00    +0.004 C 
BRANCH  22  23
ATOM     23  C   UNL     1       6.768   5.010  25.701  0.00  0.00    +0.000 C 
BRANCH  23  24
ATOM     24  C   UNL     1       8.184   4.725  25.235  0.00  0.00    +0.000 C 
BRANCH  24  25
ATOM     25  C   UNL     1       8.178   3.753  24.062  0.00  0.00    -0.000 C 
BRANCH  25  26
ATOM     26  C   UNL     1       7.039   2.753  24.217  0.00  0.00    -0.000 C 
BRANCH  26  27
ATOM     27  C   UNL     1       6.619   2.182  22.868  0.00  0.00    -0.003 C 
ATOM     28  C   UNL     1       7.233   2.981  21.732  0.00  0.00    +0.004 C 
ENDBRANCH  26  27
ENDBRANCH  25  26
ENDBRANCH  24  25
ENDBRANCH  23  24
ENDBRANCH  22  23
ENDBRANCH  21  22
ENDBRANCH  20  21
ENDBRANCH  18  19
ENDBRANCH  17  18
ENDBRANCH  16  17
ENDBRANCH  15  16
ENDBRANCH  14  15
ENDBRANCH  13  14
ENDBRANCH  12  13
ENDBRANCH  11  12
ENDBRANCH  10  11
ENDBRANCH   9  10
ENDBRANCH   8   9
ENDBRANCH   7   8
ENDBRANCH   6   7
ENDBRANCH   4   6
ENDBRANCH   1   2
BRANCH   1  29
ATOM     29  C   UNL     1       5.871  -0.157  26.434  0.00  0.00    +0.188 C 
BRANCH  29  30
ATOM     30  O   UNL     1       6.121  -1.196  25.482  0.00  0.00    -0.347 OA
BRANCH  30  31
ATOM     31  C   UNL     1       5.340  -2.367  25.761  0.00  0.00    +0.282 C 
ATOM     32  C   UNL     1       5.935  -3.100  26.995  0.00  0.00    +0.204 C 
ATOM     33  C   UNL     1       5.015  -4.260  27.429  0.00  0.00    +0.216 C 
ATOM     34  C   UNL     1       3.566  -3.770  27.567  0.00  0.00    +0.179 C 
ATOM     35  C   UNL     1       3.119  -3.083  26.273  0.00  0.00    +0.178 C 
ATOM     36  O   UNL     1       3.984  -1.985  25.966  0.00  0.00    -0.341 OA
BRANCH  34  37
ATOM     37  O   UNL     1       3.514  -2.868  28.679  0.00  0.00    -0.386 OA
ATOM     38  H   UNL     1       4.422  -2.643  28.942  0.00  0.00    +0.210 HD
ENDBRANCH  34  37
BRANCH  32  39
ATOM     39  O   UNL     1       7.254  -3.619  26.726  0.00  0.00    -0.384 OA
ATOM     40  H   UNL     1       7.704  -3.800  27.567  0.00  0.00    +0.210 HD
ENDBRANCH  32  39
BRANCH  35  41
ATOM     41  C   UNL     1       1.703  -2.516  26.402  0.00  0.00    +0.190 C 
BRANCH  41  42
ATOM     42  O   UNL     1       1.770  -1.131  26.734  0.00  0.00    -0.392 OA
ATOM     43  H   UNL     1       1.169  -0.682  26.108  0.00  0.00    +0.210 HD
ENDBRANCH  41  42
ENDBRANCH  35  41
BRANCH  33  44
ATOM     44  O   UNL     1       5.489  -4.792  28.674  0.00  0.00    -0.207 OA
BRANCH  44  45
ATOM     45  S   UNL     1       6.133  -6.285  28.689  0.00  0.00    +0.208 S 
ATOM     46  O   UNL     1       5.321  -7.142  27.858  0.00  0.00    -0.118 OA
ATOM     47  O   UNL     1       6.442  -6.637  30.059  0.00  0.00    -0.118 OA
BRANCH  45  48
ATOM     48  O   UNL     1       7.552  -6.072  27.974  0.00  0.00    -0.231 OA
ATOM     49  H   UNL     1       8.143  -6.795  28.269  0.00  0.00    +0.247 HD
ENDBRANCH  45  48
ENDBRANCH  44  45
ENDBRANCH  33  44
ENDBRANCH  30  31
ENDBRANCH  29  30
ENDBRANCH   1  29
BRANCH   1  50
ATOM     50  C   UNL     1       8.432  -0.379  26.692  0.00  0.00    +0.159 C 
BRANCH  50  51
ATOM     51  O   UNL     1       9.443  -0.392  27.708  0.00  0.00    -0.386 OA
ATOM     52  H   UNL     1       9.232  -1.131  28.304  0.00  0.00    +0.210 HD
ENDBRANCH  50  51
BRANCH  50  54
ATOM     53  C   UNL     1      10.232   0.302  25.075  0.00  0.00    -0.028 C 
ATOM     54  C   UNL     1       8.996   0.452  25.576  0.00  0.00    +0.002 C 
BRANCH  53  55
ATOM     55  C   UNL     1      10.802   1.225  24.043  0.00  0.00    +0.027 C 
BRANCH  55  56
ATOM     56  C   UNL     1      10.193   0.970  22.671  0.00  0.00    +0.004 C 
BRANCH  56  57
ATOM     57  C   UNL     1      10.196  -0.525  22.360  0.00  0.00    +0.000 C 
BRANCH  57  58
ATOM     58  C   UNL     1       8.907  -0.921  21.654  0.00  0.00    +0.000 C 
BRANCH  58  59
ATOM     59  C   UNL     1       7.964  -1.656  22.598  0.00  0.00    +0.000 C 
BRANCH  59  60
ATOM     60  C   UNL     1       8.748  -2.644  23.453  0.00  0.00    +0.000 C 
BRANCH  60  61
ATOM     61  C   UNL     1       8.073  -4.009  23.468  0.00  0.00    -0.000 C 
BRANCH  61  62
ATOM     62  C   UNL     1       7.194  -4.184  22.236  0.00  0.00    -0.000 C 
BRANCH  62  63
ATOM     63  C   UNL     1       7.193  -5.637  21.779  0.00  0.00    -0.000 C 
BRANCH  63  64
ATOM     64  C   UNL     1       6.004  -6.392  22.366  0.00  0.00    -0.000 C 
BRANCH  64  65
ATOM     65  C   UNL     1       4.833  -5.444  22.610  0.00  0.00    -0.000 C 
BRANCH  65  67
ATOM     66  C   UNL     1       4.476  -7.075  24.485  0.00  0.00    +0.004 C 
ATOM     67  C   UNL     1       4.234  -5.656  23.997  0.00  0.00    -0.003 C 
ENDBRANCH  65  67
ENDBRANCH  64  65
ENDBRANCH  63  64
ENDBRANCH  62  63
ENDBRANCH  61  62
ENDBRANCH  60  61
ENDBRANCH  59  60
ENDBRANCH  58  59
ENDBRANCH  57  58
ENDBRANCH  56  57
ENDBRANCH  55  56
ENDBRANCH  53  55
ENDBRANCH  50  54
ENDBRANCH   1  50
TORSDOF 47
ENDMDL
MODEL 4
REMARK VINA RESULT:      -4.2      2.301      6.422
REMARK  Name = 
REMARK  49 active torsions:
REMARK  status: ('A' for Active; 'I' for Inactive)
REMARK    1  A    between atoms: C_1  and  C_2
REMARK    2  A    between atoms: C_2  and  C_3
REMARK    3  A    between atoms: C_3  and  C_4
REMARK    4  A    between atoms: C_4  and  C_5
REMARK    5  A    between atoms: C_5  and  C_6
REMARK    6  A    between atoms: C_6  and  C_7
REMARK    7  A    between atoms: C_7  and  C_8
REMARK    8  A    between atoms: C_8  and  C_9
REMARK    9  A    between atoms: C_9  and  C_10
REMARK   10  A    between atoms: C_10  and  C_11
REMARK   11  A    between atoms: C_11  and  C_12
REMARK   12  A    between atoms: C_12  and  C_13
REMARK   13  A    between atoms: C_13  and  C_14
REMARK   14  A    between atoms: C_15  and  C_16
REMARK   15  A    between atoms: C_16  and  O_18
REMARK   16  A    between atoms: C_16  and  C_19
REMARK   17  A    between atoms: C_19  and  C_21
REMARK   18  A    between atoms: C_19  and  N_43
REMARK   19  A    between atoms: C_21  and  O_22
REMARK   20  A    between atoms: O_22  and  C_23
REMARK   21  A    between atoms: C_26  and  C_28
REMARK   22  A    between atoms: C_28  and  O_29
REMARK   23  A    between atoms: C_30  and  O_32
REMARK   24  A    between atoms: C_33  and  O_35
REMARK   25  A    between atoms: O_35  and  S_36
REMARK   26  A    between atoms: S_36  and  O_37
REMARK   27  A    between atoms: C_40  and  O_42
REMARK   28  A    between atoms: C_44  and  C_46
REMARK   29  A    between atoms: C_46  and  C_47
REMARK   30  A    between atoms: C_47  and  C_48
REMARK   31  A    between atoms: C_48  and  C_49
REMARK   32  A    between atoms: C_49  and  C_50
REMARK   33  A    between atoms: C_50  and  C_51
REMARK   34  A    between atoms: C_51  and  C_52
REMARK   35  A    between atoms: C_52  and  C_53
REMARK   36  A    between atoms: C_53  and  C_54
REMARK   37  A    between atoms: C_54  and  C_55
REMARK   38  A    between atoms: C_55  and  C_56
REMARK   39  A    between atoms: C_56  and  C_57
REMARK   40  A    between atoms: C_57  and  C_58
REMARK   41  A    between atoms: C_58  and  C_59
REMARK   42  A    between atoms: C_60  and  C_61
REMARK   43  A    between atoms: C_61  and  C_62
REMARK   44  A    between atoms: C_62  and  C_63
REMARK   45  A    between atoms: C_63  and  C_64
REMARK   46  A    between atoms: C_64  and  C_65
REMARK   47  A    between atoms: C_65  and  C_66
REMARK   48  A    between atoms: C_66  and  C_67
REMARK   49  A    between atoms: C_67  and  C_68
REMARK                            x       y       z     vdW  Elec       q    Type
REMARK                         _______ _______ _______ _____ _____    ______ ____
ROOT
ATOM      1  C   UNL     1       7.029  -4.413  24.547  0.00  0.00    +0.131 C 
ENDROOT
BRANCH   1   2
ATOM      2  N   UNL     1       6.714  -3.114  25.171  0.00  0.00    -0.307 N 
ATOM      3  H   UNL     1       6.049  -2.504  24.713  0.00  0.00    +0.149 HD
ATOM      4  C   UNL     1       7.268  -2.745  26.370  0.00  0.00    +0.213 C 
ATOM      5  O   UNL     1       8.008  -3.471  27.022  0.00  0.00    -0.276 OA
BRANCH   4   6
ATOM      6  C   UNL     1       6.841  -1.367  26.821  0.00  0.00    +0.096 C 
BRANCH   6   7
ATOM      7  C   UNL     1       8.045  -0.449  27.014  0.00  0.00    +0.009 C 
BRANCH   7   8
ATOM      8  C   UNL     1       8.323   0.455  25.818  0.00  0.00    +0.000 C 
BRANCH   8   9
ATOM      9  C   UNL     1       7.064   0.742  25.010  0.00  0.00    +0.000 C 
BRANCH   9  10
ATOM     10  C   UNL     1       6.530   2.128  25.321  0.00  0.00    +0.000 C 
BRANCH  10  11
ATOM     11  C   UNL     1       7.674   3.047  25.721  0.00  0.00    +0.000 C 
BRANCH  11  12
ATOM     12  C   UNL     1       7.224   3.948  26.856  0.00  0.00    -0.000 C 
BRANCH  12  13
ATOM     13  C   UNL     1       6.887   3.123  28.082  0.00  0.00    +0.000 C 
BRANCH  13  14
ATOM     14  C   UNL     1       5.727   3.764  28.826  0.00  0.00    +0.000 C 
BRANCH  14  15
ATOM     15  C   UNL     1       4.870   2.676  29.438  0.00  0.00    +0.000 C 
BRANCH  15  16
ATOM     16  C   UNL     1       5.041   1.356  28.699  0.00  0.00    +0.000 C 
BRANCH  16  17
ATOM     17  C   UNL     1       3.706   0.850  28.158  0.00  0.00    +0.004 C 
BRANCH  17  18
ATOM     18  C   UNL     1       3.338   1.412  26.782  0.00  0.00    +0.027 C 
BRANCH  18  19
ATOM     19  C   UNL     1       2.322   2.520  26.868  0.00  0.00    -0.031 C 
ATOM     20  C   UNL     1       2.490   3.741  26.342  0.00  0.00    -0.031 C 
BRANCH  20  21
ATOM     21  C   UNL     1       3.716   4.110  25.573  0.00  0.00    +0.027 C 
BRANCH  21  22
ATOM     22  C   UNL     1       3.408   4.639  24.186  0.00  0.00    +0.004 C 
BRANCH  22  23
ATOM     23  C   UNL     1       2.119   5.450  24.243  0.00  0.00    +0.000 C 
BRANCH  23  24
ATOM     24  C   UNL     1       1.109   4.913  23.245  0.00  0.00    +0.000 C 
BRANCH  24  25
ATOM     25  C   UNL     1       1.709   3.770  22.435  0.00  0.00    -0.000 C 
BRANCH  25  26
ATOM     26  C   UNL     1       0.785   2.560  22.473  0.00  0.00    -0.000 C 
BRANCH  26  27
ATOM     27  C   UNL     1       0.443   2.083  21.066  0.00  0.00    -0.003 C 
ATOM     28  C   UNL     1       1.501   2.535  20.074  0.00  0.00    +0.004 C 
ENDBRANCH  26  27
ENDBRANCH  25  26
ENDBRANCH  24  25
ENDBRANCH  23  24
ENDBRANCH  22  23
ENDBRANCH  21  22
ENDBRANCH  20  21
ENDBRANCH  18  19
ENDBRANCH  17  18
ENDBRANCH  16  17
ENDBRANCH  15  16
ENDBRANCH  14  15
ENDBRANCH  13  14
ENDBRANCH  12  13
ENDBRANCH  11  12
ENDBRANCH  10  11
ENDBRANCH   9  10
ENDBRANCH   8   9
ENDBRANCH   7   8
ENDBRANCH   6   7
ENDBRANCH   4   6
ENDBRANCH   1   2
BRANCH   1  29
ATOM     29  C   UNL     1       5.803  -4.941  23.782  0.00  0.00    +0.188 C 
BRANCH  29  30
ATOM     30  O   UNL     1       5.685  -6.365  23.871  0.00  0.00    -0.347 OA
BRANCH  30  31
ATOM     31  C   UNL     1       4.525  -6.752  24.622  0.00  0.00    +0.282 C 
ATOM     32  C   UNL     1       4.584  -6.100  26.031  0.00  0.00    +0.204 C 
ATOM     33  C   UNL     1       3.268  -6.349  26.797  0.00  0.00    +0.216 C 
ATOM     34  C   UNL     1       2.062  -5.969  25.926  0.00  0.00    +0.179 C 
ATOM     35  C   UNL     1       2.137  -6.696  24.580  0.00  0.00    +0.178 C 
ATOM     36  O   UNL     1       3.356  -6.372  23.904  0.00  0.00    -0.341 OA
BRANCH  34  37
ATOM     37  O   UNL     1       2.082  -4.547  25.750  0.00  0.00    -0.386 OA
ATOM     38  H   UNL     1       1.175  -4.209  25.829  0.00  0.00    +0.210 HD
ENDBRANCH  34  37
BRANCH  32  39
ATOM     39  O   UNL     1       5.687  -6.607  26.812  0.00  0.00    -0.384 OA
ATOM     40  H   UNL     1       5.898  -7.508  26.519  0.00  0.00    +0.210 HD
ENDBRANCH  32  39
BRANCH  35  41
ATOM     41  C   UNL     1       0.988  -6.283  23.657  0.00  0.00    +0.190 C 
BRANCH  41  42
ATOM     42  O   UNL     1       1.482  -5.417  22.636  0.00  0.00    -0.392 OA
ATOM     43  H   UNL     1       2.187  -5.921  22.184  0.00  0.00    +0.210 HD
ENDBRANCH  41  42
ENDBRANCH  35  41
BRANCH  33  44
ATOM     44  O   UNL     1       3.279  -5.581  28.009  0.00  0.00    -0.207 OA
BRANCH  44  45
ATOM     45  S   UNL     1       3.416  -6.364  29.428  0.00  0.00    +0.208 S 
ATOM     46  O   UNL     1       3.624  -5.387  30.471  0.00  0.00    -0.118 OA
ATOM     47  O   UNL     1       4.320  -7.480  29.249  0.00  0.00    -0.118 OA
BRANCH  45  48
ATOM     48  O   UNL     1       1.965  -7.019  29.619  0.00  0.00    -0.231 OA
ATOM     49  H   UNL     1       1.804  -7.103  30.580  0.00  0.00    +0.247 HD
ENDBRANCH  45  48
ENDBRANCH  44  45
ENDBRANCH  33  44
ENDBRANCH  30  31
ENDBRANCH  29  30
ENDBRANCH   1  29
BRANCH   1  50
ATOM     50  C   UNL     1       8.317  -4.354  23.690  0.00  0.00    +0.159 C 
BRANCH  50  51
ATOM     51  O   UNL     1       9.429  -4.800  24.477  0.00  0.00    -0.386 OA
ATOM     52  H   UNL     1       9.060  -5.226  25.269  0.00  0.00    +0.210 HD
ENDBRANCH  50  51
BRANCH  50  54
ATOM     53  C   UNL     1       9.810  -2.335  23.568  0.00  0.00    -0.028 C 
ATOM     54  C   UNL     1       8.695  -2.985  23.202  0.00  0.00    +0.002 C 
BRANCH  53  55
ATOM     55  C   UNL     1      10.095  -0.924  23.154  0.00  0.00    +0.027 C 
BRANCH  55  56
ATOM     56  C   UNL     1       9.801  -0.709  21.675  0.00  0.00    +0.004 C 
BRANCH  56  57
ATOM     57  C   UNL     1       9.102   0.632  21.463  0.00  0.00    +0.000 C 
BRANCH  57  58
ATOM     58  C   UNL     1       9.826   1.733  22.225  0.00  0.00    +0.000 C 
BRANCH  58  59
ATOM     59  C   UNL     1       8.899   2.908  22.512  0.00  0.00    +0.000 C 
BRANCH  59  60
ATOM     60  C   UNL     1       7.553   2.686  21.834  0.00  0.00    +0.000 C 
BRANCH  60  61
ATOM     61  C   UNL     1       6.564   3.781  22.212  0.00  0.00    -0.000 C 
BRANCH  61  62
ATOM     62  C   UNL     1       7.255   5.139  22.239  0.00  0.00    -0.000 C 
BRANCH  62  63
ATOM     63  C   UNL     1       6.815   5.941  23.457  0.00  0.00    -0.000 C 
BRANCH  63  64
ATOM     64  C   UNL     1       7.999   6.664  24.090  0.00  0.00    -0.000 C 
BRANCH  64  65
ATOM     65  C   UNL     1       9.289   6.343  23.341  0.00  0.00    -0.000 C 
BRANCH  65  67
ATOM     66  C   UNL     1      11.675   5.593  23.558  0.00  0.00    +0.004 C 
ATOM     67  C   UNL     1      10.408   5.968  24.308  0.00  0.00    -0.003 C 
ENDBRANCH  65  67
ENDBRANCH  64  65
ENDBRANCH  63  64
ENDBRANCH  62  63
ENDBRANCH  61  62
ENDBRANCH  60  61
ENDBRANCH  59  60
ENDBRANCH  58  59
ENDBRANCH  57  58
ENDBRANCH  56  57
ENDBRANCH  55  56
ENDBRANCH  53  55
ENDBRANCH  50  54
ENDBRANCH   1  50
TORSDOF 47
ENDMDL
MODEL 5
REMARK VINA RESULT:      -4.1      2.382      6.137
REMARK  Name = 
REMARK  49 active torsions:
REMARK  status: ('A' for Active; 'I' for Inactive)
REMARK    1  A    between atoms: C_1  and  C_2
REMARK    2  A    between atoms: C_2  and  C_3
REMARK    3  A    between atoms: C_3  and  C_4
REMARK    4  A    between atoms: C_4  and  C_5
REMARK    5  A    between atoms: C_5  and  C_6
REMARK    6  A    between atoms: C_6  and  C_7
REMARK    7  A    between atoms: C_7  and  C_8
REMARK    8  A    between atoms: C_8  and  C_9
REMARK    9  A    between atoms: C_9  and  C_10
REMARK   10  A    between atoms: C_10  and  C_11
REMARK   11  A    between atoms: C_11  and  C_12
REMARK   12  A    between atoms: C_12  and  C_13
REMARK   13  A    between atoms: C_13  and  C_14
REMARK   14  A    between atoms: C_15  and  C_16
REMARK   15  A    between atoms: C_16  and  O_18
REMARK   16  A    between atoms: C_16  and  C_19
REMARK   17  A    between atoms: C_19  and  C_21
REMARK   18  A    between atoms: C_19  and  N_43
REMARK   19  A    between atoms: C_21  and  O_22
REMARK   20  A    between atoms: O_22  and  C_23
REMARK   21  A    between atoms: C_26  and  C_28
REMARK   22  A    between atoms: C_28  and  O_29
REMARK   23  A    between atoms: C_30  and  O_32
REMARK   24  A    between atoms: C_33  and  O_35
REMARK   25  A    between atoms: O_35  and  S_36
REMARK   26  A    between atoms: S_36  and  O_37
REMARK   27  A    between atoms: C_40  and  O_42
REMARK   28  A    between atoms: C_44  and  C_46
REMARK   29  A    between atoms: C_46  and  C_47
REMARK   30  A    between atoms: C_47  and  C_48
REMARK   31  A    between atoms: C_48  and  C_49
REMARK   32  A    between atoms: C_49  and  C_50
REMARK   33  A    between atoms: C_50  and  C_51
REMARK   34  A    between atoms: C_51  and  C_52
REMARK   35  A    between atoms: C_52  and  C_53
REMARK   36  A    between atoms: C_53  and  C_54
REMARK   37  A    between atoms: C_54  and  C_55
REMARK   38  A    between atoms: C_55  and  C_56
REMARK   39  A    between atoms: C_56  and  C_57
REMARK   40  A    between atoms: C_57  and  C_58
REMARK   41  A    between atoms: C_58  and  C_59
REMARK   42  A    between atoms: C_60  and  C_61
REMARK   43  A    between atoms: C_61  and  C_62
REMARK   44  A    between atoms: C_62  and  C_63
REMARK   45  A    between atoms: C_63  and  C_64
REMARK   46  A    between atoms: C_64  and  C_65
REMARK   47  A    between atoms: C_65  and  C_66
REMARK   48  A    between atoms: C_66  and  C_67
REMARK   49  A    between atoms: C_67  and  C_68
REMARK                            x       y       z     vdW  Elec       q    Type
REMARK                         _______ _______ _______ _____ _____    ______ ____
ROOT
ATOM      1  C   UNL     1       6.933  -4.615  24.536  0.00  0.00    +0.131 C 
ENDROOT
BRANCH   1   2
ATOM      2  N   UNL     1       6.660  -3.298  25.141  0.00  0.00    -0.307 N 
ATOM      3  H   UNL     1       6.102  -2.633  24.624  0.00  0.00    +0.149 HD
ATOM      4  C   UNL     1       7.111  -2.984  26.398  0.00  0.00    +0.213 C 
ATOM      5  O   UNL     1       7.714  -3.774  27.114  0.00  0.00    -0.276 OA
BRANCH   4   6
ATOM      6  C   UNL     1       6.753  -1.578  26.821  0.00  0.00    +0.096 C 
BRANCH   6   7
ATOM      7  C   UNL     1       8.000  -0.710  26.970  0.00  0.00    +0.009 C 
BRANCH   7   8
ATOM      8  C   UNL     1       8.217   0.254  25.810  0.00  0.00    +0.000 C 
BRANCH   8   9
ATOM      9  C   UNL     1       6.923   0.561  25.068  0.00  0.00    +0.000 C 
BRANCH   9  10
ATOM     10  C   UNL     1       6.369   1.910  25.492  0.00  0.00    +0.000 C 
BRANCH  10  11
ATOM     11  C   UNL     1       7.509   2.857  25.828  0.00  0.00    +0.000 C 
BRANCH  11  12
ATOM     12  C   UNL     1       7.120   3.713  27.019  0.00  0.00    -0.000 C 
BRANCH  12  13
ATOM     13  C   UNL     1       6.777   2.837  28.207  0.00  0.00    +0.000 C 
BRANCH  13  14
ATOM     14  C   UNL     1       6.087   3.672  29.274  0.00  0.00    +0.000 C 
BRANCH  14  15
ATOM     15  C   UNL     1       4.925   2.886  29.844  0.00  0.00    +0.000 C 
BRANCH  15  16
ATOM     16  C   UNL     1       4.416   1.852  28.849  0.00  0.00    +0.000 C 
BRANCH  16  17
ATOM     17  C   UNL     1       3.010   2.198  28.366  0.00  0.00    +0.004 C 
BRANCH  17  18
ATOM     18  C   UNL     1       2.914   2.462  26.861  0.00  0.00    +0.027 C 
BRANCH  18  19
ATOM     19  C   UNL     1       3.340   3.860  26.496  0.00  0.00    -0.031 C 
ATOM     20  C   UNL     1       3.522   4.289  25.240  0.00  0.00    -0.031 C 
BRANCH  20  21
ATOM     21  C   UNL     1       3.277   3.408  24.058  0.00  0.00    +0.027 C 
BRANCH  21  22
ATOM     22  C   UNL     1       3.001   4.187  22.787  0.00  0.00    +0.004 C 
BRANCH  22  23
ATOM     23  C   UNL     1       1.496   4.232  22.554  0.00  0.00    +0.000 C 
BRANCH  23  24
ATOM     24  C   UNL     1       0.971   2.852  22.203  0.00  0.00    +0.000 C 
BRANCH  24  25
ATOM     25  C   UNL     1       1.531   2.388  20.864  0.00  0.00    -0.000 C 
BRANCH  25  26
ATOM     26  C   UNL     1       0.909   3.193  19.730  0.00  0.00    -0.000 C 
BRANCH  26  27
ATOM     27  C   UNL     1       1.979   3.870  18.883  0.00  0.00    -0.003 C 
ATOM     28  C   UNL     1       1.718   5.363  18.780  0.00  0.00    +0.004 C 
ENDBRANCH  26  27
ENDBRANCH  25  26
ENDBRANCH  24  25
ENDBRANCH  23  24
ENDBRANCH  22  23
ENDBRANCH  21  22
ENDBRANCH  20  21
ENDBRANCH  18  19
ENDBRANCH  17  18
ENDBRANCH  16  17
ENDBRANCH  15  16
ENDBRANCH  14  15
ENDBRANCH  13  14
ENDBRANCH  12  13
ENDBRANCH  11  12
ENDBRANCH  10  11
ENDBRANCH   9  10
ENDBRANCH   8   9
ENDBRANCH   7   8
ENDBRANCH   6   7
ENDBRANCH   4   6
ENDBRANCH   1   2
BRANCH   1  29
ATOM     29  C   UNL     1       5.755  -5.036  23.638  0.00  0.00    +0.188 C 
BRANCH  29  30
ATOM     30  O   UNL     1       4.712  -5.674  24.382  0.00  0.00    -0.347 OA
BRANCH  30  31
ATOM     31  C   UNL     1       4.567  -5.098  25.688  0.00  0.00    +0.282 C 
ATOM     32  C   UNL     1       3.319  -4.172  25.706  0.00  0.00    +0.204 C 
ATOM     33  C   UNL     1       3.032  -3.680  27.140  0.00  0.00    +0.216 C 
ATOM     34  C   UNL     1       3.010  -4.864  28.117  0.00  0.00    +0.179 C 
ATOM     35  C   UNL     1       4.305  -5.671  27.992  0.00  0.00    +0.178 C 
ATOM     36  O   UNL     1       4.473  -6.142  26.651  0.00  0.00    -0.341 OA
BRANCH  34  37
ATOM     37  O   UNL     1       1.865  -5.667  27.804  0.00  0.00    -0.386 OA
ATOM     38  H   UNL     1       1.513  -6.044  28.627  0.00  0.00    +0.210 HD
ENDBRANCH  34  37
BRANCH  32  39
ATOM     39  O   UNL     1       3.485  -3.030  24.840  0.00  0.00    -0.384 OA
ATOM     40  H   UNL     1       3.960  -2.332  25.318  0.00  0.00    +0.210 HD
ENDBRANCH  32  39
BRANCH  35  41
ATOM     41  C   UNL     1       4.285  -6.904  28.900  0.00  0.00    +0.190 C 
BRANCH  41  42
ATOM     42  O   UNL     1       5.458  -7.684  28.676  0.00  0.00    -0.392 OA
ATOM     43  H   UNL     1       6.184  -7.039  28.567  0.00  0.00    +0.210 HD
ENDBRANCH  41  42
ENDBRANCH  35  41
BRANCH  33  44
ATOM     44  O   UNL     1       1.775  -2.988  27.155  0.00  0.00    -0.207 OA
BRANCH  44  45
ATOM     45  S   UNL     1       1.777  -1.370  27.317  0.00  0.00    +0.208 S 
ATOM     46  O   UNL     1       1.697  -1.052  28.723  0.00  0.00    -0.118 OA
ATOM     47  O   UNL     1       0.841  -0.813  26.364  0.00  0.00    -0.118 OA
BRANCH  45  48
ATOM     48  O   UNL     1       3.229  -0.956  26.779  0.00  0.00    -0.231 OA
ATOM     49  H   UNL     1       3.719  -0.558  27.527  0.00  0.00    +0.247 HD
ENDBRANCH  45  48
ENDBRANCH  44  45
ENDBRANCH  33  44
ENDBRANCH  30  31
ENDBRANCH  29  30
ENDBRANCH   1  29
BRANCH   1  50
ATOM     50  C   UNL     1       8.305  -4.659  23.819  0.00  0.00    +0.159 C 
BRANCH  50  51
ATOM     51  O   UNL     1       9.317  -5.040  24.760  0.00  0.00    -0.386 OA
ATOM     52  H   UNL     1       9.408  -6.007  24.697  0.00  0.00    +0.210 HD
ENDBRANCH  50  51
BRANCH  50  54
ATOM     53  C   UNL     1       9.756  -2.608  23.759  0.00  0.00    -0.028 C 
ATOM     54  C   UNL     1       8.764  -3.350  23.245  0.00  0.00    +0.002 C 
BRANCH  53  55
ATOM     55  C   UNL     1      10.108  -1.251  23.229  0.00  0.00    +0.027 C 
BRANCH  55  56
ATOM     56  C   UNL     1       9.820  -1.145  21.737  0.00  0.00    +0.004 C 
BRANCH  56  57
ATOM     57  C   UNL     1       9.385   0.274  21.381  0.00  0.00    +0.000 C 
BRANCH  57  58
ATOM     58  C   UNL     1       9.809   1.247  22.473  0.00  0.00    +0.000 C 
BRANCH  58  59
ATOM     59  C   UNL     1       8.888   2.460  22.519  0.00  0.00    +0.000 C 
BRANCH  59  60
ATOM     60  C   UNL     1       7.622   2.183  21.718  0.00  0.00    +0.000 C 
BRANCH  60  61
ATOM     61  C   UNL     1       6.510   3.151  22.103  0.00  0.00    -0.000 C 
BRANCH  61  62
ATOM     62  C   UNL     1       7.054   4.569  22.223  0.00  0.00    -0.000 C 
BRANCH  62  63
ATOM     63  C   UNL     1       6.509   5.249  23.473  0.00  0.00    -0.000 C 
BRANCH  63  64
ATOM     64  C   UNL     1       7.470   6.323  23.972  0.00  0.00    -0.000 C 
BRANCH  64  65
ATOM     65  C   UNL     1       8.670   6.447  23.038  0.00  0.00    -0.000 C 
BRANCH  65  67
ATOM     66  C   UNL     1      10.560   5.084  23.973  0.00  0.00    +0.004 C 
ATOM     67  C   UNL     1       9.978   6.480  23.823  0.00  0.00    -0.003 C 
ENDBRANCH  65  67
ENDBRANCH  64  65
ENDBRANCH  63  64
ENDBRANCH  62  63
ENDBRANCH  61  62
ENDBRANCH  60  61
ENDBRANCH  59  60
ENDBRANCH  58  59
ENDBRANCH  57  58
ENDBRANCH  56  57
ENDBRANCH  55  56
ENDBRANCH  53  55
ENDBRANCH  50  54
ENDBRANCH   1  50
TORSDOF 47
ENDMDL
MODEL 6
REMARK VINA RESULT:      -4.0      2.512      6.147
REMARK  Name = 
REMARK  49 active torsions:
REMARK  status: ('A' for Active; 'I' for Inactive)
REMARK    1  A    between atoms: C_1  and  C_2
REMARK    2  A    between atoms: C_2  and  C_3
REMARK    3  A    between atoms: C_3  and  C_4
REMARK    4  A    between atoms: C_4  and  C_5
REMARK    5  A    between atoms: C_5  and  C_6
REMARK    6  A    between atoms: C_6  and  C_7
REMARK    7  A    between atoms: C_7  and  C_8
REMARK    8  A    between atoms: C_8  and  C_9
REMARK    9  A    between atoms: C_9  and  C_10
REMARK   10  A    between atoms: C_10  and  C_11
REMARK   11  A    between atoms: C_11  and  C_12
REMARK   12  A    between atoms: C_12  and  C_13
REMARK   13  A    between atoms: C_13  and  C_14
REMARK   14  A    between atoms: C_15  and  C_16
REMARK   15  A    between atoms: C_16  and  O_18
REMARK   16  A    between atoms: C_16  and  C_19
REMARK   17  A    between atoms: C_19  and  C_21
REMARK   18  A    between atoms: C_19  and  N_43
REMARK   19  A    between atoms: C_21  and  O_22
REMARK   20  A    between atoms: O_22  and  C_23
REMARK   21  A    between atoms: C_26  and  C_28
REMARK   22  A    between atoms: C_28  and  O_29
REMARK   23  A    between atoms: C_30  and  O_32
REMARK   24  A    between atoms: C_33  and  O_35
REMARK   25  A    between atoms: O_35  and  S_36
REMARK   26  A    between atoms: S_36  and  O_37
REMARK   27  A    between atoms: C_40  and  O_42
REMARK   28  A    between atoms: C_44  and  C_46
REMARK   29  A    between atoms: C_46  and  C_47
REMARK   30  A    between atoms: C_47  and  C_48
REMARK   31  A    between atoms: C_48  and  C_49
REMARK   32  A    between atoms: C_49  and  C_50
REMARK   33  A    between atoms: C_50  and  C_51
REMARK   34  A    between atoms: C_51  and  C_52
REMARK   35  A    between atoms: C_52  and  C_53
REMARK   36  A    between atoms: C_53  and  C_54
REMARK   37  A    between atoms: C_54  and  C_55
REMARK   38  A    between atoms: C_55  and  C_56
REMARK   39  A    between atoms: C_56  and  C_57
REMARK   40  A    between atoms: C_57  and  C_58
REMARK   41  A    between atoms: C_58  and  C_59
REMARK   42  A    between atoms: C_60  and  C_61
REMARK   43  A    between atoms: C_61  and  C_62
REMARK   44  A    between atoms: C_62  and  C_63
REMARK   45  A    between atoms: C_63  and  C_64
REMARK   46  A    between atoms: C_64  and  C_65
REMARK   47  A    between atoms: C_65  and  C_66
REMARK   48  A    between atoms: C_66  and  C_67
REMARK   49  A    between atoms: C_67  and  C_68
REMARK                            x       y       z     vdW  Elec       q    Type
REMARK                         _______ _______ _______ _____ _____    ______ ____
ROOT
ATOM      1  C   UNL     1       6.862  -4.706  24.469  0.00  0.00    +0.131 C 
ENDROOT
BRANCH   1   2
ATOM      2  N   UNL     1       6.541  -3.412  25.102  0.00  0.00    -0.307 N 
ATOM      3  H   UNL     1       5.954  -2.759  24.600  0.00  0.00    +0.149 HD
ATOM      4  C   UNL     1       6.987  -3.104  26.362  0.00  0.00    +0.213 C 
ATOM      5  O   UNL     1       7.625  -3.883  27.059  0.00  0.00    -0.276 OA
BRANCH   4   6
ATOM      6  C   UNL     1       6.578  -1.722  26.814  0.00  0.00    +0.096 C 
BRANCH   6   7
ATOM      7  C   UNL     1       7.780  -0.785  26.893  0.00  0.00    +0.009 C 
BRANCH   7   8
ATOM      8  C   UNL     1       7.619   0.488  26.070  0.00  0.00    +0.000 C 
BRANCH   8   9
ATOM      9  C   UNL     1       6.338   0.482  25.246  0.00  0.00    +0.000 C 
BRANCH   9  10
ATOM     10  C   UNL     1       5.523   1.735  25.512  0.00  0.00    +0.000 C 
BRANCH  10  11
ATOM     11  C   UNL     1       6.254   2.629  26.501  0.00  0.00    +0.000 C 
BRANCH  11  12
ATOM     12  C   UNL     1       5.639   4.016  26.477  0.00  0.00    -0.000 C 
BRANCH  12  13
ATOM     13  C   UNL     1       4.127   3.922  26.494  0.00  0.00    +0.000 C 
BRANCH  13  14
ATOM     14  C   UNL     1       3.535   5.279  26.840  0.00  0.00    +0.000 C 
BRANCH  14  15
ATOM     15  C   UNL     1       2.714   5.774  25.667  0.00  0.00    +0.000 C 
BRANCH  15  16
ATOM     16  C   UNL     1       3.493   6.782  24.834  0.00  0.00    +0.000 C 
BRANCH  16  17
ATOM     17  C   UNL     1       2.958   6.848  23.406  0.00  0.00    +0.004 C 
BRANCH  17  18
ATOM     18  C   UNL     1       3.980   6.453  22.337  0.00  0.00    +0.027 C 
BRANCH  18  19
ATOM     19  C   UNL     1       5.127   5.660  22.906  0.00  0.00    -0.031 C 
ATOM     20  C   UNL     1       5.207   4.323  22.881  0.00  0.00    -0.031 C 
BRANCH  20  21
ATOM     21  C   UNL     1       4.154   3.480  22.237  0.00  0.00    +0.027 C 
BRANCH  21  22
ATOM     22  C   UNL     1       3.021   3.126  23.181  0.00  0.00    +0.004 C 
BRANCH  22  23
ATOM     23  C   UNL     1       1.695   3.425  22.492  0.00  0.00    +0.000 C 
BRANCH  23  24
ATOM     24  C   UNL     1       1.891   3.543  20.991  0.00  0.00    +0.000 C 
BRANCH  24  25
ATOM     25  C   UNL     1       1.120   4.736  20.440  0.00  0.00    -0.000 C 
BRANCH  25  26
ATOM     26  C   UNL     1       1.816   5.281  19.199  0.00  0.00    -0.000 C 
BRANCH  26  27
ATOM     27  C   UNL     1       1.544   4.402  17.985  0.00  0.00    -0.003 C 
ATOM     28  C   UNL     1       1.526   5.232  16.713  0.00  0.00    +0.004 C 
ENDBRANCH  26  27
ENDBRANCH  25  26
ENDBRANCH  24  25
ENDBRANCH  23  24
ENDBRANCH  22  23
ENDBRANCH  21  22
ENDBRANCH  20  21
ENDBRANCH  18  19
ENDBRANCH  17  18
ENDBRANCH  16  17
ENDBRANCH  15  16
ENDBRANCH  14  15
ENDBRANCH  13  14
ENDBRANCH  12  13
ENDBRANCH  11  12
ENDBRANCH  10  11
ENDBRANCH   9  10
ENDBRANCH   8   9
ENDBRANCH   7   8
ENDBRANCH   6   7
ENDBRANCH   4   6
ENDBRANCH   1   2
BRANCH   1  29
ATOM     29  C   UNL     1       5.700  -5.151  23.564  0.00  0.00    +0.188 C 
BRANCH  29  30
ATOM     30  O   UNL     1       4.661  -5.805  24.302  0.00  0.00    -0.347 OA
BRANCH  30  31
ATOM     31  C   UNL     1       4.489  -5.220  25.601  0.00  0.00    +0.282 C 
ATOM     32  C   UNL     1       3.222  -4.321  25.596  0.00  0.00    +0.204 C 
ATOM     33  C   UNL     1       2.909  -3.821  27.022  0.00  0.00    +0.216 C 
ATOM     34  C   UNL     1       2.900  -4.997  28.010  0.00  0.00    +0.179 C 
ATOM     35  C   UNL     1       4.213  -5.778  27.907  0.00  0.00    +0.178 C 
ATOM     36  O   UNL     1       4.407  -6.257  26.572  0.00  0.00    -0.341 OA
BRANCH  34  37
ATOM     37  O   UNL     1       1.776  -5.827  27.691  0.00  0.00    -0.386 OA
ATOM     38  H   UNL     1       1.153  -5.315  27.148  0.00  0.00    +0.210 HD
ENDBRANCH  34  37
BRANCH  32  39
ATOM     39  O   UNL     1       3.374  -3.183  24.721  0.00  0.00    -0.384 OA
ATOM     40  H   UNL     1       2.796  -2.465  25.026  0.00  0.00    +0.210 HD
ENDBRANCH  32  39
BRANCH  35  41
ATOM     41  C   UNL     1       4.209  -7.003  28.826  0.00  0.00    +0.190 C 
BRANCH  41  42
ATOM     42  O   UNL     1       5.473  -7.659  28.756  0.00  0.00    -0.392 OA
ATOM     43  H   UNL     1       5.955  -7.221  28.027  0.00  0.00    +0.210 HD
ENDBRANCH  41  42
ENDBRANCH  35  41
BRANCH  33  44
ATOM     44  O   UNL     1       1.637  -3.157  27.016  0.00  0.00    -0.207 OA
BRANCH  44  45
ATOM     45  S   UNL     1       1.599  -1.546  27.237  0.00  0.00    +0.208 S 
ATOM     46  O   UNL     1       1.515  -1.280  28.654  0.00  0.00    -0.118 OA
ATOM     47  O   UNL     1       0.645  -0.979  26.307  0.00  0.00    -0.118 OA
BRANCH  45  48
ATOM     48  O   UNL     1       3.037  -1.076  26.710  0.00  0.00    -0.231 OA
ATOM     49  H   UNL     1       3.360  -0.378  27.315  0.00  0.00    +0.247 HD
ENDBRANCH  45  48
ENDBRANCH  44  45
ENDBRANCH  33  44
ENDBRANCH  30  31
ENDBRANCH  29  30
ENDBRANCH   1  29
BRANCH   1  50
ATOM     50  C   UNL     1       8.234  -4.684  23.752  0.00  0.00    +0.159 C 
BRANCH  50  51
ATOM     51  O   UNL     1       9.243  -5.168  24.647  0.00  0.00    -0.386 OA
ATOM     52  H   UNL     1       8.901  -5.043  25.549  0.00  0.00    +0.210 HD
ENDBRANCH  50  51
BRANCH  50  54
ATOM     53  C   UNL     1       9.677  -2.634  23.925  0.00  0.00    -0.028 C 
ATOM     54  C   UNL     1       8.703  -3.326  23.316  0.00  0.00    +0.002 C 
BRANCH  53  55
ATOM     55  C   UNL     1      10.037  -1.232  23.536  0.00  0.00    +0.027 C 
BRANCH  55  56
ATOM     56  C   UNL     1       8.921  -0.575  22.734  0.00  0.00    +0.004 C 
BRANCH  56  57
ATOM     57  C   UNL     1       9.502   0.193  21.548  0.00  0.00    +0.000 C 
BRANCH  57  58
ATOM     58  C   UNL     1       9.837   1.621  21.956  0.00  0.00    +0.000 C 
BRANCH  58  59
ATOM     59  C   UNL     1       8.609   2.341  22.500  0.00  0.00    +0.000 C 
BRANCH  59  60
ATOM     60  C   UNL     1       8.926   2.959  23.856  0.00  0.00    +0.000 C 
BRANCH  60  61
ATOM     61  C   UNL     1       8.564   4.438  23.880  0.00  0.00    -0.000 C 
BRANCH  61  62
ATOM     62  C   UNL     1       8.859   5.038  25.249  0.00  0.00    -0.000 C 
BRANCH  62  63
ATOM     63  C   UNL     1       9.701   6.300  25.113  0.00  0.00    -0.000 C 
BRANCH  63  64
ATOM     64  C   UNL     1      10.511   6.278  23.822  0.00  0.00    -0.000 C 
BRANCH  64  65
ATOM     65  C   UNL     1      11.978   5.970  24.112  0.00  0.00    -0.000 C 
BRANCH  65  67
ATOM     66  C   UNL     1      13.363   5.615  22.048  0.00  0.00    +0.004 C 
ATOM     67  C   UNL     1      12.530   4.943  23.127  0.00  0.00    -0.003 C 
ENDBRANCH  65  67
ENDBRANCH  64  65
ENDBRANCH  63  64
ENDBRANCH  62  63
ENDBRANCH  61  62
ENDBRANCH  60  61
ENDBRANCH  59  60
ENDBRANCH  58  59
ENDBRANCH  57  58
ENDBRANCH  56  57
ENDBRANCH  55  56
ENDBRANCH  53  55
ENDBRANCH  50  54
ENDBRANCH   1  50
TORSDOF 47
ENDMDL
MODEL 7
REMARK VINA RESULT:      -4.0      2.038      3.674
REMARK  Name = 
REMARK  49 active torsions:
REMARK  status: ('A' for Active; 'I' for Inactive)
REMARK    1  A    between atoms: C_1  and  C_2
REMARK    2  A    between atoms: C_2  and  C_3
REMARK    3  A    between atoms: C_3  and  C_4
REMARK    4  A    between atoms: C_4  and  C_5
REMARK    5  A    between atoms: C_5  and  C_6
REMARK    6  A    between atoms: C_6  and  C_7
REMARK    7  A    between atoms: C_7  and  C_8
REMARK    8  A    between atoms: C_8  and  C_9
REMARK    9  A    between atoms: C_9  and  C_10
REMARK   10  A    between atoms: C_10  and  C_11
REMARK   11  A    between atoms: C_11  and  C_12
REMARK   12  A    between atoms: C_12  and  C_13
REMARK   13  A    between atoms: C_13  and  C_14
REMARK   14  A    between atoms: C_15  and  C_16
REMARK   15  A    between atoms: C_16  and  O_18
REMARK   16  A    between atoms: C_16  and  C_19
REMARK   17  A    between atoms: C_19  and  C_21
REMARK   18  A    between atoms: C_19  and  N_43
REMARK   19  A    between atoms: C_21  and  O_22
REMARK   20  A    between atoms: O_22  and  C_23
REMARK   21  A    between atoms: C_26  and  C_28
REMARK   22  A    between atoms: C_28  and  O_29
REMARK   23  A    between atoms: C_30  and  O_32
REMARK   24  A    between atoms: C_33  and  O_35
REMARK   25  A    between atoms: O_35  and  S_36
REMARK   26  A    between atoms: S_36  and  O_37
REMARK   27  A    between atoms: C_40  and  O_42
REMARK   28  A    between atoms: C_44  and  C_46
REMARK   29  A    between atoms: C_46  and  C_47
REMARK   30  A    between atoms: C_47  and  C_48
REMARK   31  A    between atoms: C_48  and  C_49
REMARK   32  A    between atoms: C_49  and  C_50
REMARK   33  A    between atoms: C_50  and  C_51
REMARK   34  A    between atoms: C_51  and  C_52
REMARK   35  A    between atoms: C_52  and  C_53
REMARK   36  A    between atoms: C_53  and  C_54
REMARK   37  A    between atoms: C_54  and  C_55
REMARK   38  A    between atoms: C_55  and  C_56
REMARK   39  A    between atoms: C_56  and  C_57
REMARK   40  A    between atoms: C_57  and  C_58
REMARK   41  A    between atoms: C_58  and  C_59
REMARK   42  A    between atoms: C_60  and  C_61
REMARK   43  A    between atoms: C_61  and  C_62
REMARK   44  A    between atoms: C_62  and  C_63
REMARK   45  A    between atoms: C_63  and  C_64
REMARK   46  A    between atoms: C_64  and  C_65
REMARK   47  A    between atoms: C_65  and  C_66
REMARK   48  A    between atoms: C_66  and  C_67
REMARK   49  A    between atoms: C_67  and  C_68
REMARK                            x       y       z     vdW  Elec       q    Type
REMARK                         _______ _______ _______ _____ _____    ______ ____
ROOT
ATOM      1  C   UNL     1       7.139   0.394  27.451  0.00  0.00    +0.131 C 
ENDROOT
BRANCH   1   2
ATOM      2  N   UNL     1       7.180   1.556  26.543  0.00  0.00    -0.307 N 
ATOM      3  H   UNL     1       7.130   1.394  25.546  0.00  0.00    +0.149 HD
ATOM      4  C   UNL     1       7.240   2.838  27.027  0.00  0.00    +0.213 C 
ATOM      5  O   UNL     1       7.212   3.109  28.221  0.00  0.00    -0.276 OA
BRANCH   4   6
ATOM      6  C   UNL     1       7.305   3.880  25.935  0.00  0.00    +0.096 C 
BRANCH   6   7
ATOM      7  C   UNL     1       7.424   5.286  26.517  0.00  0.00    +0.009 C 
BRANCH   7   8
ATOM      8  C   UNL     1       7.707   6.359  25.473  0.00  0.00    +0.000 C 
BRANCH   8   9
ATOM      9  C   UNL     1       6.429   6.938  24.881  0.00  0.00    +0.000 C 
BRANCH   9  10
ATOM     10  C   UNL     1       5.299   6.889  25.893  0.00  0.00    +0.000 C 
BRANCH  10  11
ATOM     11  C   UNL     1       4.058   6.283  25.257  0.00  0.00    +0.000 C 
BRANCH  11  12
ATOM     12  C   UNL     1       3.694   5.001  25.982  0.00  0.00    -0.000 C 
BRANCH  12  13
ATOM     13  C   UNL     1       2.342   4.498  25.517  0.00  0.00    +0.000 C 
BRANCH  13  14
ATOM     14  C   UNL     1       1.986   5.145  24.189  0.00  0.00    +0.000 C 
BRANCH  14  15
ATOM     15  C   UNL     1       1.296   4.123  23.310  0.00  0.00    +0.000 C 
BRANCH  15  16
ATOM     16  C   UNL     1       2.305   3.212  22.624  0.00  0.00    +0.000 C 
BRANCH  16  17
ATOM     17  C   UNL     1       3.556   3.985  22.213  0.00  0.00    +0.004 C 
BRANCH  17  18
ATOM     18  C   UNL     1       4.863   3.368  22.715  0.00  0.00    +0.027 C 
BRANCH  18  19
ATOM     19  C   UNL     1       6.044   4.280  22.511  0.00  0.00    -0.031 C 
ATOM     20  C   UNL     1       7.279   3.859  22.205  0.00  0.00    -0.031 C 
BRANCH  20  21
ATOM     21  C   UNL     1       7.594   2.413  21.998  0.00  0.00    +0.027 C 
BRANCH  21  22
ATOM     22  C   UNL     1       9.080   2.118  22.048  0.00  0.00    +0.004 C 
BRANCH  22  23
ATOM     23  C   UNL     1       9.592   2.399  23.455  0.00  0.00    +0.000 C 
BRANCH  23  24
ATOM     24  C   UNL     1      10.774   3.351  23.411  0.00  0.00    +0.000 C 
BRANCH  24  25
ATOM     25  C   UNL     1      10.372   4.730  23.918  0.00  0.00    -0.000 C 
BRANCH  25  26
ATOM     26  C   UNL     1      11.492   5.730  23.657  0.00  0.00    -0.000 C 
BRANCH  26  27
ATOM     27  C   UNL     1      12.781   5.022  23.259  0.00  0.00    -0.003 C 
ATOM     28  C   UNL     1      13.381   5.657  22.017  0.00  0.00    +0.004 C 
ENDBRANCH  26  27
ENDBRANCH  25  26
ENDBRANCH  24  25
ENDBRANCH  23  24
ENDBRANCH  22  23
ENDBRANCH  21  22
ENDBRANCH  20  21
ENDBRANCH  18  19
ENDBRANCH  17  18
ENDBRANCH  16  17
ENDBRANCH  15  16
ENDBRANCH  14  15
ENDBRANCH  13  14
ENDBRANCH  12  13
ENDBRANCH  11  12
ENDBRANCH  10  11
ENDBRANCH   9  10
ENDBRANCH   8   9
ENDBRANCH   7   8
ENDBRANCH   6   7
ENDBRANCH   4   6
ENDBRANCH   1   2
BRANCH   1  29
ATOM     29  C   UNL     1       5.693  -0.109  27.598  0.00  0.00    +0.188 C 
BRANCH  29  30
ATOM     30  O   UNL     1       5.257  -0.840  26.447  0.00  0.00    -0.347 OA
BRANCH  30  31
ATOM     31  C   UNL     1       4.478  -1.988  26.815  0.00  0.00    +0.282 C 
ATOM     32  C   UNL     1       5.405  -3.048  27.472  0.00  0.00    +0.204 C 
ATOM     33  C   UNL     1       4.572  -4.216  28.040  0.00  0.00    +0.216 C 
ATOM     34  C   UNL     1       3.429  -3.681  28.915  0.00  0.00    +0.179 C 
ATOM     35  C   UNL     1       2.601  -2.660  28.130  0.00  0.00    +0.178 C 
ATOM     36  O   UNL     1       3.429  -1.581  27.685  0.00  0.00    -0.341 OA
BRANCH  34  37
ATOM     37  O   UNL     1       4.013  -3.088  30.082  0.00  0.00    -0.386 OA
ATOM     38  H   UNL     1       3.363  -3.112  30.804  0.00  0.00    +0.210 HD
ENDBRANCH  34  37
BRANCH  32  39
ATOM     39  O   UNL     1       6.372  -3.570  26.536  0.00  0.00    -0.384 OA
ATOM     40  H   UNL     1       6.149  -4.492  26.328  0.00  0.00    +0.210 HD
ENDBRANCH  32  39
BRANCH  35  41
ATOM     41  C   UNL     1       1.496  -2.051  28.997  0.00  0.00    +0.190 C 
BRANCH  41  42
ATOM     42  O   UNL     1       0.633  -1.256  28.186  0.00  0.00    -0.392 OA
ATOM     43  H   UNL     1       0.886  -0.329  28.364  0.00  0.00    +0.210 HD
ENDBRANCH  41  42
ENDBRANCH  35  41
BRANCH  33  44
ATOM     44  O   UNL     1       5.431  -5.077  28.801  0.00  0.00    -0.207 OA
BRANCH  44  45
ATOM     45  S   UNL     1       6.071  -6.382  28.072  0.00  0.00    +0.208 S 
ATOM     46  O   UNL     1       5.479  -6.509  26.761  0.00  0.00    -0.118 OA
ATOM     47  O   UNL     1       6.063  -7.482  29.012  0.00  0.00    -0.118 OA
BRANCH  45  48
ATOM     48  O   UNL     1       7.613  -5.979  27.902  0.00  0.00    -0.231 OA
ATOM     49  H   UNL     1       7.755  -5.141  28.388  0.00  0.00    +0.247 HD
ENDBRANCH  45  48
ENDBRANCH  44  45
ENDBRANCH  33  44
ENDBRANCH  30  31
ENDBRANCH  29  30
ENDBRANCH   1  29
BRANCH   1  50
ATOM     50  C   UNL     1       8.142  -0.711  27.036  0.00  0.00    +0.159 C 
BRANCH  50  51
ATOM     51  O   UNL     1       9.417  -0.440  27.631  0.00  0.00    -0.386 OA
ATOM     52  H   UNL     1       9.402  -0.835  28.519  0.00  0.00    +0.210 HD
ENDBRANCH  50  51
BRANCH  50  54
ATOM     53  C   UNL     1       9.529  -1.302  25.026  0.00  0.00    -0.028 C 
ATOM     54  C   UNL     1       8.401  -0.812  25.560  0.00  0.00    +0.002 C 
BRANCH  53  55
ATOM     55  C   UNL     1       9.801  -1.279  23.553  0.00  0.00    +0.027 C 
BRANCH  55  56
ATOM     56  C   UNL     1       8.511  -1.172  22.750  0.00  0.00    +0.004 C 
BRANCH  56  57
ATOM     57  C   UNL     1       8.105  -2.544  22.215  0.00  0.00    +0.000 C 
BRANCH  57  58
ATOM     58  C   UNL     1       7.033  -3.162  23.102  0.00  0.00    +0.000 C 
BRANCH  58  59
ATOM     59  C   UNL     1       7.331  -4.629  23.386  0.00  0.00    +0.000 C 
BRANCH  59  60
ATOM     60  C   UNL     1       7.262  -5.434  22.094  0.00  0.00    +0.000 C 
BRANCH  60  61
ATOM     61  C   UNL     1       5.924  -6.151  21.969  0.00  0.00    -0.000 C 
BRANCH  61  62
ATOM     62  C   UNL     1       5.133  -6.037  23.266  0.00  0.00    -0.000 C 
BRANCH  62  63
ATOM     63  C   UNL     1       3.654  -5.819  22.976  0.00  0.00    -0.000 C 
BRANCH  63  64
ATOM     64  C   UNL     1       2.957  -5.159  24.160  0.00  0.00    -0.000 C 
BRANCH  64  65
ATOM     65  C   UNL     1       1.479  -5.541  24.196  0.00  0.00    -0.000 C 
BRANCH  65  67
ATOM     66  C   UNL     1       1.993  -6.302  26.532  0.00  0.00    +0.004 C 
ATOM     67  C   UNL     1       0.969  -5.632  25.631  0.00  0.00    -0.003 C 
ENDBRANCH  65  67
ENDBRANCH  64  65
ENDBRANCH  63  64
ENDBRANCH  62  63
ENDBRANCH  61  62
ENDBRANCH  60  61
ENDBRANCH  59  60
ENDBRANCH  58  59
ENDBRANCH  57  58
ENDBRANCH  56  57
ENDBRANCH  55  56
ENDBRANCH  53  55
ENDBRANCH  50  54
ENDBRANCH   1  50
TORSDOF 47
ENDMDL
MODEL 8
REMARK VINA RESULT:      -3.9      2.105      5.765
REMARK  Name = 
REMARK  49 active torsions:
REMARK  status: ('A' for Active; 'I' for Inactive)
REMARK    1  A    between atoms: C_1  and  C_2
REMARK    2  A    between atoms: C_2  and  C_3
REMARK    3  A    between atoms: C_3  and  C_4
REMARK    4  A    between atoms: C_4  and  C_5
REMARK    5  A    between atoms: C_5  and  C_6
REMARK    6  A    between atoms: C_6  and  C_7
REMARK    7  A    between atoms: C_7  and  C_8
REMARK    8  A    between atoms: C_8  and  C_9
REMARK    9  A    between atoms: C_9  and  C_10
REMARK   10  A    between atoms: C_10  and  C_11
REMARK   11  A    between atoms: C_11  and  C_12
REMARK   12  A    between atoms: C_12  and  C_13
REMARK   13  A    between atoms: C_13  and  C_14
REMARK   14  A    between atoms: C_15  and  C_16
REMARK   15  A    between atoms: C_16  and  O_18
REMARK   16  A    between atoms: C_16  and  C_19
REMARK   17  A    between atoms: C_19  and  C_21
REMARK   18  A    between atoms: C_19  and  N_43
REMARK   19  A    between atoms: C_21  and  O_22
REMARK   20  A    between atoms: O_22  and  C_23
REMARK   21  A    between atoms: C_26  and  C_28
REMARK   22  A    between atoms: C_28  and  O_29
REMARK   23  A    between atoms: C_30  and  O_32
REMARK   24  A    between atoms: C_33  and  O_35
REMARK   25  A    between atoms: O_35  and  S_36
REMARK   26  A    between atoms: S_36  and  O_37
REMARK   27  A    between atoms: C_40  and  O_42
REMARK   28  A    between atoms: C_44  and  C_46
REMARK   29  A    between atoms: C_46  and  C_47
REMARK   30  A    between atoms: C_47  and  C_48
REMARK   31  A    between atoms: C_48  and  C_49
REMARK   32  A    between atoms: C_49  and  C_50
REMARK   33  A    between atoms: C_50  and  C_51
REMARK   34  A    between atoms: C_51  and  C_52
REMARK   35  A    between atoms: C_52  and  C_53
REMARK   36  A    between atoms: C_53  and  C_54
REMARK   37  A    between atoms: C_54  and  C_55
REMARK   38  A    between atoms: C_55  and  C_56
REMARK   39  A    between atoms: C_56  and  C_57
REMARK   40  A    between atoms: C_57  and  C_58
REMARK   41  A    between atoms: C_58  and  C_59
REMARK   42  A    between atoms: C_60  and  C_61
REMARK   43  A    between atoms: C_61  and  C_62
REMARK   44  A    between atoms: C_62  and  C_63
REMARK   45  A    between atoms: C_63  and  C_64
REMARK   46  A    between atoms: C_64  and  C_65
REMARK   47  A    between atoms: C_65  and  C_66
REMARK   48  A    between atoms: C_66  and  C_67
REMARK   49  A    between atoms: C_67  and  C_68
REMARK                            x       y       z     vdW  Elec       q    Type
REMARK                         _______ _______ _______ _____ _____    ______ ____
ROOT
ATOM      1  C   UNL     1       6.878  -4.464  24.616  0.00  0.00    +0.131 C 
ENDROOT
BRANCH   1   2
ATOM      2  N   UNL     1       6.747  -3.168  25.309  0.00  0.00    -0.307 N 
ATOM      3  H   UNL     1       6.168  -2.451  24.891  0.00  0.00    +0.149 HD
ATOM      4  C   UNL     1       7.355  -2.940  26.517  0.00  0.00    +0.213 C 
ATOM      5  O   UNL     1       7.994  -3.793  27.120  0.00  0.00    -0.276 OA
BRANCH   4   6
ATOM      6  C   UNL     1       7.123  -1.543  27.043  0.00  0.00    +0.096 C 
BRANCH   6   7
ATOM      7  C   UNL     1       8.270  -0.610  26.662  0.00  0.00    +0.009 C 
BRANCH   7   8
ATOM      8  C   UNL     1       7.886   0.440  25.626  0.00  0.00    +0.000 C 
BRANCH   8   9
ATOM      9  C   UNL     1       6.401   0.776  25.670  0.00  0.00    +0.000 C 
BRANCH   9  10
ATOM     10  C   UNL     1       6.191   2.238  26.020  0.00  0.00    +0.000 C 
BRANCH  10  11
ATOM     11  C   UNL     1       7.533   2.946  26.117  0.00  0.00    +0.000 C 
BRANCH  11  12
ATOM     12  C   UNL     1       7.313   4.393  26.516  0.00  0.00    -0.000 C 
BRANCH  12  13
ATOM     13  C   UNL     1       5.931   4.851  26.096  0.00  0.00    +0.000 C 
BRANCH  13  14
ATOM     14  C   UNL     1       5.572   6.132  26.831  0.00  0.00    +0.000 C 
BRANCH  14  15
ATOM     15  C   UNL     1       4.295   6.697  26.245  0.00  0.00    +0.000 C 
BRANCH  15  16
ATOM     16  C   UNL     1       4.117   6.273  24.794  0.00  0.00    +0.000 C 
BRANCH  16  17
ATOM     17  C   UNL     1       2.673   6.466  24.336  0.00  0.00    +0.004 C 
BRANCH  17  18
ATOM     18  C   UNL     1       1.928   5.159  24.055  0.00  0.00    +0.027 C 
BRANCH  18  19
ATOM     19  C   UNL     1       2.854   3.974  23.984  0.00  0.00    -0.031 C 
ATOM     20  C   UNL     1       2.919   3.011  24.914  0.00  0.00    -0.031 C 
BRANCH  20  21
ATOM     21  C   UNL     1       2.031   3.008  26.115  0.00  0.00    +0.027 C 
BRANCH  21  22
ATOM     22  C   UNL     1       2.794   2.837  27.414  0.00  0.00    +0.004 C 
BRANCH  22  23
ATOM     23  C   UNL     1       2.621   4.094  28.258  0.00  0.00    +0.000 C 
BRANCH  23  24
ATOM     24  C   UNL     1       3.569   4.073  29.444  0.00  0.00    +0.000 C 
BRANCH  24  25
ATOM     25  C   UNL     1       4.821   3.268  29.116  0.00  0.00    -0.000 C 
BRANCH  25  26
ATOM     26  C   UNL     1       5.918   3.572  30.129  0.00  0.00    -0.000 C 
BRANCH  26  27
ATOM     27  C   UNL     1       7.187   2.789  29.818  0.00  0.00    -0.003 C 
ATOM     28  C   UNL     1       6.875   1.315  29.624  0.00  0.00    +0.004 C 
ENDBRANCH  26  27
ENDBRANCH  25  26
ENDBRANCH  24  25
ENDBRANCH  23  24
ENDBRANCH  22  23
ENDBRANCH  21  22
ENDBRANCH  20  21
ENDBRANCH  18  19
ENDBRANCH  17  18
ENDBRANCH  16  17
ENDBRANCH  15  16
ENDBRANCH  14  15
ENDBRANCH  13  14
ENDBRANCH  12  13
ENDBRANCH  11  12
ENDBRANCH  10  11
ENDBRANCH   9  10
ENDBRANCH   8   9
ENDBRANCH   7   8
ENDBRANCH   6   7
ENDBRANCH   4   6
ENDBRANCH   1   2
BRANCH   1  29
ATOM     29  C   UNL     1       5.580  -4.788  23.855  0.00  0.00    +0.188 C 
BRANCH  29  30
ATOM     30  O   UNL     1       4.599  -5.400  24.698  0.00  0.00    -0.347 OA
BRANCH  30  31
ATOM     31  C   UNL     1       4.549  -4.776  25.989  0.00  0.00    +0.282 C 
ATOM     32  C   UNL     1       3.190  -4.040  26.152  0.00  0.00    +0.204 C 
ATOM     33  C   UNL     1       3.032  -3.511  27.592  0.00  0.00    +0.216 C 
ATOM     34  C   UNL     1       3.322  -4.628  28.606  0.00  0.00    +0.179 C 
ATOM     35  C   UNL     1       4.695  -5.246  28.327  0.00  0.00    +0.178 C 
ATOM     36  O   UNL     1       4.747  -5.765  26.993  0.00  0.00    -0.341 OA
BRANCH  34  37
ATOM     37  O   UNL     1       2.279  -5.604  28.491  0.00  0.00    -0.386 OA
ATOM     38  H   UNL     1       2.026  -5.898  29.382  0.00  0.00    +0.210 HD
ENDBRANCH  34  37
BRANCH  32  39
ATOM     39  O   UNL     1       3.062  -2.938  25.229  0.00  0.00    -0.384 OA
ATOM     40  H   UNL     1       2.858  -3.283  24.345  0.00  0.00    +0.210 HD
ENDBRANCH  32  39
BRANCH  35  41
ATOM     41  C   UNL     1       4.985  -6.414  29.273  0.00  0.00    +0.190 C 
BRANCH  41  42
ATOM     42  O   UNL     1       5.294  -7.581  28.514  0.00  0.00    -0.392 OA
ATOM     43  H   UNL     1       5.680  -8.214  29.151  0.00  0.00    +0.210 HD
ENDBRANCH  41  42
ENDBRANCH  35  41
BRANCH  33  44
ATOM     44  O   UNL     1       1.698  -3.009  27.763  0.00  0.00    -0.207 OA
BRANCH  44  45
ATOM     45  S   UNL     1       1.488  -1.407  27.948  0.00  0.00    +0.208 S 
ATOM     46  O   UNL     1       0.640  -1.187  29.097  0.00  0.00    -0.118 OA
ATOM     47  O   UNL     1       1.170  -0.834  26.657  0.00  0.00    -0.118 OA
BRANCH  45  48
ATOM     48  O   UNL     1       2.964  -0.887  28.292  0.00  0.00    -0.231 OA
ATOM     49  H   UNL     1       3.024  -0.792  29.265  0.00  0.00    +0.247 HD
ENDBRANCH  45  48
ENDBRANCH  44  45
ENDBRANCH  33  44
ENDBRANCH  30  31
ENDBRANCH  29  30
ENDBRANCH   1  29
BRANCH   1  50
ATOM     50  C   UNL     1       8.148  -4.530  23.733  0.00  0.00    +0.159 C 
BRANCH  50  51
ATOM     51  O   UNL     1       9.226  -5.088  24.497  0.00  0.00    -0.386 OA
ATOM     52  H   UNL     1       8.876  -5.881  24.937  0.00  0.00    +0.210 HD
ENDBRANCH  50  51
BRANCH  50  54
ATOM     53  C   UNL     1       9.749  -2.593  23.706  0.00  0.00    -0.028 C 
ATOM     54  C   UNL     1       8.650  -3.204  23.239  0.00  0.00    +0.002 C 
BRANCH  53  55
ATOM     55  C   UNL     1      10.153  -1.217  23.274  0.00  0.00    +0.027 C 
BRANCH  55  56
ATOM     56  C   UNL     1       9.683  -0.919  21.856  0.00  0.00    +0.004 C 
BRANCH  56  57
ATOM     57  C   UNL     1       9.742   0.582  21.582  0.00  0.00    +0.000 C 
BRANCH  57  58
ATOM     58  C   UNL     1      10.135   1.334  22.846  0.00  0.00    +0.000 C 
BRANCH  58  59
ATOM     59  C   UNL     1       9.191   2.501  23.108  0.00  0.00    +0.000 C 
BRANCH  59  60
ATOM     60  C   UNL     1       8.222   2.660  21.943  0.00  0.00    +0.000 C 
BRANCH  60  61
ATOM     61  C   UNL     1       6.778   2.596  22.421  0.00  0.00    -0.000 C 
BRANCH  61  62
ATOM     62  C   UNL     1       6.243   3.997  22.694  0.00  0.00    -0.000 C 
BRANCH  62  63
ATOM     63  C   UNL     1       7.099   5.045  21.995  0.00  0.00    -0.000 C 
BRANCH  63  64
ATOM     64  C   UNL     1       7.314   6.259  22.891  0.00  0.00    -0.000 C 
BRANCH  64  65
ATOM     65  C   UNL     1       8.786   6.390  23.276  0.00  0.00    -0.000 C 
BRANCH  65  67
ATOM     66  C   UNL     1      10.109   6.535  25.404  0.00  0.00    +0.004 C 
ATOM     67  C   UNL     1       8.943   7.105  24.614  0.00  0.00    -0.003 C 
ENDBRANCH  65  67
ENDBRANCH  64  65
ENDBRANCH  63  64
ENDBRANCH  62  63
ENDBRANCH  61  62
ENDBRANCH  60  61
ENDBRANCH  59  60
ENDBRANCH  58  59
ENDBRANCH  57  58
ENDBRANCH  56  57
ENDBRANCH  55  56
ENDBRANCH  53  55
ENDBRANCH  50  54
ENDBRANCH   1  50
TORSDOF 47
ENDMDL
MODEL 9
REMARK VINA RESULT:      -3.9      2.810      7.215
REMARK  Name = 
REMARK  49 active torsions:
REMARK  status: ('A' for Active; 'I' for Inactive)
REMARK    1  A    between atoms: C_1  and  C_2
REMARK    2  A    between atoms: C_2  and  C_3
REMARK    3  A    between atoms: C_3  and  C_4
REMARK    4  A    between atoms: C_4  and  C_5
REMARK    5  A    between atoms: C_5  and  C_6
REMARK    6  A    between atoms: C_6  and  C_7
REMARK    7  A    between atoms: C_7  and  C_8
REMARK    8  A    between atoms: C_8  and  C_9
REMARK    9  A    between atoms: C_9  and  C_10
REMARK   10  A    between atoms: C_10  and  C_11
REMARK   11  A    between atoms: C_11  and  C_12
REMARK   12  A    between atoms: C_12  and  C_13
REMARK   13  A    between atoms: C_13  and  C_14
REMARK   14  A    between atoms: C_15  and  C_16
REMARK   15  A    between atoms: C_16  and  O_18
REMARK   16  A    between atoms: C_16  and  C_19
REMARK   17  A    between atoms: C_19  and  C_21
REMARK   18  A    between atoms: C_19  and  N_43
REMARK   19  A    between atoms: C_21  and  O_22
REMARK   20  A    between atoms: O_22  and  C_23
REMARK   21  A    between atoms: C_26  and  C_28
REMARK   22  A    between atoms: C_28  and  O_29
REMARK   23  A    between atoms: C_30  and  O_32
REMARK   24  A    between atoms: C_33  and  O_35
REMARK   25  A    between atoms: O_35  and  S_36
REMARK   26  A    between atoms: S_36  and  O_37
REMARK   27  A    between atoms: C_40  and  O_42
REMARK   28  A    between atoms: C_44  and  C_46
REMARK   29  A    between atoms: C_46  and  C_47
REMARK   30  A    between atoms: C_47  and  C_48
REMARK   31  A    between atoms: C_48  and  C_49
REMARK   32  A    between atoms: C_49  and  C_50
REMARK   33  A    between atoms: C_50  and  C_51
REMARK   34  A    between atoms: C_51  and  C_52
REMARK   35  A    between atoms: C_52  and  C_53
REMARK   36  A    between atoms: C_53  and  C_54
REMARK   37  A    between atoms: C_54  and  C_55
REMARK   38  A    between atoms: C_55  and  C_56
REMARK   39  A    between atoms: C_56  and  C_57
REMARK   40  A    between atoms: C_57  and  C_58
REMARK   41  A    between atoms: C_58  and  C_59
REMARK   42  A    between atoms: C_60  and  C_61
REMARK   43  A    between atoms: C_61  and  C_62
REMARK   44  A    between atoms: C_62  and  C_63
REMARK   45  A    between atoms: C_63  and  C_64
REMARK   46  A    between atoms: C_64  and  C_65
REMARK   47  A    between atoms: C_65  and  C_66
REMARK   48  A    between atoms: C_66  and  C_67
REMARK   49  A    between atoms: C_67  and  C_68
REMARK                            x       y       z     vdW  Elec       q    Type
REMARK                         _______ _______ _______ _____ _____    ______ ____
ROOT
ATOM      1  C   UNL     1       8.457   1.113  22.172  0.00  0.00    +0.131 C 
ENDROOT
BRANCH   1   2
ATOM      2  N   UNL     1       9.701   1.866  22.421  0.00  0.00    -0.307 N 
ATOM      3  H   UNL     1      10.114   2.387  21.658  0.00  0.00    +0.149 HD
ATOM      4  C   UNL     1      10.275   1.904  23.666  0.00  0.00    +0.213 C 
ATOM      5  O   UNL     1       9.780   1.371  24.652  0.00  0.00    -0.276 OA
BRANCH   4   6
ATOM      6  C   UNL     1      11.558   2.701  23.703  0.00  0.00    +0.096 C 
BRANCH   6   7
ATOM      7  C   UNL     1      11.326   4.145  23.265  0.00  0.00    +0.009 C 
BRANCH   7   8
ATOM      8  C   UNL     1      10.251   4.864  24.071  0.00  0.00    +0.000 C 
BRANCH   8   9
ATOM      9  C   UNL     1      10.177   6.348  23.735  0.00  0.00    +0.000 C 
BRANCH   9  10
ATOM     10  C   UNL     1       9.315   7.085  24.744  0.00  0.00    +0.000 C 
BRANCH  10  11
ATOM     11  C   UNL     1       9.044   6.192  25.945  0.00  0.00    +0.000 C 
BRANCH  11  12
ATOM     12  C   UNL     1       7.837   6.715  26.701  0.00  0.00    -0.000 C 
BRANCH  12  13
ATOM     13  C   UNL     1       7.029   5.564  27.266  0.00  0.00    +0.000 C 
BRANCH  13  14
ATOM     14  C   UNL     1       7.481   4.261  26.626  0.00  0.00    +0.000 C 
BRANCH  14  15
ATOM     15  C   UNL     1       6.983   3.101  27.462  0.00  0.00    +0.000 C 
BRANCH  15  16
ATOM     16  C   UNL     1       6.829   1.841  26.622  0.00  0.00    +0.000 C 
BRANCH  16  17
ATOM     17  C   UNL     1       5.455   1.207  26.827  0.00  0.00    +0.004 C 
BRANCH  17  18
ATOM     18  C   UNL     1       5.471  -0.048  27.703  0.00  0.00    +0.027 C 
BRANCH  18  19
ATOM     19  C   UNL     1       4.817   0.178  29.041  0.00  0.00    -0.031 C 
ATOM     20  C   UNL     1       3.518  -0.035  29.291  0.00  0.00    -0.031 C 
BRANCH  20  21
ATOM     21  C   UNL     1       2.587  -0.563  28.248  0.00  0.00    +0.027 C 
BRANCH  21  22
ATOM     22  C   UNL     1       1.798   0.529  27.552  0.00  0.00    +0.004 C 
BRANCH  22  23
ATOM     23  C   UNL     1       1.353   1.553  28.589  0.00  0.00    +0.000 C 
BRANCH  23  24
ATOM     24  C   UNL     1       1.495   2.962  28.039  0.00  0.00    +0.000 C 
BRANCH  24  25
ATOM     25  C   UNL     1       2.963   3.359  27.951  0.00  0.00    -0.000 C 
BRANCH  25  26
ATOM     26  C   UNL     1       3.253   4.505  28.912  0.00  0.00    -0.000 C 
BRANCH  26  27
ATOM     27  C   UNL     1       3.511   3.990  30.322  0.00  0.00    -0.003 C 
ATOM     28  C   UNL     1       4.951   3.528  30.471  0.00  0.00    +0.004 C 
ENDBRANCH  26  27
ENDBRANCH  25  26
ENDBRANCH  24  25
ENDBRANCH  23  24
ENDBRANCH  22  23
ENDBRANCH  21  22
ENDBRANCH  20  21
ENDBRANCH  18  19
ENDBRANCH  17  18
ENDBRANCH  16  17
ENDBRANCH  15  16
ENDBRANCH  14  15
ENDBRANCH  13  14
ENDBRANCH  12  13
ENDBRANCH  11  12
ENDBRANCH  10  11
ENDBRANCH   9  10
ENDBRANCH   8   9
ENDBRANCH   7   8
ENDBRANCH   6   7
ENDBRANCH   4   6
ENDBRANCH   1   2
BRANCH   1  29
ATOM     29  C   UNL     1       8.695  -0.389  22.406  0.00  0.00    +0.188 C 
BRANCH  29  30
ATOM     30  O   UNL     1       7.471  -1.104  22.605  0.00  0.00    -0.347 OA
BRANCH  30  31
ATOM     31  C   UNL     1       7.708  -2.423  23.118  0.00  0.00    +0.282 C 
ATOM     32  C   UNL     1       7.034  -2.561  24.511  0.00  0.00    +0.204 C 
ATOM     33  C   UNL     1       7.116  -4.019  25.008  0.00  0.00    +0.216 C 
ATOM     34  C   UNL     1       6.624  -4.984  23.920  0.00  0.00    +0.179 C 
ATOM     35  C   UNL     1       7.386  -4.736  22.615  0.00  0.00    +0.178 C 
ATOM     36  O   UNL     1       7.216  -3.381  22.187  0.00  0.00    -0.341 OA
BRANCH  34  37
ATOM     37  O   UNL     1       5.217  -4.768  23.749  0.00  0.00    -0.386 OA
ATOM     38  H   UNL     1       5.074  -4.272  22.926  0.00  0.00    +0.210 HD
ENDBRANCH  34  37
BRANCH  32  39
ATOM     39  O   UNL     1       7.643  -1.694  25.491  0.00  0.00    -0.384 OA
ATOM     40  H   UNL     1       6.952  -1.328  26.066  0.00  0.00    +0.210 HD
ENDBRANCH  32  39
BRANCH  35  41
ATOM     41  C   UNL     1       6.868  -5.631  21.486  0.00  0.00    +0.190 C 
BRANCH  41  42
ATOM     42  O   UNL     1       6.184  -6.753  22.040  0.00  0.00    -0.392 OA
ATOM     43  H   UNL     1       5.330  -6.406  22.364  0.00  0.00    +0.210 HD
ENDBRANCH  41  42
ENDBRANCH  35  41
BRANCH  33  44
ATOM     44  O   UNL     1       6.325  -4.154  26.198  0.00  0.00    -0.207 OA
BRANCH  44  45
ATOM     45  S   UNL     1       6.603  -5.420  27.180  0.00  0.00    +0.208 S 
ATOM     46  O   UNL     1       5.890  -6.564  26.663  0.00  0.00    -0.118 OA
ATOM     47  O   UNL     1       6.434  -4.983  28.549  0.00  0.00    -0.118 OA
BRANCH  45  48
ATOM     48  O   UNL     1       8.176  -5.673  27.005  0.00  0.00    -0.231 OA
ATOM     49  H   UNL     1       8.287  -6.441  26.408  0.00  0.00    +0.247 HD
ENDBRANCH  45  48
ENDBRANCH  44  45
ENDBRANCH  33  44
ENDBRANCH  30  31
ENDBRANCH  29  30
ENDBRANCH   1  29
BRANCH   1  50
ATOM     50  C   UNL     1       7.258   1.683  22.968  0.00  0.00    +0.159 C 
BRANCH  50  51
ATOM     51  O   UNL     1       6.041   1.374  22.275  0.00  0.00    -0.386 OA
ATOM     52  H   UNL     1       6.225   0.597  21.720  0.00  0.00    +0.210 HD
ENDBRANCH  50  51
BRANCH  50  54
ATOM     53  C   UNL     1       6.796   4.036  22.214  0.00  0.00    -0.028 C 
ATOM     54  C   UNL     1       7.256   3.176  23.135  0.00  0.00    +0.002 C 
BRANCH  53  55
ATOM     55  C   UNL     1       6.919   5.522  22.365  0.00  0.00    +0.027 C 
BRANCH  55  56
ATOM     56  C   UNL     1       5.557   6.176  22.551  0.00  0.00    +0.004 C 
BRANCH  56  57
ATOM     57  C   UNL     1       5.288   6.430  24.033  0.00  0.00    +0.000 C 
BRANCH  57  58
ATOM     58  C   UNL     1       4.013   5.721  24.468  0.00  0.00    +0.000 C 
BRANCH  58  59
ATOM     59  C   UNL     1       4.316   4.341  25.039  0.00  0.00    +0.000 C 
BRANCH  59  60
ATOM     60  C   UNL     1       3.660   3.267  24.181  0.00  0.00    +0.000 C 
BRANCH  60  61
ATOM     61  C   UNL     1       2.298   3.727  23.676  0.00  0.00    -0.000 C 
BRANCH  61  62
ATOM     62  C   UNL     1       1.943   3.019  22.375  0.00  0.00    -0.000 C 
BRANCH  62  63
ATOM     63  C   UNL     1       2.608   3.707  21.190  0.00  0.00    -0.000 C 
BRANCH  63  64
ATOM     64  C   UNL     1       2.243   5.187  21.144  0.00  0.00    -0.000 C 
BRANCH  64  65
ATOM     65  C   UNL     1       1.440   5.504  19.885  0.00  0.00    -0.000 C 
BRANCH  65  67
ATOM     66  C   UNL     1       1.488   4.797  17.477  0.00  0.00    +0.004 C 
ATOM     67  C   UNL     1       1.441   4.323  18.920  0.00  0.00    -0.003 C 
ENDBRANCH  65  67
ENDBRANCH  64  65
ENDBRANCH  63  64
ENDBRANCH  62  63
ENDBRANCH  61  62
ENDBRANCH  60  61
ENDBRANCH  59  60
ENDBRANCH  58  59
ENDBRANCH  57  58
ENDBRANCH  56  57
ENDBRANCH  55  56
ENDBRANCH  53  55
ENDBRANCH  50  54
ENDBRANCH   1  50
TORSDOF 47
ENDMDL
