MODEL 1
REMARK VINA RESULT:      -6.5      0.000      0.000
REMARK  Name = 
REMARK  6 active torsions:
REMARK  status: ('A' for Active; 'I' for Inactive)
REMARK    1  A    between atoms: C_1  and  C_2
REMARK    2  A    between atoms: C_2  and  C_3
REMARK    3  A    between atoms: C_5  and  N_12
REMARK    4  A    between atoms: C_7  and  C_8
REMARK    5  A    between atoms: C_7  and  C_9
REMARK    6  A    between atoms: N_10  and  O_11
REMARK                            x       y       z     vdW  Elec       q    Type
REMARK                         _______ _______ _______ _____ _____    ______ ____
ROOT
ATOM      1  C   UNL     1       5.466  -4.414  23.189  0.00  0.00    +0.030 C 
ATOM      2  C   UNL     1       7.000  -4.572  23.071  0.00  0.00    +0.043 C 
ATOM      3  N   UNL     1       7.635  -4.811  24.402  0.00  0.00    -0.180 NA
ATOM      4  C   UNL     1       7.760  -3.629  25.305  0.00  0.00    +0.043 C 
ATOM      5  C   UNL     1       8.682  -3.998  26.501  0.00  0.00    +0.030 C 
ATOM      6  C   UNL     1       6.409  -3.248  25.952  0.00  0.00    +0.030 C 
ATOM      7  C   UNL     1       8.378  -2.419  24.575  0.00  0.00    +0.047 C 
ATOM      8  C   UNL     1       7.692  -2.109  23.235  0.00  0.00    +0.088 C 
ATOM      9  C   UNL     1       7.626  -3.356  22.343  0.00  0.00    +0.047 C 
ATOM     10  C   UNL     1       7.195  -5.837  22.189  0.00  0.00    +0.030 C 
ENDROOT
BRANCH   8  11
ATOM     11  N   UNL     1       8.344  -0.950  22.606  0.00  0.00    -0.239 N 
ATOM     12  C   UNL     1       7.767   0.290  22.602  0.00  0.00    +0.222 C 
ATOM     13  O   UNL     1       6.649   0.583  22.998  0.00  0.00    -0.275 OA
ATOM     14  C   UNL     1       8.726   1.274  22.005  0.00  0.00    +0.105 C 
ATOM     15  C   UNL     1      10.050   0.548  22.066  0.00  0.00    +0.105 C 
ATOM     16  C   UNL     1       9.671  -0.887  22.269  0.00  0.00    +0.222 C 
ATOM     17  O   UNL     1      10.476  -1.804  22.218  0.00  0.00    -0.275 OA
ENDBRANCH   8  11
BRANCH   3  18
ATOM     18  O   UNL     1       9.018  -5.184  24.092  0.00  0.00    -0.311 OA
ATOM     19  H   UNL     1       8.908  -6.108  23.797  0.00  0.00    +0.237 HD
ENDBRANCH   3  18
TORSDOF 2
ENDMDL
MODEL 2
REMARK VINA RESULT:      -6.4      1.827      5.079
REMARK  Name = 
REMARK  6 active torsions:
REMARK  status: ('A' for Active; 'I' for Inactive)
REMARK    1  A    between atoms: C_1  and  C_2
REMARK    2  A    between atoms: C_2  and  C_3
REMARK    3  A    between atoms: C_5  and  N_12
REMARK    4  A    between atoms: C_7  and  C_8
REMARK    5  A    between atoms: C_7  and  C_9
REMARK    6  A    between atoms: N_10  and  O_11
REMARK                            x       y       z     vdW  Elec       q    Type
REMARK                         _______ _______ _______ _____ _____    ______ ____
ROOT
ATOM      1  C   UNL     1      10.113  -0.567  23.521  0.00  0.00    +0.030 C 
ATOM      2  C   UNL     1       8.794  -0.430  22.726  0.00  0.00    +0.043 C 
ATOM      3  N   UNL     1       7.698   0.136  23.571  0.00  0.00    -0.180 NA
ATOM      4  C   UNL     1       7.079  -0.787  24.567  0.00  0.00    +0.043 C 
ATOM      5  C   UNL     1       5.793  -0.125  25.141  0.00  0.00    +0.030 C 
ATOM      6  C   UNL     1       7.989  -1.008  25.796  0.00  0.00    +0.030 C 
ATOM      7  C   UNL     1       6.684  -2.133  23.927  0.00  0.00    +0.047 C 
ATOM      8  C   UNL     1       7.821  -2.769  23.113  0.00  0.00    +0.088 C 
ATOM      9  C   UNL     1       8.390  -1.781  22.086  0.00  0.00    +0.047 C 
ATOM     10  C   UNL     1       9.124   0.582  21.593  0.00  0.00    +0.030 C 
ENDROOT
BRANCH   8  11
ATOM     11  N   UNL     1       7.360  -4.042  22.536  0.00  0.00    -0.239 N 
ATOM     12  C   UNL     1       7.779  -5.250  23.022  0.00  0.00    +0.222 C 
ATOM     13  O   UNL     1       8.626  -5.444  23.881  0.00  0.00    -0.275 OA
ATOM     14  C   UNL     1       7.039  -6.344  22.315  0.00  0.00    +0.105 C 
ATOM     15  C   UNL     1       5.867  -5.623  21.692  0.00  0.00    +0.105 C 
ATOM     16  C   UNL     1       6.266  -4.180  21.722  0.00  0.00    +0.222 C 
ATOM     17  O   UNL     1       5.631  -3.299  21.164  0.00  0.00    -0.275 OA
ENDBRANCH   8  11
BRANCH   3  18
ATOM     18  O   UNL     1       6.618   0.434  22.625  0.00  0.00    -0.311 OA
ATOM     19  H   UNL     1       7.038   1.108  22.058  0.00  0.00    +0.237 HD
ENDBRANCH   3  18
TORSDOF 2
ENDMDL
MODEL 3
REMARK VINA RESULT:      -6.1      1.814      4.847
REMARK  Name = 
REMARK  6 active torsions:
REMARK  status: ('A' for Active; 'I' for Inactive)
REMARK    1  A    between atoms: C_1  and  C_2
REMARK    2  A    between atoms: C_2  and  C_3
REMARK    3  A    between atoms: C_5  and  N_12
REMARK    4  A    between atoms: C_7  and  C_8
REMARK    5  A    between atoms: C_7  and  C_9
REMARK    6  A    between atoms: N_10  and  O_11
REMARK                            x       y       z     vdW  Elec       q    Type
REMARK                         _______ _______ _______ _____ _____    ______ ____
ROOT
ATOM      1  C   UNL     1       6.728  -0.057  25.509  0.00  0.00    +0.030 C 
ATOM      2  C   UNL     1       8.016  -0.885  25.295  0.00  0.00    +0.043 C 
ATOM      3  N   UNL     1       8.939  -0.228  24.319  0.00  0.00    -0.180 NA
ATOM      4  C   UNL     1       8.562  -0.319  22.878  0.00  0.00    +0.043 C 
ATOM      5  C   UNL     1       9.759   0.161  22.009  0.00  0.00    +0.030 C 
ATOM      6  C   UNL     1       7.406   0.642  22.520  0.00  0.00    +0.030 C 
ATOM      7  C   UNL     1       8.219  -1.766  22.470  0.00  0.00    +0.047 C 
ATOM      8  C   UNL     1       7.214  -2.437  23.420  0.00  0.00    +0.088 C 
ATOM      9  C   UNL     1       7.677  -2.338  24.879  0.00  0.00    +0.047 C 
ATOM     10  C   UNL     1       8.701  -0.911  26.690  0.00  0.00    +0.030 C 
ENDROOT
BRANCH   8  11
ATOM     11  N   UNL     1       6.948  -3.810  22.962  0.00  0.00    -0.239 N 
ATOM     12  C   UNL     1       6.038  -4.080  21.977  0.00  0.00    +0.222 C 
ATOM     13  O   UNL     1       5.280  -3.288  21.438  0.00  0.00    -0.275 OA
ATOM     14  C   UNL     1       6.089  -5.541  21.651  0.00  0.00    +0.105 C 
ATOM     15  C   UNL     1       7.407  -5.983  22.245  0.00  0.00    +0.105 C 
ATOM     16  C   UNL     1       7.763  -4.886  23.201  0.00  0.00    +0.222 C 
ATOM     17  O   UNL     1       8.697  -4.959  23.984  0.00  0.00    -0.275 OA
ENDBRANCH   8  11
BRANCH   3  18
ATOM     18  O   UNL     1      10.188  -0.988  24.421  0.00  0.00    -0.311 OA
ATOM     19  H   UNL     1      10.519  -0.702  25.293  0.00  0.00    +0.237 HD
ENDBRANCH   3  18
TORSDOF 2
ENDMDL
MODEL 4
REMARK VINA RESULT:      -6.1      1.267      3.255
REMARK  Name = 
REMARK  6 active torsions:
REMARK  status: ('A' for Active; 'I' for Inactive)
REMARK    1  A    between atoms: C_1  and  C_2
REMARK    2  A    between atoms: C_2  and  C_3
REMARK    3  A    between atoms: C_5  and  N_12
REMARK    4  A    between atoms: C_7  and  C_8
REMARK    5  A    between atoms: C_7  and  C_9
REMARK    6  A    between atoms: N_10  and  O_11
REMARK                            x       y       z     vdW  Elec       q    Type
REMARK                         _______ _______ _______ _____ _____    ______ ____
ROOT
ATOM      1  C   UNL     1       9.115  -5.559  25.054  0.00  0.00    +0.030 C 
ATOM      2  C   UNL     1       7.939  -4.594  25.329  0.00  0.00    +0.043 C 
ATOM      3  N   UNL     1       6.696  -5.021  24.616  0.00  0.00    -0.180 NA
ATOM      4  C   UNL     1       6.648  -4.766  23.147  0.00  0.00    +0.043 C 
ATOM      5  C   UNL     1       5.199  -5.008  22.637  0.00  0.00    +0.030 C 
ATOM      6  C   UNL     1       7.516  -5.770  22.355  0.00  0.00    +0.030 C 
ATOM      7  C   UNL     1       7.042  -3.314  22.809  0.00  0.00    +0.047 C 
ATOM      8  C   UNL     1       8.357  -2.876  23.473  0.00  0.00    +0.088 C 
ATOM      9  C   UNL     1       8.328  -3.135  24.986  0.00  0.00    +0.047 C 
ATOM     10  C   UNL     1       7.698  -4.700  26.862  0.00  0.00    +0.030 C 
ENDROOT
BRANCH   8  11
ATOM     11  N   UNL     1       8.655  -1.484  23.104  0.00  0.00    -0.239 N 
ATOM     12  C   UNL     1       9.807  -1.139  22.452  0.00  0.00    +0.222 C 
ATOM     13  O   UNL     1      10.752  -1.869  22.192  0.00  0.00    -0.275 OA
ATOM     14  C   UNL     1       9.756   0.317  22.107  0.00  0.00    +0.105 C 
ATOM     15  C   UNL     1       8.290   0.656  22.248  0.00  0.00    +0.105 C 
ATOM     16  C   UNL     1       7.730  -0.473  23.058  0.00  0.00    +0.222 C 
ATOM     17  O   UNL     1       6.594  -0.475  23.505  0.00  0.00    -0.275 OA
ENDBRANCH   8  11
BRANCH   3  18
ATOM     18  O   UNL     1       5.639  -4.171  25.172  0.00  0.00    -0.311 OA
ATOM     19  H   UNL     1       6.154  -3.567  25.740  0.00  0.00    +0.237 HD
ENDBRANCH   3  18
TORSDOF 2
ENDMDL
MODEL 5
REMARK VINA RESULT:      -5.7      1.108      2.073
REMARK  Name = 
REMARK  6 active torsions:
REMARK  status: ('A' for Active; 'I' for Inactive)
REMARK    1  A    between atoms: C_1  and  C_2
REMARK    2  A    between atoms: C_2  and  C_3
REMARK    3  A    between atoms: C_5  and  N_12
REMARK    4  A    between atoms: C_7  and  C_8
REMARK    5  A    between atoms: C_7  and  C_9
REMARK    6  A    between atoms: N_10  and  O_11
REMARK                            x       y       z     vdW  Elec       q    Type
REMARK                         _______ _______ _______ _____ _____    ______ ____
ROOT
ATOM      1  C   UNL     1       5.365  -3.828  23.124  0.00  0.00    +0.030 C 
ATOM      2  C   UNL     1       6.868  -4.188  23.095  0.00  0.00    +0.043 C 
ATOM      3  N   UNL     1       7.273  -4.966  24.305  0.00  0.00    -0.180 NA
ATOM      4  C   UNL     1       7.414  -4.199  25.577  0.00  0.00    +0.043 C 
ATOM      5  C   UNL     1       8.105  -5.100  26.640  0.00  0.00    +0.030 C 
ATOM      6  C   UNL     1       6.044  -3.841  26.194  0.00  0.00    +0.030 C 
ATOM      7  C   UNL     1       8.275  -2.934  25.384  0.00  0.00    +0.047 C 
ATOM      8  C   UNL     1       7.831  -2.079  24.187  0.00  0.00    +0.088 C 
ATOM      9  C   UNL     1       7.738  -2.920  22.908  0.00  0.00    +0.047 C 
ATOM     10  C   UNL     1       7.028  -5.093  21.841  0.00  0.00    +0.030 C 
ENDROOT
BRANCH   8  11
ATOM     11  N   UNL     1       8.704  -0.900  24.074  0.00  0.00    -0.239 N 
ATOM     12  C   UNL     1       9.917  -0.956  23.443  0.00  0.00    +0.222 C 
ATOM     13  O   UNL     1      10.471  -1.951  23.002  0.00  0.00    -0.275 OA
ATOM     14  C   UNL     1      10.501   0.422  23.383  0.00  0.00    +0.105 C 
ATOM     15  C   UNL     1       9.313   1.314  23.660  0.00  0.00    +0.105 C 
ATOM     16  C   UNL     1       8.299   0.395  24.268  0.00  0.00    +0.222 C 
ATOM     17  O   UNL     1       7.254   0.787  24.763  0.00  0.00    -0.275 OA
ENDBRANCH   8  11
BRANCH   3  18
ATOM     18  O   UNL     1       8.629  -5.437  24.006  0.00  0.00    -0.311 OA
ATOM     19  H   UNL     1       9.164  -4.663  24.264  0.00  0.00    +0.237 HD
ENDBRANCH   3  18
TORSDOF 2
ENDMDL
MODEL 6
REMARK VINA RESULT:      -5.7      2.137      5.318
REMARK  Name = 
REMARK  6 active torsions:
REMARK  status: ('A' for Active; 'I' for Inactive)
REMARK    1  A    between atoms: C_1  and  C_2
REMARK    2  A    between atoms: C_2  and  C_3
REMARK    3  A    between atoms: C_5  and  N_12
REMARK    4  A    between atoms: C_7  and  C_8
REMARK    5  A    between atoms: C_7  and  C_9
REMARK    6  A    between atoms: N_10  and  O_11
REMARK                            x       y       z     vdW  Elec       q    Type
REMARK                         _______ _______ _______ _____ _____    ______ ____
ROOT
ATOM      1  C   UNL     1       6.848   1.263  22.527  0.00  0.00    +0.030 C 
ATOM      2  C   UNL     1       7.239   0.992  23.999  0.00  0.00    +0.043 C 
ATOM      3  N   UNL     1       8.654   1.388  24.275  0.00  0.00    -0.180 NA
ATOM      4  C   UNL     1       9.716   0.477  23.756  0.00  0.00    +0.043 C 
ATOM      5  C   UNL     1      11.083   0.888  24.372  0.00  0.00    +0.030 C 
ATOM      6  C   UNL     1       9.911   0.625  22.230  0.00  0.00    +0.030 C 
ATOM      7  C   UNL     1       9.438  -0.992  24.133  0.00  0.00    +0.047 C 
ATOM      8  C   UNL     1       8.010  -1.443  23.791  0.00  0.00    +0.088 C 
ATOM      9  C   UNL     1       6.968  -0.484  24.381  0.00  0.00    +0.047 C 
ATOM     10  C   UNL     1       6.293   1.905  24.829  0.00  0.00    +0.030 C 
ENDROOT
BRANCH   8  11
ATOM     11  N   UNL     1       7.830  -2.849  24.186  0.00  0.00    -0.239 N 
ATOM     12  C   UNL     1       7.656  -3.843  23.263  0.00  0.00    +0.222 C 
ATOM     13  O   UNL     1       7.523  -3.711  22.055  0.00  0.00    -0.275 OA
ATOM     14  C   UNL     1       7.631  -5.165  23.967  0.00  0.00    +0.105 C 
ATOM     15  C   UNL     1       8.231  -4.850  25.317  0.00  0.00    +0.105 C 
ATOM     16  C   UNL     1       8.136  -3.359  25.421  0.00  0.00    +0.222 C 
ATOM     17  O   UNL     1       8.388  -2.742  26.444  0.00  0.00    -0.275 OA
ENDBRANCH   8  11
BRANCH   3  18
ATOM     18  O   UNL     1       8.783   1.309  25.733  0.00  0.00    -0.311 OA
ATOM     19  H   UNL     1       9.565   0.734  25.828  0.00  0.00    +0.237 HD
ENDBRANCH   3  18
TORSDOF 2
ENDMDL
MODEL 7
REMARK VINA RESULT:      -5.6      1.892      2.592
REMARK  Name = 
REMARK  6 active torsions:
REMARK  status: ('A' for Active; 'I' for Inactive)
REMARK    1  A    between atoms: C_1  and  C_2
REMARK    2  A    between atoms: C_2  and  C_3
REMARK    3  A    between atoms: C_5  and  N_12
REMARK    4  A    between atoms: C_7  and  C_8
REMARK    5  A    between atoms: C_7  and  C_9
REMARK    6  A    between atoms: N_10  and  O_11
REMARK                            x       y       z     vdW  Elec       q    Type
REMARK                         _______ _______ _______ _____ _____    ______ ____
ROOT
ATOM      1  C   UNL     1       7.924  -5.030  23.275  0.00  0.00    +0.030 C 
ATOM      2  C   UNL     1       8.198  -4.286  24.602  0.00  0.00    +0.043 C 
ATOM      3  N   UNL     1       6.929  -3.863  25.269  0.00  0.00    -0.180 NA
ATOM      4  C   UNL     1       6.223  -2.688  24.680  0.00  0.00    +0.043 C 
ATOM      5  C   UNL     1       5.103  -2.227  25.655  0.00  0.00    +0.030 C 
ATOM      6  C   UNL     1       5.483  -3.053  23.374  0.00  0.00    +0.030 C 
ATOM      7  C   UNL     1       7.184  -1.503  24.453  0.00  0.00    +0.047 C 
ATOM      8  C   UNL     1       8.464  -1.901  23.703  0.00  0.00    +0.088 C 
ATOM      9  C   UNL     1       9.158  -3.091  24.379  0.00  0.00    +0.047 C 
ATOM     10  C   UNL     1       8.909  -5.337  25.500  0.00  0.00    +0.030 C 
ENDROOT
BRANCH   8  11
ATOM     11  N   UNL     1       9.322  -0.717  23.534  0.00  0.00    -0.239 N 
ATOM     12  C   UNL     1       9.494  -0.116  22.317  0.00  0.00    +0.222 C 
ATOM     13  O   UNL     1       9.076  -0.507  21.238  0.00  0.00    -0.275 OA
ATOM     14  C   UNL     1      10.312   1.126  22.498  0.00  0.00    +0.105 C 
ATOM     15  C   UNL     1      10.222   1.388  23.983  0.00  0.00    +0.105 C 
ATOM     16  C   UNL     1       9.756   0.086  24.557  0.00  0.00    +0.222 C 
ATOM     17  O   UNL     1       9.708  -0.137  25.756  0.00  0.00    -0.275 OA
ENDBRANCH   8  11
BRANCH   3  18
ATOM     18  O   UNL     1       7.343  -3.413  26.602  0.00  0.00    -0.311 OA
ATOM     19  H   UNL     1       6.523  -3.541  27.114  0.00  0.00    +0.237 HD
ENDBRANCH   3  18
TORSDOF 2
ENDMDL
MODEL 8
REMARK VINA RESULT:      -5.6      1.711      2.887
REMARK  Name = 
REMARK  6 active torsions:
REMARK  status: ('A' for Active; 'I' for Inactive)
REMARK    1  A    between atoms: C_1  and  C_2
REMARK    2  A    between atoms: C_2  and  C_3
REMARK    3  A    between atoms: C_5  and  N_12
REMARK    4  A    between atoms: C_7  and  C_8
REMARK    5  A    between atoms: C_7  and  C_9
REMARK    6  A    between atoms: N_10  and  O_11
REMARK                            x       y       z     vdW  Elec       q    Type
REMARK                         _______ _______ _______ _____ _____    ______ ____
ROOT
ATOM      1  C   UNL     1       8.885  -5.821  24.789  0.00  0.00    +0.030 C 
ATOM      2  C   UNL     1       7.925  -4.768  25.388  0.00  0.00    +0.043 C 
ATOM      3  N   UNL     1       6.573  -4.830  24.752  0.00  0.00    -0.180 NA
ATOM      4  C   UNL     1       6.453  -4.255  23.380  0.00  0.00    +0.043 C 
ATOM      5  C   UNL     1       4.948  -4.150  23.003  0.00  0.00    +0.030 C 
ATOM      6  C   UNL     1       7.064  -5.184  22.307  0.00  0.00    +0.030 C 
ATOM      7  C   UNL     1       7.070  -2.844  23.299  0.00  0.00    +0.047 C 
ATOM      8  C   UNL     1       8.491  -2.773  23.882  0.00  0.00    +0.088 C 
ATOM      9  C   UNL     1       8.537  -3.348  25.303  0.00  0.00    +0.047 C 
ATOM     10  C   UNL     1       7.792  -5.167  26.885  0.00  0.00    +0.030 C 
ENDROOT
BRANCH   8  11
ATOM     11  N   UNL     1       9.000  -1.397  23.769  0.00  0.00    -0.239 N 
ATOM     12  C   UNL     1       8.581  -0.400  24.606  0.00  0.00    +0.222 C 
ATOM     13  O   UNL     1       7.699  -0.469  25.449  0.00  0.00    -0.275 OA
ATOM     14  C   UNL     1       9.371   0.840  24.322  0.00  0.00    +0.105 C 
ATOM     15  C   UNL     1      10.558   0.325  23.543  0.00  0.00    +0.105 C 
ATOM     16  C   UNL     1      10.132  -1.037  23.086  0.00  0.00    +0.222 C 
ATOM     17  O   UNL     1      10.777  -1.709  22.296  0.00  0.00    -0.275 OA
ENDBRANCH   8  11
BRANCH   3  18
ATOM     18  O   UNL     1       5.731  -3.967  25.587  0.00  0.00    -0.311 OA
ATOM     19  H   UNL     1       5.310  -3.398  24.915  0.00  0.00    +0.237 HD
ENDBRANCH   3  18
TORSDOF 2
ENDMDL
MODEL 9
REMARK VINA RESULT:      -5.6      2.100      5.300
REMARK  Name = 
REMARK  6 active torsions:
REMARK  status: ('A' for Active; 'I' for Inactive)
REMARK    1  A    between atoms: C_1  and  C_2
REMARK    2  A    between atoms: C_2  and  C_3
REMARK    3  A    between atoms: C_5  and  N_12
REMARK    4  A    between atoms: C_7  and  C_8
REMARK    5  A    between atoms: C_7  and  C_9
REMARK    6  A    between atoms: N_10  and  O_11
REMARK                            x       y       z     vdW  Elec       q    Type
REMARK                         _______ _______ _______ _____ _____    ______ ____
ROOT
ATOM      1  C   UNL     1       6.840   1.266  22.455  0.00  0.00    +0.030 C 
ATOM      2  C   UNL     1       7.240   0.953  23.915  0.00  0.00    +0.043 C 
ATOM      3  N   UNL     1       8.632   1.408  24.215  0.00  0.00    -0.180 NA
ATOM      4  C   UNL     1       9.740   0.575  23.664  0.00  0.00    +0.043 C 
ATOM      5  C   UNL     1      11.083   1.028  24.305  0.00  0.00    +0.030 C 
ATOM      6  C   UNL     1       9.934   0.797  22.147  0.00  0.00    +0.030 C 
ATOM      7  C   UNL     1       9.537  -0.921  23.978  0.00  0.00    +0.047 C 
ATOM      8  C   UNL     1       8.135  -1.429  23.609  0.00  0.00    +0.088 C 
ATOM      9  C   UNL     1       7.043  -0.549  24.233  0.00  0.00    +0.047 C 
ATOM     10  C   UNL     1       6.246   1.782  24.778  0.00  0.00    +0.030 C 
ENDROOT
BRANCH   8  11
ATOM     11  N   UNL     1       8.025  -2.857  23.944  0.00  0.00    -0.239 N 
ATOM     12  C   UNL     1       8.189  -3.315  25.223  0.00  0.00    +0.222 C 
ATOM     13  O   UNL     1       8.535  -2.666  26.198  0.00  0.00    -0.275 OA
ATOM     14  C   UNL     1       7.892  -4.783  25.258  0.00  0.00    +0.105 C 
ATOM     15  C   UNL     1       7.138  -5.015  23.969  0.00  0.00    +0.105 C 
ATOM     16  C   UNL     1       7.448  -3.806  23.141  0.00  0.00    +0.222 C 
ATOM     17  O   UNL     1       7.132  -3.703  21.966  0.00  0.00    -0.275 OA
ENDBRANCH   8  11
BRANCH   3  18
ATOM     18  O   UNL     1       8.760   1.275  25.670  0.00  0.00    -0.311 OA
ATOM     19  H   UNL     1       8.015   0.678  25.876  0.00  0.00    +0.237 HD
ENDBRANCH   3  18
TORSDOF 2
ENDMDL
