MODEL 1
REMARK VINA RESULT:      -4.3      0.000      0.000
REMARK  Name = 
REMARK  7 active torsions:
REMARK  status: ('A' for Active; 'I' for Inactive)
REMARK    1  A    between atoms: C_1  and  SE_2
REMARK    2  A    between atoms: SE_2  and  C_4
REMARK    3  A    between atoms: C_4  and  C_5
REMARK    4  A    between atoms: C_5  and  CA_6
REMARK    5  A    between atoms: CA_6  and  N_8
REMARK    6  A    between atoms: CA_6  and  C_9
REMARK    7  A    between atoms: C_9  and  O_10
REMARK                            x       y       z     vdW  Elec       q    Type
REMARK                         _______ _______ _______ _____ _____    ______ ____
ROOT
ATOM      1  CA  UNL     1       8.849  -5.466  25.316  0.00  0.00    +0.000 C 
ENDROOT
BRANCH   1   2
ATOM      2  N   UNL     1      10.315  -5.487  25.344  0.00  0.00    +0.000 NA
ATOM      3  H1  UNL     1      10.634  -6.321  25.890  0.00  0.00    +0.000 HD
ATOM      4  H2  UNL     1      10.683  -5.616  24.375  0.00  0.00    +0.000 HD
ENDBRANCH   1   2
BRANCH   1   5
ATOM      5  C   UNL     1       8.333  -5.015  26.665  0.00  0.00    +0.000 C 
ATOM      6  OXT UNL     1       8.372  -3.832  26.962  0.00  0.00    +0.000 OA
BRANCH   5   7
ATOM      7  O   UNL     1       7.818  -5.899  27.547  0.00  0.00    +0.000 OA
ATOM      8  H   UNL     1       7.416  -5.618  28.380  0.00  0.00    +0.000 HD
ENDBRANCH   5   7
ENDBRANCH   1   5
BRANCH   1   9
ATOM      9  C   UNL     1       8.317  -4.517  24.219  0.00  0.00    +0.000 C 
BRANCH   9  10
ATOM     10  C   UNL     1       6.859  -4.777  23.830  0.00  0.00    +0.000 C 
BRANCH  10  12
ATOM     11  C   UNL     1       6.415  -5.714  21.189  0.00  0.00    +0.000 C 
ATOM     12 SE   UNL     1       6.504  -3.980  22.076  0.00  0.00    +0.000 Se
ATOM     13  O   UNL     1       4.880  -3.990  22.346  0.00  0.00    +0.000 OA
ENDBRANCH  10  12
ENDBRANCH   9  10
ENDBRANCH   1   9
TORSDOF 6
ENDMDL
MODEL 2
REMARK VINA RESULT:      -4.2      1.836      1.926
REMARK  Name = 
REMARK  7 active torsions:
REMARK  status: ('A' for Active; 'I' for Inactive)
REMARK    1  A    between atoms: C_1  and  SE_2
REMARK    2  A    between atoms: SE_2  and  C_4
REMARK    3  A    between atoms: C_4  and  C_5
REMARK    4  A    between atoms: C_5  and  CA_6
REMARK    5  A    between atoms: CA_6  and  N_8
REMARK    6  A    between atoms: CA_6  and  C_9
REMARK    7  A    between atoms: C_9  and  O_10
REMARK                            x       y       z     vdW  Elec       q    Type
REMARK                         _______ _______ _______ _____ _____    ______ ____
ROOT
ATOM      1  CA  UNL     1       8.051  -4.743  25.956  0.00  0.00    +0.000 C 
ENDROOT
BRANCH   1   2
ATOM      2  N   UNL     1       8.012  -5.603  27.142  0.00  0.00    +0.000 NA
ATOM      3  H1  UNL     1       8.073  -6.604  26.840  0.00  0.00    +0.000 HD
ATOM      4  H2  UNL     1       8.855  -5.426  27.733  0.00  0.00    +0.000 HD
ENDBRANCH   1   2
BRANCH   1   5
ATOM      5  C   UNL     1       9.420  -4.834  25.320  0.00  0.00    +0.000 C 
ATOM      6  OXT UNL     1       9.762  -3.997  24.499  0.00  0.00    +0.000 OA
BRANCH   5   7
ATOM      7  O   UNL     1      10.280  -5.821  25.650  0.00  0.00    +0.000 OA
ATOM      8  H   UNL     1       9.987  -6.634  26.084  0.00  0.00    +0.000 HD
ENDBRANCH   5   7
ENDBRANCH   1   5
BRANCH   1   9
ATOM      9  C   UNL     1       6.976  -5.152  24.924  0.00  0.00    +0.000 C 
BRANCH   9  10
ATOM     10  C   UNL     1       6.238  -3.966  24.297  0.00  0.00    +0.000 C 
BRANCH  10  12
ATOM     11  C   UNL     1       7.203  -5.686  22.257  0.00  0.00    +0.000 C 
ATOM     12 SE   UNL     1       6.771  -3.791  22.420  0.00  0.00    +0.000 Se
ATOM     13  O   UNL     1       5.229  -4.059  21.907  0.00  0.00    +0.000 OA
ENDBRANCH  10  12
ENDBRANCH   9  10
ENDBRANCH   1   9
TORSDOF 6
ENDMDL
MODEL 3
REMARK VINA RESULT:      -4.2      2.677      3.416
REMARK  Name = 
REMARK  7 active torsions:
REMARK  status: ('A' for Active; 'I' for Inactive)
REMARK    1  A    between atoms: C_1  and  SE_2
REMARK    2  A    between atoms: SE_2  and  C_4
REMARK    3  A    between atoms: C_4  and  C_5
REMARK    4  A    between atoms: C_5  and  CA_6
REMARK    5  A    between atoms: CA_6  and  N_8
REMARK    6  A    between atoms: CA_6  and  C_9
REMARK    7  A    between atoms: C_9  and  O_10
REMARK                            x       y       z     vdW  Elec       q    Type
REMARK                         _______ _______ _______ _____ _____    ______ ____
ROOT
ATOM      1  CA  UNL     1       8.702  -5.239  25.314  0.00  0.00    +0.000 C 
ENDROOT
BRANCH   1   2
ATOM      2  N   UNL     1      10.132  -5.544  25.423  0.00  0.00    +0.000 NA
ATOM      3  H1  UNL     1      10.669  -4.889  24.810  0.00  0.00    +0.000 HD
ATOM      4  H2  UNL     1      10.457  -5.362  26.399  0.00  0.00    +0.000 HD
ENDBRANCH   1   2
BRANCH   1   5
ATOM      5  C   UNL     1       8.135  -5.010  26.698  0.00  0.00    +0.000 C 
ATOM      6  OXT UNL     1       7.881  -3.874  27.066  0.00  0.00    +0.000 OA
BRANCH   5   7
ATOM      7  O   UNL     1       7.894  -6.042  27.534  0.00  0.00    +0.000 OA
ATOM      8  H   UNL     1       7.629  -5.907  28.454  0.00  0.00    +0.000 HD
ENDBRANCH   5   7
ENDBRANCH   1   5
BRANCH   1   9
ATOM      9  C   UNL     1       8.456  -3.987  24.443  0.00  0.00    +0.000 C 
BRANCH   9  10
ATOM     10  C   UNL     1       9.705  -3.125  24.232  0.00  0.00    +0.000 C 
BRANCH  10  12
ATOM     11  C   UNL     1      10.125  -0.320  24.309  0.00  0.00    +0.000 C 
ATOM     12 SE   UNL     1       9.246  -1.585  23.112  0.00  0.00    +0.000 Se
ATOM     13  O   UNL     1      10.622  -1.760  22.224  0.00  0.00    +0.000 OA
ENDBRANCH  10  12
ENDBRANCH   9  10
ENDBRANCH   1   9
TORSDOF 6
ENDMDL
MODEL 4
REMARK VINA RESULT:      -4.2      2.985      3.176
REMARK  Name = 
REMARK  7 active torsions:
REMARK  status: ('A' for Active; 'I' for Inactive)
REMARK    1  A    between atoms: C_1  and  SE_2
REMARK    2  A    between atoms: SE_2  and  C_4
REMARK    3  A    between atoms: C_4  and  C_5
REMARK    4  A    between atoms: C_5  and  CA_6
REMARK    5  A    between atoms: CA_6  and  N_8
REMARK    6  A    between atoms: CA_6  and  C_9
REMARK    7  A    between atoms: C_9  and  O_10
REMARK                            x       y       z     vdW  Elec       q    Type
REMARK                         _______ _______ _______ _____ _____    ______ ____
ROOT
ATOM      1  CA  UNL     1       8.383  -4.447  26.346  0.00  0.00    +0.000 C 
ENDROOT
BRANCH   1   2
ATOM      2  N   UNL     1       8.187  -5.594  27.237  0.00  0.00    +0.000 NA
ATOM      3  H1  UNL     1       7.252  -5.510  27.700  0.00  0.00    +0.000 HD
ATOM      4  H2  UNL     1       8.156  -6.475  26.676  0.00  0.00    +0.000 HD
ENDBRANCH   1   2
BRANCH   1   5
ATOM      5  C   UNL     1       9.404  -4.808  25.289  0.00  0.00    +0.000 C 
ATOM      6  OXT UNL     1       9.824  -3.944  24.535  0.00  0.00    +0.000 OA
BRANCH   5   7
ATOM      7  O   UNL     1       9.870  -6.070  25.169  0.00  0.00    +0.000 OA
ATOM      8  H   UNL     1       9.786  -6.572  24.347  0.00  0.00    +0.000 HD
ENDBRANCH   5   7
ENDBRANCH   1   5
BRANCH   1   9
ATOM      9  C   UNL     1       7.062  -4.029  25.662  0.00  0.00    +0.000 C 
BRANCH   9  10
ATOM     10  C   UNL     1       6.383  -5.160  24.884  0.00  0.00    +0.000 C 
BRANCH  10  12
ATOM     11  C   UNL     1       4.277  -7.012  24.455  0.00  0.00    +0.000 C 
ATOM     12 SE   UNL     1       4.724  -5.667  25.795  0.00  0.00    +0.000 Se
ATOM     13  O   UNL     1       5.512  -6.785  26.712  0.00  0.00    +0.000 OA
ENDBRANCH  10  12
ENDBRANCH   9  10
ENDBRANCH   1   9
TORSDOF 6
ENDMDL
MODEL 5
REMARK VINA RESULT:      -4.0      5.007      6.050
REMARK  Name = 
REMARK  7 active torsions:
REMARK  status: ('A' for Active; 'I' for Inactive)
REMARK    1  A    between atoms: C_1  and  SE_2
REMARK    2  A    between atoms: SE_2  and  C_4
REMARK    3  A    between atoms: C_4  and  C_5
REMARK    4  A    between atoms: C_5  and  CA_6
REMARK    5  A    between atoms: CA_6  and  N_8
REMARK    6  A    between atoms: CA_6  and  C_9
REMARK    7  A    between atoms: C_9  and  O_10
REMARK                            x       y       z     vdW  Elec       q    Type
REMARK                         _______ _______ _______ _____ _____    ______ ____
ROOT
ATOM      1  CA  UNL     1      10.331  -0.337  22.411  0.00  0.00    +0.000 C 
ENDROOT
BRANCH   1   2
ATOM      2  N   UNL     1       9.968  -1.407  21.477  0.00  0.00    +0.000 NA
ATOM      3  H1  UNL     1      10.840  -1.798  21.050  0.00  0.00    +0.000 HD
ATOM      4  H2  UNL     1       9.523  -2.194  21.999  0.00  0.00    +0.000 HD
ENDBRANCH   1   2
BRANCH   1   5
ATOM      5  C   UNL     1       9.820   0.983  21.877  0.00  0.00    +0.000 C 
ATOM      6  OXT UNL     1      10.277   2.029  22.311  0.00  0.00    +0.000 OA
BRANCH   5   7
ATOM      7  O   UNL     1       8.871   1.028  20.917  0.00  0.00    +0.000 OA
ATOM      8  H   UNL     1       7.936   0.877  21.111  0.00  0.00    +0.000 HD
ENDBRANCH   5   7
ENDBRANCH   1   5
BRANCH   1   9
ATOM      9  C   UNL     1       9.739  -0.587  23.816  0.00  0.00    +0.000 C 
BRANCH   9  10
ATOM     10  C   UNL     1       8.404  -1.337  23.800  0.00  0.00    +0.000 C 
BRANCH  10  12
ATOM     11  C   UNL     1       7.747  -4.047  23.280  0.00  0.00    +0.000 C 
ATOM     12 SE   UNL     1       8.615  -3.055  24.717  0.00  0.00    +0.000 Se
ATOM     13  O   UNL     1      10.097  -3.290  24.037  0.00  0.00    +0.000 OA
ENDBRANCH  10  12
ENDBRANCH   9  10
ENDBRANCH   1   9
TORSDOF 6
ENDMDL
MODEL 6
REMARK VINA RESULT:      -3.9      5.786      6.669
REMARK  Name = 
REMARK  7 active torsions:
REMARK  status: ('A' for Active; 'I' for Inactive)
REMARK    1  A    between atoms: C_1  and  SE_2
REMARK    2  A    between atoms: SE_2  and  C_4
REMARK    3  A    between atoms: C_4  and  C_5
REMARK    4  A    between atoms: C_5  and  CA_6
REMARK    5  A    between atoms: CA_6  and  N_8
REMARK    6  A    between atoms: CA_6  and  C_9
REMARK    7  A    between atoms: C_9  and  O_10
REMARK                            x       y       z     vdW  Elec       q    Type
REMARK                         _______ _______ _______ _____ _____    ______ ____
ROOT
ATOM      1  CA  UNL     1       9.606   1.064  23.663  0.00  0.00    +0.000 C 
ENDROOT
BRANCH   1   2
ATOM      2  N   UNL     1       9.281   1.545  25.009  0.00  0.00    +0.000 NA
ATOM      3  H1  UNL     1       9.930   2.328  25.257  0.00  0.00    +0.000 HD
ATOM      4  H2  UNL     1       8.319   1.952  25.015  0.00  0.00    +0.000 HD
ENDBRANCH   1   2
BRANCH   1   5
ATOM      5  C   UNL     1      10.159   2.210  22.845  0.00  0.00    +0.000 C 
ATOM      6  OXT UNL     1      10.749   3.122  23.403  0.00  0.00    +0.000 OA
BRANCH   5   7
ATOM      7  O   UNL     1      10.022   2.240  21.502  0.00  0.00    +0.000 OA
ATOM      8  H   UNL     1       9.732   1.468  20.998  0.00  0.00    +0.000 HD
ENDBRANCH   5   7
ENDBRANCH   1   5
BRANCH   1   9
ATOM      9  C   UNL     1      10.640  -0.083  23.707  0.00  0.00    +0.000 C 
BRANCH   9  10
ATOM     10  C   UNL     1      10.163  -1.372  23.032  0.00  0.00    +0.000 C 
BRANCH  10  12
ATOM     11  C   UNL     1       7.924  -3.102  22.816  0.00  0.00    +0.000 C 
ATOM     12 SE   UNL     1       8.996  -2.354  24.263  0.00  0.00    +0.000 Se
ATOM     13  O   UNL     1       9.999  -3.660  24.249  0.00  0.00    +0.000 OA
ENDBRANCH  10  12
ENDBRANCH   9  10
ENDBRANCH   1   9
TORSDOF 6
ENDMDL
MODEL 7
REMARK VINA RESULT:      -3.9      3.214      4.090
REMARK  Name = 
REMARK  7 active torsions:
REMARK  status: ('A' for Active; 'I' for Inactive)
REMARK    1  A    between atoms: C_1  and  SE_2
REMARK    2  A    between atoms: SE_2  and  C_4
REMARK    3  A    between atoms: C_4  and  C_5
REMARK    4  A    between atoms: C_5  and  CA_6
REMARK    5  A    between atoms: CA_6  and  N_8
REMARK    6  A    between atoms: CA_6  and  C_9
REMARK    7  A    between atoms: C_9  and  O_10
REMARK                            x       y       z     vdW  Elec       q    Type
REMARK                         _______ _______ _______ _____ _____    ______ ____
ROOT
ATOM      1  CA  UNL     1       8.573  -4.483  26.577  0.00  0.00    +0.000 C 
ENDROOT
BRANCH   1   2
ATOM      2  N   UNL     1       8.009  -5.657  27.249  0.00  0.00    +0.000 NA
ATOM      3  H1  UNL     1       8.015  -6.466  26.584  0.00  0.00    +0.000 HD
ATOM      4  H2  UNL     1       8.622  -5.934  28.048  0.00  0.00    +0.000 HD
ENDBRANCH   1   2
BRANCH   1   5
ATOM      5  C   UNL     1       9.334  -4.930  25.349  0.00  0.00    +0.000 C 
ATOM      6  OXT UNL     1       8.856  -4.746  24.241  0.00  0.00    +0.000 OA
BRANCH   5   7
ATOM      7  O   UNL     1      10.543  -5.523  25.453  0.00  0.00    +0.000 OA
ATOM      8  H   UNL     1      10.639  -6.454  25.699  0.00  0.00    +0.000 HD
ENDBRANCH   5   7
ENDBRANCH   1   5
BRANCH   1   9
ATOM      9  C   UNL     1       7.470  -3.484  26.163  0.00  0.00    +0.000 C 
BRANCH   9  10
ATOM     10  C   UNL     1       7.863  -2.015  26.350  0.00  0.00    +0.000 C 
BRANCH  10  12
ATOM     11  C   UNL     1       8.358   0.598  25.363  0.00  0.00    +0.000 C 
ATOM     12 SE   UNL     1       8.057  -1.169  24.594  0.00  0.00    +0.000 Se
ATOM     13  O   UNL     1       9.675  -1.477  24.571  0.00  0.00    +0.000 OA
ENDBRANCH  10  12
ENDBRANCH   9  10
ENDBRANCH   1   9
TORSDOF 6
ENDMDL
MODEL 8
REMARK VINA RESULT:      -3.9      5.402      6.211
REMARK  Name = 
REMARK  7 active torsions:
REMARK  status: ('A' for Active; 'I' for Inactive)
REMARK    1  A    between atoms: C_1  and  SE_2
REMARK    2  A    between atoms: SE_2  and  C_4
REMARK    3  A    between atoms: C_4  and  C_5
REMARK    4  A    between atoms: C_5  and  CA_6
REMARK    5  A    between atoms: CA_6  and  N_8
REMARK    6  A    between atoms: CA_6  and  C_9
REMARK    7  A    between atoms: C_9  and  O_10
REMARK                            x       y       z     vdW  Elec       q    Type
REMARK                         _______ _______ _______ _____ _____    ______ ____
ROOT
ATOM      1  CA  UNL     1      10.154   1.033  22.288  0.00  0.00    +0.000 C 
ENDROOT
BRANCH   1   2
ATOM      2  N   UNL     1       9.721   2.228  21.557  0.00  0.00    +0.000 NA
ATOM      3  H1  UNL     1       9.163   2.837  22.200  0.00  0.00    +0.000 HD
ATOM      4  H2  UNL     1      10.555   2.789  21.276  0.00  0.00    +0.000 HD
ENDBRANCH   1   2
BRANCH   1   5
ATOM      5  C   UNL     1      10.040   1.290  23.774  0.00  0.00    +0.000 C 
ATOM      6  OXT UNL     1      10.998   1.075  24.500  0.00  0.00    +0.000 OA
BRANCH   5   7
ATOM      7  O   UNL     1       8.898   1.765  24.316  0.00  0.00    +0.000 OA
ATOM      8  H   UNL     1       8.059   1.756  23.835  0.00  0.00    +0.000 HD
ENDBRANCH   5   7
ENDBRANCH   1   5
BRANCH   1   9
ATOM      9  C   UNL     1       9.302  -0.200  21.913  0.00  0.00    +0.000 C 
BRANCH   9  10
ATOM     10  C   UNL     1       9.924  -1.534  22.336  0.00  0.00    +0.000 C 
BRANCH  10  12
ATOM     11  C   UNL     1       7.826  -3.379  22.828  0.00  0.00    +0.000 C 
ATOM     12 SE   UNL     1       8.973  -2.225  23.903  0.00  0.00    +0.000 Se
ATOM     13  O   UNL     1      10.074  -3.434  24.098  0.00  0.00    +0.000 OA
ENDBRANCH  10  12
ENDBRANCH   9  10
ENDBRANCH   1   9
TORSDOF 6
ENDMDL
MODEL 9
REMARK VINA RESULT:      -3.8      3.235      3.683
REMARK  Name = 
REMARK  7 active torsions:
REMARK  status: ('A' for Active; 'I' for Inactive)
REMARK    1  A    between atoms: C_1  and  SE_2
REMARK    2  A    between atoms: SE_2  and  C_4
REMARK    3  A    between atoms: C_4  and  C_5
REMARK    4  A    between atoms: C_5  and  CA_6
REMARK    5  A    between atoms: CA_6  and  N_8
REMARK    6  A    between atoms: CA_6  and  C_9
REMARK    7  A    between atoms: C_9  and  O_10
REMARK                            x       y       z     vdW  Elec       q    Type
REMARK                         _______ _______ _______ _____ _____    ______ ____
ROOT
ATOM      1  CA  UNL     1       8.756  -3.692  24.721  0.00  0.00    +0.000 C 
ENDROOT
BRANCH   1   2
ATOM      2  N   UNL     1       8.016  -4.457  23.713  0.00  0.00    +0.000 NA
ATOM      3  H1  UNL     1       7.682  -5.352  24.141  0.00  0.00    +0.000 HD
ATOM      4  H2  UNL     1       7.159  -3.932  23.431  0.00  0.00    +0.000 HD
ENDBRANCH   1   2
BRANCH   1   5
ATOM      5  C   UNL     1       9.360  -4.648  25.726  0.00  0.00    +0.000 C 
ATOM      6  OXT UNL     1       8.970  -4.635  26.883  0.00  0.00    +0.000 OA
BRANCH   5   7
ATOM      7  O   UNL     1      10.320  -5.527  25.365  0.00  0.00    +0.000 OA
ATOM      8  H   UNL     1      11.036  -5.780  25.964  0.00  0.00    +0.000 HD
ENDBRANCH   5   7
ENDBRANCH   1   5
BRANCH   1   9
ATOM      9  C   UNL     1       9.877  -2.846  24.079  0.00  0.00    +0.000 C 
BRANCH   9  10
ATOM     10  C   UNL     1       9.660  -1.335  24.203  0.00  0.00    +0.000 C 
BRANCH  10  12
ATOM     11  C   UNL     1       9.777   0.395  21.958  0.00  0.00    +0.000 C 
ATOM     12 SE   UNL     1       8.431  -0.739  22.799  0.00  0.00    +0.000 Se
ATOM     13  O   UNL     1       8.841  -2.009  21.834  0.00  0.00    +0.000 OA
ENDBRANCH  10  12
ENDBRANCH   9  10
ENDBRANCH   1   9
TORSDOF 6
ENDMDL
