MODEL 1
REMARK VINA RESULT:      -4.4      0.000      0.000
REMARK  Name = 
REMARK  3 active torsions:
REMARK  status: ('A' for Active; 'I' for Inactive)
REMARK    1  A    between atoms: C_1  and  N_2
REMARK    2  A    between atoms: C_3  and  C_4
REMARK    3  A    between atoms: N_5  and  O_6
REMARK                            x       y       z     vdW  Elec       q    Type
REMARK                         _______ _______ _______ _____ _____    ______ ____
ROOT
ATOM      1  C   UNL     1      10.578   2.512  23.661  0.00  0.00    +0.439 C 
ATOM      2  N   UNL     1      10.011   3.875  23.571  0.00  0.00    -0.199 N 
ATOM      3  C   UNL     1       8.665   3.960  23.460  0.00  0.00    +0.309 A 
ATOM      4  C   UNL     1       8.013   5.186  23.430  0.00  0.00    +0.070 A 
ATOM      5  C   UNL     1       8.756   6.354  23.509  0.00  0.00    +0.012 A 
ATOM      6  C   UNL     1      10.136   6.266  23.611  0.00  0.00    +0.080 A 
ATOM      7  C   UNL     1      10.758   5.012  23.627  0.00  0.00    +0.229 A 
ENDROOT
BRANCH   7   8
ATOM      8  C   UNL     1      12.226   5.005  23.685  0.00  0.00    +0.230 C 
ATOM      9  N   UNL     1      12.978   5.240  22.657  0.00  0.00    -0.089 NA
BRANCH   9  10
ATOM     10  O   UNL     1      14.312   5.149  23.063  0.00  0.00    -0.409 OA
ATOM     11  H   UNL     1      14.347   5.671  23.888  0.00  0.00    +0.328 HD
ENDBRANCH   9  10
ENDBRANCH   7   8
TORSDOF 2
ENDMDL
MODEL 2
REMARK VINA RESULT:      -4.3      5.065      6.464
REMARK  Name = 
REMARK  3 active torsions:
REMARK  status: ('A' for Active; 'I' for Inactive)
REMARK    1  A    between atoms: C_1  and  N_2
REMARK    2  A    between atoms: C_3  and  C_4
REMARK    3  A    between atoms: N_5  and  O_6
REMARK                            x       y       z     vdW  Elec       q    Type
REMARK                         _______ _______ _______ _____ _____    ______ ____
ROOT
ATOM      1  C   UNL     1      10.905   0.446  24.925  0.00  0.00    +0.439 C 
ATOM      2  N   UNL     1      10.231   0.360  23.612  0.00  0.00    -0.199 N 
ATOM      3  C   UNL     1       9.910   1.536  23.023  0.00  0.00    +0.309 A 
ATOM      4  C   UNL     1       9.331   1.585  21.762  0.00  0.00    +0.070 A 
ATOM      5  C   UNL     1       9.067   0.403  21.088  0.00  0.00    +0.012 A 
ATOM      6  C   UNL     1       9.385  -0.802  21.696  0.00  0.00    +0.080 A 
ATOM      7  C   UNL     1       9.958  -0.811  22.974  0.00  0.00    +0.229 A 
ENDROOT
BRANCH   7   8
ATOM      8  C   UNL     1      10.218  -2.128  23.570  0.00  0.00    +0.230 C 
ATOM      9  N   UNL     1       9.278  -2.926  23.966  0.00  0.00    -0.089 NA
BRANCH   9  10
ATOM     10  O   UNL     1       9.874  -4.080  24.483  0.00  0.00    -0.409 OA
ATOM     11  H   UNL     1      10.474  -4.378  23.771  0.00  0.00    +0.328 HD
ENDBRANCH   9  10
ENDBRANCH   7   8
TORSDOF 2
ENDMDL
MODEL 3
REMARK VINA RESULT:      -4.3      8.676     10.325
REMARK  Name = 
REMARK  3 active torsions:
REMARK  status: ('A' for Active; 'I' for Inactive)
REMARK    1  A    between atoms: C_1  and  N_2
REMARK    2  A    between atoms: C_3  and  C_4
REMARK    3  A    between atoms: N_5  and  O_6
REMARK                            x       y       z     vdW  Elec       q    Type
REMARK                         _______ _______ _______ _____ _____    ______ ____
ROOT
ATOM      1  C   UNL     1       7.213  -2.223  23.586  0.00  0.00    +0.439 C 
ATOM      2  N   UNL     1       7.045  -3.539  22.933  0.00  0.00    -0.199 N 
ATOM      3  C   UNL     1       6.195  -3.584  21.881  0.00  0.00    +0.309 A 
ATOM      4  C   UNL     1       6.002  -4.749  21.150  0.00  0.00    +0.070 A 
ATOM      5  C   UNL     1       6.690  -5.899  21.507  0.00  0.00    +0.012 A 
ATOM      6  C   UNL     1       7.551  -5.855  22.593  0.00  0.00    +0.080 A 
ATOM      7  C   UNL     1       7.710  -4.665  23.312  0.00  0.00    +0.229 A 
ENDROOT
BRANCH   7   8
ATOM      8  C   UNL     1       8.601  -4.714  24.480  0.00  0.00    +0.230 C 
ATOM      9  N   UNL     1       9.495  -5.635  24.652  0.00  0.00    -0.089 NA
BRANCH   9  10
ATOM     10  O   UNL     1      10.155  -5.383  25.858  0.00  0.00    -0.409 OA
ATOM     11  H   UNL     1      10.893  -6.024  25.865  0.00  0.00    +0.328 HD
ENDBRANCH   9  10
ENDBRANCH   7   8
TORSDOF 2
ENDMDL
MODEL 4
REMARK VINA RESULT:      -4.2      7.270      8.480
REMARK  Name = 
REMARK  3 active torsions:
REMARK  status: ('A' for Active; 'I' for Inactive)
REMARK    1  A    between atoms: C_1  and  N_2
REMARK    2  A    between atoms: C_3  and  C_4
REMARK    3  A    between atoms: N_5  and  O_6
REMARK                            x       y       z     vdW  Elec       q    Type
REMARK                         _______ _______ _______ _____ _____    ______ ____
ROOT
ATOM      1  C   UNL     1       7.215  -3.734  22.277  0.00  0.00    +0.439 C 
ATOM      2  N   UNL     1       8.242  -2.766  22.719  0.00  0.00    -0.199 N 
ATOM      3  C   UNL     1       8.359  -1.636  21.984  0.00  0.00    +0.309 A 
ATOM      4  C   UNL     1       9.245  -0.626  22.337  0.00  0.00    +0.070 A 
ATOM      5  C   UNL     1      10.037  -0.778  23.465  0.00  0.00    +0.012 A 
ATOM      6  C   UNL     1       9.926  -1.942  24.210  0.00  0.00    +0.080 A 
ATOM      7  C   UNL     1       9.029  -2.943  23.817  0.00  0.00    +0.229 A 
ENDROOT
BRANCH   7   8
ATOM      8  C   UNL     1       9.007  -4.166  24.630  0.00  0.00    +0.230 C 
ATOM      9  N   UNL     1      10.068  -4.857  24.900  0.00  0.00    -0.089 NA
BRANCH   9  10
ATOM     10  O   UNL     1       9.689  -5.951  25.684  0.00  0.00    -0.409 OA
ATOM     11  H   UNL     1      10.290  -6.667  25.400  0.00  0.00    +0.328 HD
ENDBRANCH   9  10
ENDBRANCH   7   8
TORSDOF 2
ENDMDL
MODEL 5
REMARK VINA RESULT:      -4.1      5.941      6.915
REMARK  Name = 
REMARK  3 active torsions:
REMARK  status: ('A' for Active; 'I' for Inactive)
REMARK    1  A    between atoms: C_1  and  N_2
REMARK    2  A    between atoms: C_3  and  C_4
REMARK    3  A    between atoms: N_5  and  O_6
REMARK                            x       y       z     vdW  Elec       q    Type
REMARK                         _______ _______ _______ _____ _____    ______ ____
ROOT
ATOM      1  C   UNL     1       6.519  -0.910  24.118  0.00  0.00    +0.439 C 
ATOM      2  N   UNL     1       7.598  -0.498  23.195  0.00  0.00    -0.199 N 
ATOM      3  C   UNL     1       7.461   0.717  22.615  0.00  0.00    +0.309 A 
ATOM      4  C   UNL     1       8.439   1.239  21.778  0.00  0.00    +0.070 A 
ATOM      5  C   UNL     1       9.583   0.498  21.523  0.00  0.00    +0.012 A 
ATOM      6  C   UNL     1       9.717  -0.752  22.108  0.00  0.00    +0.080 A 
ATOM      7  C   UNL     1       8.704  -1.249  22.937  0.00  0.00    +0.229 A 
ENDROOT
BRANCH   7   8
ATOM      8  C   UNL     1       8.898  -2.602  23.477  0.00  0.00    +0.230 C 
ATOM      9  N   UNL     1      10.008  -2.998  24.014  0.00  0.00    -0.089 NA
BRANCH   9  10
ATOM     10  O   UNL     1       9.848  -4.328  24.414  0.00  0.00    -0.409 OA
ATOM     11  H   UNL     1       8.933  -4.366  24.756  0.00  0.00    +0.328 HD
ENDBRANCH   9  10
ENDBRANCH   7   8
TORSDOF 2
ENDMDL
MODEL 6
REMARK VINA RESULT:      -4.0      3.238      5.016
REMARK  Name = 
REMARK  3 active torsions:
REMARK  status: ('A' for Active; 'I' for Inactive)
REMARK    1  A    between atoms: C_1  and  N_2
REMARK    2  A    between atoms: C_3  and  C_4
REMARK    3  A    between atoms: N_5  and  O_6
REMARK                            x       y       z     vdW  Elec       q    Type
REMARK                         _______ _______ _______ _____ _____    ______ ____
ROOT
ATOM      1  C   UNL     1      10.823   0.467  25.009  0.00  0.00    +0.439 C 
ATOM      2  N   UNL     1      10.301   0.164  23.659  0.00  0.00    -0.199 N 
ATOM      3  C   UNL     1      10.110  -1.144  23.369  0.00  0.00    +0.309 A 
ATOM      4  C   UNL     1       9.567  -1.550  22.157  0.00  0.00    +0.070 A 
ATOM      5  C   UNL     1       9.216  -0.594  21.215  0.00  0.00    +0.012 A 
ATOM      6  C   UNL     1       9.423   0.745  21.508  0.00  0.00    +0.080 A 
ATOM      7  C   UNL     1       9.984   1.114  22.737  0.00  0.00    +0.229 A 
ENDROOT
BRANCH   7   8
ATOM      8  C   UNL     1      10.218   2.548  22.951  0.00  0.00    +0.230 C 
ATOM      9  N   UNL     1       9.293   3.369  23.334  0.00  0.00    -0.089 NA
BRANCH   9  10
ATOM     10  O   UNL     1       9.855   4.645  23.432  0.00  0.00    -0.409 OA
ATOM     11  H   UNL     1      10.159   4.701  24.359  0.00  0.00    +0.328 HD
ENDBRANCH   9  10
ENDBRANCH   7   8
TORSDOF 2
ENDMDL
MODEL 7
REMARK VINA RESULT:      -4.0      3.453      4.550
REMARK  Name = 
REMARK  3 active torsions:
REMARK  status: ('A' for Active; 'I' for Inactive)
REMARK    1  A    between atoms: C_1  and  N_2
REMARK    2  A    between atoms: C_3  and  C_4
REMARK    3  A    between atoms: N_5  and  O_6
REMARK                            x       y       z     vdW  Elec       q    Type
REMARK                         _______ _______ _______ _____ _____    ______ ____
ROOT
ATOM      1  C   UNL     1      10.760   2.488  23.684  0.00  0.00    +0.439 C 
ATOM      2  N   UNL     1       9.415   2.630  23.086  0.00  0.00    -0.199 N 
ATOM      3  C   UNL     1       8.683   3.690  23.499  0.00  0.00    +0.309 A 
ATOM      4  C   UNL     1       7.430   3.964  22.963  0.00  0.00    +0.070 A 
ATOM      5  C   UNL     1       6.911   3.128  21.986  0.00  0.00    +0.012 A 
ATOM      6  C   UNL     1       7.657   2.035  21.572  0.00  0.00    +0.080 A 
ATOM      7  C   UNL     1       8.911   1.786  22.144  0.00  0.00    +0.229 A 
ENDROOT
BRANCH   7   8
ATOM      8  C   UNL     1       9.616   0.580  21.688  0.00  0.00    +0.230 C 
ATOM      9  N   UNL     1       9.315  -0.613  22.093  0.00  0.00    -0.089 NA
BRANCH   9  10
ATOM     10  O   UNL     1      10.181  -1.516  21.469  0.00  0.00    -0.409 OA
ATOM     11  H   UNL     1      10.900  -1.643  22.119  0.00  0.00    +0.328 HD
ENDBRANCH   9  10
ENDBRANCH   7   8
TORSDOF 2
ENDMDL
MODEL 8
REMARK VINA RESULT:      -4.0     11.101     11.558
REMARK  Name = 
REMARK  3 active torsions:
REMARK  status: ('A' for Active; 'I' for Inactive)
REMARK    1  A    between atoms: C_1  and  N_2
REMARK    2  A    between atoms: C_3  and  C_4
REMARK    3  A    between atoms: N_5  and  O_6
REMARK                            x       y       z     vdW  Elec       q    Type
REMARK                         _______ _______ _______ _____ _____    ______ ____
ROOT
ATOM      1  C   UNL     1       4.069  -5.530  24.761  0.00  0.00    +0.439 C 
ATOM      2  N   UNL     1       5.234  -5.514  23.850  0.00  0.00    -0.199 N 
ATOM      3  C   UNL     1       4.968  -5.670  22.532  0.00  0.00    +0.309 A 
ATOM      4  C   UNL     1       5.972  -5.610  21.574  0.00  0.00    +0.070 A 
ATOM      5  C   UNL     1       7.282  -5.392  21.974  0.00  0.00    +0.012 A 
ATOM      6  C   UNL     1       7.555  -5.244  23.326  0.00  0.00    +0.080 A 
ATOM      7  C   UNL     1       6.517  -5.322  24.262  0.00  0.00    +0.229 A 
ENDROOT
BRANCH   7   8
ATOM      8  C   UNL     1       6.895  -5.207  25.677  0.00  0.00    +0.230 C 
ATOM      9  N   UNL     1       7.796  -5.952  26.234  0.00  0.00    -0.089 NA
BRANCH   9  10
ATOM     10  O   UNL     1       7.900  -5.581  27.578  0.00  0.00    -0.409 OA
ATOM     11  H   UNL     1       7.778  -4.612  27.567  0.00  0.00    +0.328 HD
ENDBRANCH   9  10
ENDBRANCH   7   8
TORSDOF 2
ENDMDL
MODEL 9
REMARK VINA RESULT:      -3.9      4.496      6.171
REMARK  Name = 
REMARK  3 active torsions:
REMARK  status: ('A' for Active; 'I' for Inactive)
REMARK    1  A    between atoms: C_1  and  N_2
REMARK    2  A    between atoms: C_3  and  C_4
REMARK    3  A    between atoms: N_5  and  O_6
REMARK                            x       y       z     vdW  Elec       q    Type
REMARK                         _______ _______ _______ _____ _____    ______ ____
ROOT
ATOM      1  C   UNL     1       8.035   0.947  25.211  0.00  0.00    +0.439 C 
ATOM      2  N   UNL     1       8.692  -0.296  24.755  0.00  0.00    -0.199 N 
ATOM      3  C   UNL     1       8.325  -1.436  25.384  0.00  0.00    +0.309 A 
ATOM      4  C   UNL     1       8.826  -2.674  25.003  0.00  0.00    +0.070 A 
ATOM      5  C   UNL     1       9.732  -2.747  23.955  0.00  0.00    +0.012 A 
ATOM      6  C   UNL     1      10.118  -1.577  23.318  0.00  0.00    +0.080 A 
ATOM      7  C   UNL     1       9.598  -0.347  23.740  0.00  0.00    +0.229 A 
ENDROOT
BRANCH   7   8
ATOM      8  C   UNL     1      10.095   0.850  23.048  0.00  0.00    +0.230 C 
ATOM      9  N   UNL     1       9.716   1.191  21.858  0.00  0.00    -0.089 NA
BRANCH   9  10
ATOM     10  O   UNL     1      10.384   2.368  21.507  0.00  0.00    -0.409 OA
ATOM     11  H   UNL     1      10.573   2.799  22.364  0.00  0.00    +0.328 HD
ENDBRANCH   9  10
ENDBRANCH   7   8
TORSDOF 2
ENDMDL
