MODEL 1
REMARK VINA RESULT:      -4.8      0.000      0.000
REMARK  Name = 
REMARK  11 active torsions:
REMARK  status: ('A' for Active; 'I' for Inactive)
REMARK    1  A    between atoms: C_1  and  C_2
REMARK    2  A    between atoms: C_2  and  C_3
REMARK    3  A    between atoms: C_2  and  O_4
REMARK    4  A    between atoms: O_4  and  P_5
REMARK    5  A    between atoms: P_5  and  O_6
REMARK    6  A    between atoms: P_5  and  O_8
REMARK    7  A    between atoms: O_8  and  C_9
REMARK    8  A    between atoms: C_9  and  C_10
REMARK    9  A    between atoms: C_10  and  N_12
REMARK   10  A    between atoms: C_10  and  C_13
REMARK   11  A    between atoms: C_13  and  O_14
REMARK                            x       y       z     vdW  Elec       q    Type
REMARK                         _______ _______ _______ _____ _____    ______ ____
ROOT
ATOM      1  O   UNK     1       8.856  -2.289  24.520  0.00  0.00    -0.285 OA
ENDROOT
BRANCH   1   2
ATOM      2  P   UNK     1       9.535  -1.935  22.969  0.00  0.00    +0.475 P 
ATOM      3  O   UNK     1       8.331  -2.518  22.232  0.00  0.00    -0.227 OA
BRANCH   2   4
ATOM      4  O   UNK     1      10.214  -1.581  21.417  0.00  0.00    -0.302 OA
ATOM      5  H   UNK     1       9.538  -0.997  21.016  0.00  0.00    +0.222 HD
ENDBRANCH   2   4
BRANCH   2   6
ATOM      6  O   UNK     1       9.301  -0.328  23.236  0.00  0.00    -0.284 OA
BRANCH   6   8
ATOM      7  C   UNK     1       9.797   1.803  22.146  0.00  0.00    +0.038 C 
ATOM      8  C   UNK     1      10.312   0.644  22.990  0.00  0.00    +0.124 C 
ATOM      9  C   UNK     1      10.752   1.170  24.356  0.00  0.00    +0.038 C 
ENDBRANCH   6   8
ENDBRANCH   2   6
ENDBRANCH   1   2
BRANCH   1  10
ATOM     10  C   UNK     1       7.709  -3.140  24.476  0.00  0.00    +0.202 C 
BRANCH  10  11
ATOM     11  C   UNK     1       7.984  -4.630  24.750  0.00  0.00    +0.187 C 
BRANCH  11  12
ATOM     12  N   UNK     1       8.183  -5.426  23.506  0.00  0.00    -0.317 NA
ATOM     13  H   UNK     1       7.369  -5.273  22.896  0.00  0.00    +0.119 HD
ATOM     14  H   UNK     1       8.959  -5.021  22.973  0.00  0.00    +0.119 HD
ENDBRANCH  11  12
BRANCH  11  15
ATOM     15  C   UNK     1       9.169  -4.784  25.703  0.00  0.00    +0.324 C 
ATOM     16  O   UNK     1       9.092  -4.641  26.912  0.00  0.00    -0.249 OA
BRANCH  15  17
ATOM     17  O   UNK     1      10.323  -5.129  25.082  0.00  0.00    -0.479 OA
ATOM     18  H   UNK     1      10.532  -4.481  24.364  0.00  0.00    +0.295 HD
ENDBRANCH  15  17
ENDBRANCH  11  15
ENDBRANCH  10  11
ENDBRANCH   1  10
TORSDOF 9
ENDMDL
MODEL 2
REMARK VINA RESULT:      -4.7      1.455      1.711
REMARK  Name = 
REMARK  11 active torsions:
REMARK  status: ('A' for Active; 'I' for Inactive)
REMARK    1  A    between atoms: C_1  and  C_2
REMARK    2  A    between atoms: C_2  and  C_3
REMARK    3  A    between atoms: C_2  and  O_4
REMARK    4  A    between atoms: O_4  and  P_5
REMARK    5  A    between atoms: P_5  and  O_6
REMARK    6  A    between atoms: P_5  and  O_8
REMARK    7  A    between atoms: O_8  and  C_9
REMARK    8  A    between atoms: C_9  and  C_10
REMARK    9  A    between atoms: C_10  and  N_12
REMARK   10  A    between atoms: C_10  and  C_13
REMARK   11  A    between atoms: C_13  and  O_14
REMARK                            x       y       z     vdW  Elec       q    Type
REMARK                         _______ _______ _______ _____ _____    ______ ____
ROOT
ATOM      1  O   UNK     1      10.009  -3.087  24.070  0.00  0.00    -0.285 OA
ENDROOT
BRANCH   1   2
ATOM      2  P   UNK     1       9.964  -1.924  22.790  0.00  0.00    +0.475 P 
ATOM      3  O   UNK     1       8.472  -2.144  22.548  0.00  0.00    -0.227 OA
BRANCH   2   4
ATOM      4  O   UNK     1       9.920  -0.760  21.510  0.00  0.00    -0.302 OA
ATOM      5  H   UNK     1       9.957   0.090  21.993  0.00  0.00    +0.222 HD
ENDBRANCH   2   4
BRANCH   2   6
ATOM      6  O   UNK     1      10.179  -0.714  23.886  0.00  0.00    -0.284 OA
BRANCH   6   8
ATOM      7  C   UNK     1       8.390   0.766  24.651  0.00  0.00    +0.038 C 
ATOM      8  C   UNK     1       9.589   0.572  23.731  0.00  0.00    +0.124 C 
ATOM      9  C   UNK     1      10.669   1.593  24.088  0.00  0.00    +0.038 C 
ENDBRANCH   6   8
ENDBRANCH   2   6
ENDBRANCH   1   2
BRANCH   1  10
ATOM     10  C   UNK     1       8.802  -3.838  24.219  0.00  0.00    +0.202 C 
BRANCH  10  11
ATOM     11  C   UNK     1       8.908  -5.079  25.125  0.00  0.00    +0.187 C 
BRANCH  11  12
ATOM     12  N   UNK     1      10.315  -5.510  25.365  0.00  0.00    -0.317 NA
ATOM     13  H   UNK     1      10.687  -4.960  26.151  0.00  0.00    +0.119 HD
ATOM     14  H   UNK     1      10.311  -6.469  25.726  0.00  0.00    +0.119 HD
ENDBRANCH  11  12
BRANCH  11  15
ATOM     15  C   UNK     1       8.169  -4.839  26.442  0.00  0.00    +0.324 C 
ATOM     16  O   UNK     1       7.693  -3.763  26.768  0.00  0.00    -0.249 OA
BRANCH  15  17
ATOM     17  O   UNK     1       8.060  -5.948  27.212  0.00  0.00    -0.479 OA
ATOM     18  H   UNK     1       7.899  -6.743  26.645  0.00  0.00    +0.295 HD
ENDBRANCH  15  17
ENDBRANCH  11  15
ENDBRANCH  10  11
ENDBRANCH   1  10
TORSDOF 9
ENDMDL
MODEL 3
REMARK VINA RESULT:      -4.5      1.737      2.325
REMARK  Name = 
REMARK  11 active torsions:
REMARK  status: ('A' for Active; 'I' for Inactive)
REMARK    1  A    between atoms: C_1  and  C_2
REMARK    2  A    between atoms: C_2  and  C_3
REMARK    3  A    between atoms: C_2  and  O_4
REMARK    4  A    between atoms: O_4  and  P_5
REMARK    5  A    between atoms: P_5  and  O_6
REMARK    6  A    between atoms: P_5  and  O_8
REMARK    7  A    between atoms: O_8  and  C_9
REMARK    8  A    between atoms: C_9  and  C_10
REMARK    9  A    between atoms: C_10  and  N_12
REMARK   10  A    between atoms: C_10  and  C_13
REMARK   11  A    between atoms: C_13  and  O_14
REMARK                            x       y       z     vdW  Elec       q    Type
REMARK                         _______ _______ _______ _____ _____    ______ ____
ROOT
ATOM      1  O   UNK     1       8.342  -3.410  23.324  0.00  0.00    -0.285 OA
ENDROOT
BRANCH   1   2
ATOM      2  P   UNK     1       7.424  -1.959  23.112  0.00  0.00    +0.475 P 
ATOM      3  O   UNK     1       7.331  -1.717  24.617  0.00  0.00    -0.227 OA
BRANCH   2   4
ATOM      4  O   UNK     1       6.505  -0.509  22.901  0.00  0.00    -0.302 OA
ATOM      5  H   UNK     1       6.995   0.137  23.450  0.00  0.00    +0.222 HD
ENDBRANCH   2   4
BRANCH   2   6
ATOM      6  O   UNK     1       8.757  -1.206  22.508  0.00  0.00    -0.284 OA
BRANCH   6   8
ATOM      7  C   UNK     1      10.387  -0.042  23.909  0.00  0.00    +0.038 C 
ATOM      8  C   UNK     1       9.192   0.068  22.971  0.00  0.00    +0.124 C 
ATOM      9  C   UNK     1       9.593   0.869  21.733  0.00  0.00    +0.038 C 
ENDBRANCH   6   8
ENDBRANCH   2   6
ENDBRANCH   1   2
BRANCH   1  10
ATOM     10  C   UNK     1       9.006  -3.503  24.586  0.00  0.00    +0.202 C 
BRANCH  10  11
ATOM     11  C   UNK     1       8.991  -4.899  25.235  0.00  0.00    +0.187 C 
BRANCH  11  12
ATOM     12  N   UNK     1      10.351  -5.490  25.385  0.00  0.00    -0.317 NA
ATOM     13  H   UNK     1      10.244  -6.500  25.545  0.00  0.00    +0.119 HD
ATOM     14  H   UNK     1      10.835  -5.442  24.483  0.00  0.00    +0.119 HD
ENDBRANCH  11  12
BRANCH  11  15
ATOM     15  C   UNK     1       8.254  -4.854  26.573  0.00  0.00    +0.324 C 
ATOM     16  O   UNK     1       7.844  -3.826  27.089  0.00  0.00    -0.249 OA
BRANCH  15  17
ATOM     17  O   UNK     1       8.067  -6.074  27.131  0.00  0.00    -0.479 OA
ATOM     18  H   UNK     1       8.297  -6.050  28.093  0.00  0.00    +0.295 HD
ENDBRANCH  15  17
ENDBRANCH  11  15
ENDBRANCH  10  11
ENDBRANCH   1  10
TORSDOF 9
ENDMDL
MODEL 4
REMARK VINA RESULT:      -4.5      3.857      5.596
REMARK  Name = 
REMARK  11 active torsions:
REMARK  status: ('A' for Active; 'I' for Inactive)
REMARK    1  A    between atoms: C_1  and  C_2
REMARK    2  A    between atoms: C_2  and  C_3
REMARK    3  A    between atoms: C_2  and  O_4
REMARK    4  A    between atoms: O_4  and  P_5
REMARK    5  A    between atoms: P_5  and  O_6
REMARK    6  A    between atoms: P_5  and  O_8
REMARK    7  A    between atoms: O_8  and  C_9
REMARK    8  A    between atoms: C_9  and  C_10
REMARK    9  A    between atoms: C_10  and  N_12
REMARK   10  A    between atoms: C_10  and  C_13
REMARK   11  A    between atoms: C_13  and  O_14
REMARK                            x       y       z     vdW  Elec       q    Type
REMARK                         _______ _______ _______ _____ _____    ______ ____
ROOT
ATOM      1  O   UNK     1       8.222  -5.361  23.486  0.00  0.00    -0.285 OA
ENDROOT
BRANCH   1   2
ATOM      2  P   UNK     1       8.917  -5.168  25.059  0.00  0.00    +0.475 P 
ATOM      3  O   UNK     1       9.973  -4.190  24.547  0.00  0.00    -0.227 OA
BRANCH   2   4
ATOM      4  O   UNK     1       9.612  -4.974  26.631  0.00  0.00    -0.302 OA
ATOM      5  H   UNK     1       9.241  -5.735  27.124  0.00  0.00    +0.222 HD
ENDBRANCH   2   4
BRANCH   2   6
ATOM      6  O   UNK     1       7.579  -4.339  25.544  0.00  0.00    -0.284 OA
BRANCH   6   8
ATOM      7  C   UNK     1       5.904  -3.633  27.178  0.00  0.00    +0.038 C 
ATOM      8  C   UNK     1       6.775  -4.761  26.641  0.00  0.00    +0.124 C 
ATOM      9  C   UNK     1       5.880  -5.885  26.118  0.00  0.00    +0.038 C 
ENDBRANCH   6   8
ENDBRANCH   2   6
ENDBRANCH   1   2
BRANCH   1  10
ATOM     10  C   UNK     1       7.508  -4.215  23.017  0.00  0.00    +0.202 C 
BRANCH  10  11
ATOM     11  C   UNK     1       6.083  -4.493  22.506  0.00  0.00    +0.187 C 
BRANCH  11  12
ATOM     12  N   UNK     1       5.438  -3.297  21.891  0.00  0.00    -0.317 NA
ATOM     13  H   UNK     1       4.722  -3.626  21.230  0.00  0.00    +0.119 HD
ATOM     14  H   UNK     1       4.894  -2.809  22.609  0.00  0.00    +0.119 HD
ENDBRANCH  11  12
BRANCH  11  15
ATOM     15  C   UNK     1       6.086  -5.679  21.542  0.00  0.00    +0.324 C 
ATOM     16  O   UNK     1       5.990  -5.570  20.330  0.00  0.00    -0.249 OA
BRANCH  15  17
ATOM     17  O   UNK     1       6.239  -6.876  22.156  0.00  0.00    -0.479 OA
ATOM     18  H   UNK     1       5.403  -7.403  22.092  0.00  0.00    +0.295 HD
ENDBRANCH  15  17
ENDBRANCH  11  15
ENDBRANCH  10  11
ENDBRANCH   1  10
TORSDOF 9
ENDMDL
MODEL 5
REMARK VINA RESULT:      -4.5      2.622      5.605
REMARK  Name = 
REMARK  11 active torsions:
REMARK  status: ('A' for Active; 'I' for Inactive)
REMARK    1  A    between atoms: C_1  and  C_2
REMARK    2  A    between atoms: C_2  and  C_3
REMARK    3  A    between atoms: C_2  and  O_4
REMARK    4  A    between atoms: O_4  and  P_5
REMARK    5  A    between atoms: P_5  and  O_6
REMARK    6  A    between atoms: P_5  and  O_8
REMARK    7  A    between atoms: O_8  and  C_9
REMARK    8  A    between atoms: C_9  and  C_10
REMARK    9  A    between atoms: C_10  and  N_12
REMARK   10  A    between atoms: C_10  and  C_13
REMARK   11  A    between atoms: C_13  and  O_14
REMARK                            x       y       z     vdW  Elec       q    Type
REMARK                         _______ _______ _______ _____ _____    ______ ____
ROOT
ATOM      1  O   UNK     1       8.818  -0.976  23.239  0.00  0.00    -0.285 OA
ENDROOT
BRANCH   1   2
ATOM      2  P   UNK     1       9.404  -2.485  23.847  0.00  0.00    +0.475 P 
ATOM      3  O   UNK     1       9.090  -2.105  25.292  0.00  0.00    -0.227 OA
BRANCH   2   4
ATOM      4  O   UNK     1       9.991  -3.995  24.455  0.00  0.00    -0.302 OA
ATOM      5  H   UNK     1      10.869  -3.755  24.814  0.00  0.00    +0.222 HD
ENDBRANCH   2   4
BRANCH   2   6
ATOM      6  O   UNK     1       8.110  -3.254  23.179  0.00  0.00    -0.284 OA
BRANCH   6   8
ATOM      7  C   UNK     1       6.524  -4.525  24.536  0.00  0.00    +0.038 C 
ATOM      8  C   UNK     1       7.707  -4.559  23.577  0.00  0.00    +0.124 C 
ATOM      9  C   UNK     1       7.301  -5.298  22.301  0.00  0.00    +0.038 C 
ENDBRANCH   6   8
ENDBRANCH   2   6
ENDBRANCH   1   2
BRANCH   1  10
ATOM     10  C   UNK     1       9.693  -0.342  22.303  0.00  0.00    +0.202 C 
BRANCH  10  11
ATOM     11  C   UNK     1      10.221   1.040  22.729  0.00  0.00    +0.187 C 
BRANCH  11  12
ATOM     12  N   UNK     1       9.967   2.102  21.714  0.00  0.00    -0.317 NA
ATOM     13  H   UNK     1       9.002   2.435  21.835  0.00  0.00    +0.119 HD
ATOM     14  H   UNK     1      10.534   2.924  21.945  0.00  0.00    +0.119 HD
ENDBRANCH  11  12
BRANCH  11  15
ATOM     15  C   UNK     1       9.649   1.429  24.093  0.00  0.00    +0.324 C 
ATOM     16  O   UNK     1       8.726   2.213  24.244  0.00  0.00    -0.249 OA
BRANCH  15  17
ATOM     17  O   UNK     1      10.244   0.795  25.131  0.00  0.00    -0.479 OA
ATOM     18  H   UNK     1      11.098   1.240  25.360  0.00  0.00    +0.295 HD
ENDBRANCH  15  17
ENDBRANCH  11  15
ENDBRANCH  10  11
ENDBRANCH   1  10
TORSDOF 9
ENDMDL
MODEL 6
REMARK VINA RESULT:      -4.5      2.537      5.570
REMARK  Name = 
REMARK  11 active torsions:
REMARK  status: ('A' for Active; 'I' for Inactive)
REMARK    1  A    between atoms: C_1  and  C_2
REMARK    2  A    between atoms: C_2  and  C_3
REMARK    3  A    between atoms: C_2  and  O_4
REMARK    4  A    between atoms: O_4  and  P_5
REMARK    5  A    between atoms: P_5  and  O_6
REMARK    6  A    between atoms: P_5  and  O_8
REMARK    7  A    between atoms: O_8  and  C_9
REMARK    8  A    between atoms: C_9  and  C_10
REMARK    9  A    between atoms: C_10  and  N_12
REMARK   10  A    between atoms: C_10  and  C_13
REMARK   11  A    between atoms: C_13  and  O_14
REMARK                            x       y       z     vdW  Elec       q    Type
REMARK                         _______ _______ _______ _____ _____    ______ ____
ROOT
ATOM      1  O   UNK     1       9.043  -3.081  23.749  0.00  0.00    -0.285 OA
ENDROOT
BRANCH   1   2
ATOM      2  P   UNK     1       9.533  -4.357  24.810  0.00  0.00    +0.475 P 
ATOM      3  O   UNK     1       8.742  -3.780  25.982  0.00  0.00    -0.227 OA
BRANCH   2   4
ATOM      4  O   UNK     1      10.023  -5.633  25.871  0.00  0.00    -0.302 OA
ATOM      5  H   UNK     1      10.915  -5.345  26.153  0.00  0.00    +0.222 HD
ENDBRANCH   2   4
BRANCH   2   6
ATOM      6  O   UNK     1       8.592  -5.414  23.968  0.00  0.00    -0.284 OA
BRANCH   6   8
ATOM      7  C   UNK     1       7.230  -5.757  21.968  0.00  0.00    +0.038 C 
ATOM      8  C   UNK     1       7.413  -5.009  23.282  0.00  0.00    +0.124 C 
ATOM      9  C   UNK     1       6.239  -5.323  24.210  0.00  0.00    +0.038 C 
ENDBRANCH   6   8
ENDBRANCH   2   6
ENDBRANCH   1   2
BRANCH   1  10
ATOM     10  C   UNK     1       9.496  -1.785  24.145  0.00  0.00    +0.202 C 
BRANCH  10  11
ATOM     11  C   UNK     1       8.892  -0.609  23.357  0.00  0.00    +0.187 C 
BRANCH  11  12
ATOM     12  N   UNK     1       8.835   0.656  24.144  0.00  0.00    -0.317 NA
ATOM     13  H   UNK     1       7.850   0.944  24.212  0.00  0.00    +0.119 HD
ATOM     14  H   UNK     1       9.092   0.454  25.115  0.00  0.00    +0.119 HD
ENDBRANCH  11  12
BRANCH  11  15
ATOM     15  C   UNK     1       9.644  -0.410  22.041  0.00  0.00    +0.324 C 
ATOM     16  O   UNK     1       9.783   0.672  21.494  0.00  0.00    -0.249 OA
BRANCH  15  17
ATOM     17  O   UNK     1      10.178  -1.551  21.544  0.00  0.00    -0.479 OA
ATOM     18  H   UNK     1      11.137  -1.613  21.781  0.00  0.00    +0.295 HD
ENDBRANCH  15  17
ENDBRANCH  11  15
ENDBRANCH  10  11
ENDBRANCH   1  10
TORSDOF 9
ENDMDL
MODEL 7
REMARK VINA RESULT:      -4.4      2.965      3.539
REMARK  Name = 
REMARK  11 active torsions:
REMARK  status: ('A' for Active; 'I' for Inactive)
REMARK    1  A    between atoms: C_1  and  C_2
REMARK    2  A    between atoms: C_2  and  C_3
REMARK    3  A    between atoms: C_2  and  O_4
REMARK    4  A    between atoms: O_4  and  P_5
REMARK    5  A    between atoms: P_5  and  O_6
REMARK    6  A    between atoms: P_5  and  O_8
REMARK    7  A    between atoms: O_8  and  C_9
REMARK    8  A    between atoms: C_9  and  C_10
REMARK    9  A    between atoms: C_10  and  N_12
REMARK   10  A    between atoms: C_10  and  C_13
REMARK   11  A    between atoms: C_13  and  O_14
REMARK                            x       y       z     vdW  Elec       q    Type
REMARK                         _______ _______ _______ _____ _____    ______ ____
ROOT
ATOM      1  O   UNK     1       6.265  -4.176  24.347  0.00  0.00    -0.285 OA
ENDROOT
BRANCH   1   2
ATOM      2  P   UNK     1       6.094  -4.571  22.672  0.00  0.00    +0.475 P 
ATOM      3  O   UNK     1       4.726  -3.898  22.581  0.00  0.00    -0.227 OA
BRANCH   2   4
ATOM      4  O   UNK     1       5.923  -4.966  20.996  0.00  0.00    -0.302 OA
ATOM      5  H   UNK     1       6.679  -4.496  20.587  0.00  0.00    +0.222 HD
ENDBRANCH   2   4
BRANCH   2   6
ATOM      6  O   UNK     1       7.275  -3.486  22.299  0.00  0.00    -0.284 OA
BRANCH   6   8
ATOM      7  C   UNK     1       9.202  -2.238  23.138  0.00  0.00    +0.038 C 
ATOM      8  C   UNK     1       7.699  -2.475  23.207  0.00  0.00    +0.124 C 
ATOM      9  C   UNK     1       6.967  -1.195  22.808  0.00  0.00    +0.038 C 
ENDBRANCH   6   8
ENDBRANCH   2   6
ENDBRANCH   1   2
BRANCH   1  10
ATOM     10  C   UNK     1       6.623  -5.285  25.176  0.00  0.00    +0.202 C 
BRANCH  10  11
ATOM     11  C   UNK     1       7.819  -5.044  26.114  0.00  0.00    +0.187 C 
BRANCH  11  12
ATOM     12  N   UNK     1       7.771  -5.877  27.350  0.00  0.00    -0.317 NA
ATOM     13  H   UNK     1       7.035  -5.498  27.961  0.00  0.00    +0.119 HD
ATOM     14  H   UNK     1       7.422  -6.809  27.107  0.00  0.00    +0.119 HD
ENDBRANCH  11  12
BRANCH  11  15
ATOM     15  C   UNK     1       9.134  -5.245  25.360  0.00  0.00    +0.324 C 
ATOM     16  O   UNK     1      10.235  -5.087  25.861  0.00  0.00    -0.249 OA
BRANCH  15  17
ATOM     17  O   UNK     1       8.967  -5.650  24.079  0.00  0.00    -0.479 OA
ATOM     18  H   UNK     1       8.743  -6.614  24.050  0.00  0.00    +0.295 HD
ENDBRANCH  15  17
ENDBRANCH  11  15
ENDBRANCH  10  11
ENDBRANCH   1  10
TORSDOF 9
ENDMDL
MODEL 8
REMARK VINA RESULT:      -4.3      2.128      3.164
REMARK  Name = 
REMARK  11 active torsions:
REMARK  status: ('A' for Active; 'I' for Inactive)
REMARK    1  A    between atoms: C_1  and  C_2
REMARK    2  A    between atoms: C_2  and  C_3
REMARK    3  A    between atoms: C_2  and  O_4
REMARK    4  A    between atoms: O_4  and  P_5
REMARK    5  A    between atoms: P_5  and  O_6
REMARK    6  A    between atoms: P_5  and  O_8
REMARK    7  A    between atoms: O_8  and  C_9
REMARK    8  A    between atoms: C_9  and  C_10
REMARK    9  A    between atoms: C_10  and  N_12
REMARK   10  A    between atoms: C_10  and  C_13
REMARK   11  A    between atoms: C_13  and  O_14
REMARK                            x       y       z     vdW  Elec       q    Type
REMARK                         _______ _______ _______ _____ _____    ______ ____
ROOT
ATOM      1  O   UNK     1       8.040  -2.846  23.863  0.00  0.00    -0.285 OA
ENDROOT
BRANCH   1   2
ATOM      2  P   UNK     1       9.255  -2.182  22.826  0.00  0.00    +0.475 P 
ATOM      3  O   UNK     1       8.246  -1.299  22.095  0.00  0.00    -0.227 OA
BRANCH   2   4
ATOM      4  O   UNK     1      10.470  -1.517  21.789  0.00  0.00    -0.302 OA
ATOM      5  H   UNK     1      11.212  -2.146  21.898  0.00  0.00    +0.222 HD
ENDBRANCH   2   4
BRANCH   2   6
ATOM      6  O   UNK     1       9.892  -1.360  24.103  0.00  0.00    -0.284 OA
BRANCH   6   8
ATOM      7  C   UNK     1       8.708   0.244  25.517  0.00  0.00    +0.038 C 
ATOM      8  C   UNK     1       9.635   0.022  24.328  0.00  0.00    +0.124 C 
ATOM      9  C   UNK     1      10.986   0.676  24.613  0.00  0.00    +0.038 C 
ENDBRANCH   6   8
ENDBRANCH   2   6
ENDBRANCH   1   2
BRANCH   1  10
ATOM     10  C   UNK     1       7.724  -4.213  23.593  0.00  0.00    +0.202 C 
BRANCH  10  11
ATOM     11  C   UNK     1       6.981  -4.466  22.268  0.00  0.00    +0.187 C 
BRANCH  11  12
ATOM     12  N   UNK     1       6.931  -5.907  21.891  0.00  0.00    -0.317 NA
ATOM     13  H   UNK     1       7.787  -6.358  22.240  0.00  0.00    +0.119 HD
ATOM     14  H   UNK     1       6.187  -6.364  22.428  0.00  0.00    +0.119 HD
ENDBRANCH  11  12
BRANCH  11  15
ATOM     15  C   UNK     1       5.580  -3.856  22.320  0.00  0.00    +0.324 C 
ATOM     16  O   UNK     1       4.557  -4.513  22.431  0.00  0.00    -0.249 OA
BRANCH  15  17
ATOM     17  O   UNK     1       5.576  -2.503  22.263  0.00  0.00    -0.479 OA
ATOM     18  H   UNK     1       6.306  -2.183  21.678  0.00  0.00    +0.295 HD
ENDBRANCH  15  17
ENDBRANCH  11  15
ENDBRANCH  10  11
ENDBRANCH   1  10
TORSDOF 9
ENDMDL
MODEL 9
REMARK VINA RESULT:      -4.3      3.923      5.546
REMARK  Name = 
REMARK  11 active torsions:
REMARK  status: ('A' for Active; 'I' for Inactive)
REMARK    1  A    between atoms: C_1  and  C_2
REMARK    2  A    between atoms: C_2  and  C_3
REMARK    3  A    between atoms: C_2  and  O_4
REMARK    4  A    between atoms: O_4  and  P_5
REMARK    5  A    between atoms: P_5  and  O_6
REMARK    6  A    between atoms: P_5  and  O_8
REMARK    7  A    between atoms: O_8  and  C_9
REMARK    8  A    between atoms: C_9  and  C_10
REMARK    9  A    between atoms: C_10  and  N_12
REMARK   10  A    between atoms: C_10  and  C_13
REMARK   11  A    between atoms: C_13  and  O_14
REMARK                            x       y       z     vdW  Elec       q    Type
REMARK                         _______ _______ _______ _____ _____    ______ ____
ROOT
ATOM      1  O   UNK     1       7.086  -4.274  23.974  0.00  0.00    -0.285 OA
ENDROOT
BRANCH   1   2
ATOM      2  P   UNK     1       6.442  -4.545  22.391  0.00  0.00    +0.475 P 
ATOM      3  O   UNK     1       7.146  -5.894  22.261  0.00  0.00    -0.227 OA
BRANCH   2   4
ATOM      4  O   UNK     1       5.799  -4.817  20.808  0.00  0.00    -0.302 OA
ATOM      5  H   UNK     1       5.060  -4.176  20.765  0.00  0.00    +0.222 HD
ENDBRANCH   2   4
BRANCH   2   6
ATOM      6  O   UNK     1       4.944  -4.758  23.040  0.00  0.00    -0.284 OA
BRANCH   6   8
ATOM      7  C   UNK     1       4.695  -6.576  24.655  0.00  0.00    +0.038 C 
ATOM      8  C   UNK     1       4.383  -6.048  23.260  0.00  0.00    +0.124 C 
ATOM      9  C   UNK     1       2.870  -5.897  23.105  0.00  0.00    +0.038 C 
ENDBRANCH   6   8
ENDBRANCH   2   6
ENDBRANCH   1   2
BRANCH   1  10
ATOM     10  C   UNK     1       8.485  -4.539  24.090  0.00  0.00    +0.202 C 
BRANCH  10  11
ATOM     11  C   UNK     1       8.886  -5.454  25.261  0.00  0.00    +0.187 C 
BRANCH  11  12
ATOM     12  N   UNK     1      10.357  -5.488  25.501  0.00  0.00    -0.317 NA
ATOM     13  H   UNK     1      10.637  -4.579  25.892  0.00  0.00    +0.119 HD
ATOM     14  H   UNK     1      10.553  -6.146  26.262  0.00  0.00    +0.119 HD
ENDBRANCH  11  12
BRANCH  11  15
ATOM     15  C   UNK     1       8.126  -5.058  26.527  0.00  0.00    +0.324 C 
ATOM     16  O   UNK     1       7.585  -5.859  27.273  0.00  0.00    -0.249 OA
BRANCH  15  17
ATOM     17  O   UNK     1       8.132  -3.726  26.769  0.00  0.00    -0.479 OA
ATOM     18  H   UNK     1       8.947  -3.472  27.270  0.00  0.00    +0.295 HD
ENDBRANCH  15  17
ENDBRANCH  11  15
ENDBRANCH  10  11
ENDBRANCH   1  10
TORSDOF 9
ENDMDL
