MODEL 1
REMARK VINA RESULT:      -5.0      0.000      0.000
REMARK  Name = 
REMARK  6 active torsions:
REMARK  status: ('A' for Active; 'I' for Inactive)
REMARK    1  A    between atoms: N_1  and  C_2
REMARK    2  A    between atoms: C_2  and  C_4
REMARK    3  A    between atoms: C_2  and  C_13
REMARK    4  A    between atoms: C_4  and  C_5
REMARK    5  A    between atoms: C_5  and  C_6
REMARK    6  A    between atoms: C_6  and  N_7
REMARK                            x       y       z     vdW  Elec       q    Type
REMARK                         _______ _______ _______ _____ _____    ______ ____
ROOT
ATOM      1  C   UNL     1       9.572   3.442  23.848  0.00  0.00    +0.039 C 
ENDROOT
BRANCH   1   2
ATOM      2  C   UNL     1      10.553   2.371  23.360  0.00  0.00    +0.031 C 
BRANCH   2   3
ATOM      3  C   UNL     1      10.076   1.618  22.106  0.00  0.00    +0.138 C 
BRANCH   3   4
ATOM      4  C   UNL     1       9.771   0.129  22.398  0.00  0.00    +0.227 C 
ATOM      5  O   UNL     1       9.525  -0.307  23.518  0.00  0.00    -0.274 OA
ATOM      6  N   UNL     1       9.768  -0.695  21.311  0.00  0.00    -0.328 N 
ATOM      7  H   UNL     1       9.723  -1.689  21.486  0.00  0.00    +0.145 HD
ATOM      8  H   UNL     1      10.297  -0.374  20.504  0.00  0.00    +0.145 HD
ENDBRANCH   3   4
BRANCH   3   9
ATOM      9  N   UNL     1       8.868   2.285  21.560  0.00  0.00    -0.320 NA
ATOM     10  H   UNL     1       9.010   2.473  20.567  0.00  0.00    +0.119 HD
ATOM     11  H   UNL     1       8.073   1.647  21.611  0.00  0.00    +0.119 HD
ENDBRANCH   3   9
ENDBRANCH   2   3
ENDBRANCH   1   2
BRANCH   1  12
ATOM     12  C   UNL     1      10.188   4.836  23.816  0.00  0.00    +0.196 C 
BRANCH  12  13
ATOM     13  N   UNL     1      11.508   4.799  23.168  0.00  0.00    -0.279 N 
ATOM     14  H   UNL     1      11.647   4.149  22.403  0.00  0.00    +0.258 HD
ATOM     15  C   UNL     1      12.557   5.545  23.541  0.00  0.00    +0.341 C 
ATOM     16  N   UNL     1      13.715   5.432  22.884  0.00  0.00    -0.292 N 
ATOM     17  H   UNL     1      14.524   5.983  23.141  0.00  0.00    +0.255 HD
ATOM     18  H   UNL     1      13.827   4.790  22.109  0.00  0.00    +0.255 HD
ATOM     19  N   UNL     1      12.480   6.409  24.557  0.00  0.00    -0.292 N 
ATOM     20  H   UNL     1      13.273   6.971  24.838  0.00  0.00    +0.255 HD
ATOM     21  H   UNL     1      11.626   6.520  25.087  0.00  0.00    +0.255 HD
ENDBRANCH  12  13
ENDBRANCH   1  12
TORSDOF 6
ENDMDL
MODEL 2
REMARK VINA RESULT:      -4.9      4.070      7.521
REMARK  Name = 
REMARK  6 active torsions:
REMARK  status: ('A' for Active; 'I' for Inactive)
REMARK    1  A    between atoms: N_1  and  C_2
REMARK    2  A    between atoms: C_2  and  C_4
REMARK    3  A    between atoms: C_2  and  C_13
REMARK    4  A    between atoms: C_4  and  C_5
REMARK    5  A    between atoms: C_5  and  C_6
REMARK    6  A    between atoms: C_6  and  N_7
REMARK                            x       y       z     vdW  Elec       q    Type
REMARK                         _______ _______ _______ _____ _____    ______ ____
ROOT
ATOM      1  C   UNL     1       8.595  -2.628  23.339  0.00  0.00    +0.039 C 
ENDROOT
BRANCH   1   2
ATOM      2  C   UNL     1       8.291  -1.156  23.044  0.00  0.00    +0.031 C 
BRANCH   2   3
ATOM      3  C   UNL     1       9.162  -0.553  21.928  0.00  0.00    +0.138 C 
BRANCH   3   4
ATOM      4  C   UNL     1       9.860   0.755  22.373  0.00  0.00    +0.227 C 
ATOM      5  O   UNL     1      10.535   0.852  23.393  0.00  0.00    -0.274 OA
ATOM      6  N   UNL     1       9.702   1.820  21.536  0.00  0.00    -0.328 N 
ATOM      7  H   UNL     1      10.014   2.720  21.870  0.00  0.00    +0.145 HD
ATOM      8  H   UNL     1       8.889   1.792  20.925  0.00  0.00    +0.145 HD
ENDBRANCH   3   4
BRANCH   3   9
ATOM      9  N   UNL     1      10.176  -1.550  21.503  0.00  0.00    -0.320 NA
ATOM     10  H   UNL     1      10.839  -1.101  20.868  0.00  0.00    +0.119 HD
ATOM     11  H   UNL     1      10.724  -1.846  22.312  0.00  0.00    +0.119 HD
ENDBRANCH   3   9
ENDBRANCH   2   3
ENDBRANCH   1   2
BRANCH   1  12
ATOM     12  C   UNL     1       9.262  -2.810  24.697  0.00  0.00    +0.196 C 
BRANCH  12  13
ATOM     13  N   UNL     1       8.509  -3.774  25.515  0.00  0.00    -0.279 N 
ATOM     14  H   UNL     1       7.576  -3.517  25.818  0.00  0.00    +0.258 HD
ATOM     15  C   UNL     1       8.982  -4.962  25.916  0.00  0.00    +0.341 C 
ATOM     16  N   UNL     1       8.213  -5.762  26.660  0.00  0.00    -0.292 N 
ATOM     17  H   UNL     1       8.541  -6.665  26.976  0.00  0.00    +0.255 HD
ATOM     18  H   UNL     1       7.276  -5.495  26.935  0.00  0.00    +0.255 HD
ATOM     19  N   UNL     1      10.210  -5.376  25.592  0.00  0.00    -0.292 N 
ATOM     20  H   UNL     1      10.567  -6.272  25.896  0.00  0.00    +0.255 HD
ATOM     21  H   UNL     1      10.828  -4.798  25.039  0.00  0.00    +0.255 HD
ENDBRANCH  12  13
ENDBRANCH   1  12
TORSDOF 6
ENDMDL
MODEL 3
REMARK VINA RESULT:      -4.8      7.495      8.644
REMARK  Name = 
REMARK  6 active torsions:
REMARK  status: ('A' for Active; 'I' for Inactive)
REMARK    1  A    between atoms: N_1  and  C_2
REMARK    2  A    between atoms: C_2  and  C_4
REMARK    3  A    between atoms: C_2  and  C_13
REMARK    4  A    between atoms: C_4  and  C_5
REMARK    5  A    between atoms: C_5  and  C_6
REMARK    6  A    between atoms: C_6  and  N_7
REMARK                            x       y       z     vdW  Elec       q    Type
REMARK                         _______ _______ _______ _____ _____    ______ ____
ROOT
ATOM      1  C   UNL     1       8.467  -2.490  23.372  0.00  0.00    +0.039 C 
ENDROOT
BRANCH   1   2
ATOM      2  C   UNL     1       7.106  -3.191  23.309  0.00  0.00    +0.031 C 
BRANCH   2   3
ATOM      3  C   UNL     1       6.912  -4.057  22.052  0.00  0.00    +0.138 C 
BRANCH   3   4
ATOM      4  C   UNL     1       7.163  -5.559  22.332  0.00  0.00    +0.227 C 
ATOM      5  O   UNL     1       8.175  -5.988  22.877  0.00  0.00    -0.274 OA
ATOM      6  N   UNL     1       6.162  -6.403  21.951  0.00  0.00    -0.328 N 
ATOM      7  H   UNL     1       6.359  -7.393  21.980  0.00  0.00    +0.145 HD
ATOM      8  H   UNL     1       5.539  -6.060  21.224  0.00  0.00    +0.145 HD
ENDBRANCH   3   4
BRANCH   3   9
ATOM      9  N   UNL     1       5.536  -3.863  21.529  0.00  0.00    -0.320 NA
ATOM     10  H   UNL     1       4.928  -3.564  22.292  0.00  0.00    +0.119 HD
ATOM     11  H   UNL     1       5.532  -3.098  20.854  0.00  0.00    +0.119 HD
ENDBRANCH   3   9
ENDBRANCH   2   3
ENDBRANCH   1   2
BRANCH   1  12
ATOM     12  C   UNL     1       9.404  -3.157  24.373  0.00  0.00    +0.196 C 
BRANCH  12  13
ATOM     13  N   UNL     1       8.634  -3.891  25.388  0.00  0.00    -0.279 N 
ATOM     14  H   UNL     1       7.785  -3.466  25.743  0.00  0.00    +0.258 HD
ATOM     15  C   UNL     1       8.992  -5.075  25.904  0.00  0.00    +0.341 C 
ATOM     16  N   UNL     1       8.219  -5.656  26.825  0.00  0.00    -0.292 N 
ATOM     17  H   UNL     1       8.462  -6.550  27.231  0.00  0.00    +0.255 HD
ATOM     18  H   UNL     1       7.364  -5.223  27.152  0.00  0.00    +0.255 HD
ATOM     19  N   UNL     1      10.109  -5.699  25.520  0.00  0.00    -0.292 N 
ATOM     20  H   UNL     1      10.380  -6.593  25.910  0.00  0.00    +0.255 HD
ATOM     21  H   UNL     1      10.728  -5.292  24.832  0.00  0.00    +0.255 HD
ENDBRANCH  12  13
ENDBRANCH   1  12
TORSDOF 6
ENDMDL
MODEL 4
REMARK VINA RESULT:      -4.8      2.747      3.924
REMARK  Name = 
REMARK  6 active torsions:
REMARK  status: ('A' for Active; 'I' for Inactive)
REMARK    1  A    between atoms: N_1  and  C_2
REMARK    2  A    between atoms: C_2  and  C_4
REMARK    3  A    between atoms: C_2  and  C_13
REMARK    4  A    between atoms: C_4  and  C_5
REMARK    5  A    between atoms: C_5  and  C_6
REMARK    6  A    between atoms: C_6  and  N_7
REMARK                            x       y       z     vdW  Elec       q    Type
REMARK                         _______ _______ _______ _____ _____    ______ ____
ROOT
ATOM      1  C   UNL     1       7.900   2.195  21.651  0.00  0.00    +0.039 C 
ENDROOT
BRANCH   1   2
ATOM      2  C   UNL     1       9.340   1.842  22.038  0.00  0.00    +0.031 C 
BRANCH   2   3
ATOM      3  C   UNL     1       9.795   2.463  23.370  0.00  0.00    +0.138 C 
BRANCH   3   4
ATOM      4  C   UNL     1      10.235   1.390  24.395  0.00  0.00    +0.227 C 
ATOM      5  O   UNL     1      11.347   0.872  24.402  0.00  0.00    -0.274 OA
ATOM      6  N   UNL     1       9.304   1.058  25.334  0.00  0.00    -0.328 N 
ATOM      7  H   UNL     1       9.503   0.259  25.918  0.00  0.00    +0.145 HD
ATOM      8  H   UNL     1       8.334   1.240  25.086  0.00  0.00    +0.145 HD
ENDBRANCH   3   4
BRANCH   3   9
ATOM      9  N   UNL     1      10.911   3.409  23.116  0.00  0.00    -0.320 NA
ATOM     10  H   UNL     1      11.723   2.886  22.783  0.00  0.00    +0.119 HD
ATOM     11  H   UNL     1      10.657   4.041  22.356  0.00  0.00    +0.119 HD
ENDBRANCH   3   9
ENDBRANCH   2   3
ENDBRANCH   1   2
BRANCH   1  12
ATOM     12  C   UNL     1       7.269   3.172  22.638  0.00  0.00    +0.196 C 
BRANCH  12  13
ATOM     13  N   UNL     1       6.849   4.401  21.947  0.00  0.00    -0.279 N 
ATOM     14  H   UNL     1       6.027   4.359  21.356  0.00  0.00    +0.258 HD
ATOM     15  C   UNL     1       7.499   5.571  22.017  0.00  0.00    +0.341 C 
ATOM     16  N   UNL     1       7.033   6.627  21.346  0.00  0.00    -0.292 N 
ATOM     17  H   UNL     1       7.500   7.524  21.382  0.00  0.00    +0.255 HD
ATOM     18  H   UNL     1       6.198   6.570  20.777  0.00  0.00    +0.255 HD
ATOM     19  N   UNL     1       8.609   5.715  22.746  0.00  0.00    -0.292 N 
ATOM     20  H   UNL     1       9.100   6.598  22.799  0.00  0.00    +0.255 HD
ATOM     21  H   UNL     1       9.002   4.940  23.262  0.00  0.00    +0.255 HD
ENDBRANCH  12  13
ENDBRANCH   1  12
TORSDOF 6
ENDMDL
MODEL 5
REMARK VINA RESULT:      -4.8      2.593      3.835
REMARK  Name = 
REMARK  6 active torsions:
REMARK  status: ('A' for Active; 'I' for Inactive)
REMARK    1  A    between atoms: N_1  and  C_2
REMARK    2  A    between atoms: C_2  and  C_4
REMARK    3  A    between atoms: C_2  and  C_13
REMARK    4  A    between atoms: C_4  and  C_5
REMARK    5  A    between atoms: C_5  and  C_6
REMARK    6  A    between atoms: C_6  and  N_7
REMARK                            x       y       z     vdW  Elec       q    Type
REMARK                         _______ _______ _______ _____ _____    ______ ____
ROOT
ATOM      1  C   UNL     1       9.737  -0.434  24.530  0.00  0.00    +0.039 C 
ENDROOT
BRANCH   1   2
ATOM      2  C   UNL     1       9.739  -1.611  23.551  0.00  0.00    +0.031 C 
BRANCH   2   3
ATOM      3  C   UNL     1       8.778  -1.432  22.362  0.00  0.00    +0.138 C 
BRANCH   3   4
ATOM      4  C   UNL     1       7.562  -0.544  22.720  0.00  0.00    +0.227 C 
ATOM      5  O   UNL     1       7.542   0.674  22.569  0.00  0.00    -0.274 OA
ATOM      6  N   UNL     1       6.474  -1.206  23.205  0.00  0.00    -0.328 N 
ATOM      7  H   UNL     1       5.726  -0.646  23.588  0.00  0.00    +0.145 HD
ATOM      8  H   UNL     1       6.653  -2.116  23.624  0.00  0.00    +0.145 HD
ENDBRANCH   3   4
BRANCH   3   9
ATOM      9  N   UNL     1       9.517  -0.842  21.217  0.00  0.00    -0.320 NA
ATOM     10  H   UNL     1      10.319  -1.434  20.997  0.00  0.00    +0.119 HD
ATOM     11  H   UNL     1       8.926  -0.854  20.386  0.00  0.00    +0.119 HD
ENDBRANCH   3   9
ENDBRANCH   2   3
ENDBRANCH   1   2
BRANCH   1  12
ATOM     12  C   UNL     1      10.804   0.598  24.182  0.00  0.00    +0.196 C 
BRANCH  12  13
ATOM     13  N   UNL     1      10.220   1.948  24.145  0.00  0.00    -0.279 N 
ATOM     14  H   UNL     1       9.985   2.391  25.026  0.00  0.00    +0.258 HD
ATOM     15  C   UNL     1       9.945   2.626  23.022  0.00  0.00    +0.341 C 
ATOM     16  N   UNL     1       9.412   3.848  23.102  0.00  0.00    -0.292 N 
ATOM     17  H   UNL     1       9.196   4.385  22.272  0.00  0.00    +0.255 HD
ATOM     18  H   UNL     1       9.203   4.281  23.992  0.00  0.00    +0.255 HD
ATOM     19  N   UNL     1      10.192   2.113  21.814  0.00  0.00    -0.292 N 
ATOM     20  H   UNL     1       9.984   2.625  20.966  0.00  0.00    +0.255 HD
ATOM     21  H   UNL     1      10.586   1.188  21.707  0.00  0.00    +0.255 HD
ENDBRANCH  12  13
ENDBRANCH   1  12
TORSDOF 6
ENDMDL
MODEL 6
REMARK VINA RESULT:      -4.8      5.629      7.844
REMARK  Name = 
REMARK  6 active torsions:
REMARK  status: ('A' for Active; 'I' for Inactive)
REMARK    1  A    between atoms: N_1  and  C_2
REMARK    2  A    between atoms: C_2  and  C_4
REMARK    3  A    between atoms: C_2  and  C_13
REMARK    4  A    between atoms: C_4  and  C_5
REMARK    5  A    between atoms: C_5  and  C_6
REMARK    6  A    between atoms: C_6  and  N_7
REMARK                            x       y       z     vdW  Elec       q    Type
REMARK                         _______ _______ _______ _____ _____    ______ ____
ROOT
ATOM      1  C   UNL     1       6.675  -2.779  24.842  0.00  0.00    +0.039 C 
ENDROOT
BRANCH   1   2
ATOM      2  C   UNL     1       7.186  -1.685  23.900  0.00  0.00    +0.031 C 
BRANCH   2   3
ATOM      3  C   UNL     1       7.840  -2.226  22.616  0.00  0.00    +0.138 C 
BRANCH   3   4
ATOM      4  C   UNL     1       9.352  -1.901  22.548  0.00  0.00    +0.227 C 
ATOM      5  O   UNL     1      10.157  -2.230  23.413  0.00  0.00    -0.274 OA
ATOM      6  N   UNL     1       9.760  -1.232  21.432  0.00  0.00    -0.328 N 
ATOM      7  H   UNL     1      10.704  -0.874  21.428  0.00  0.00    +0.145 HD
ATOM      8  H   UNL     1       9.044  -0.699  20.943  0.00  0.00    +0.145 HD
ENDBRANCH   3   4
BRANCH   3   9
ATOM      9  N   UNL     1       7.633  -3.694  22.539  0.00  0.00    -0.320 NA
ATOM     10  H   UNL     1       8.541  -4.160  22.558  0.00  0.00    +0.119 HD
ATOM     11  H   UNL     1       7.139  -4.013  23.373  0.00  0.00    +0.119 HD
ENDBRANCH   3   9
ENDBRANCH   2   3
ENDBRANCH   1   2
BRANCH   1  12
ATOM     12  C   UNL     1       7.577  -2.951  26.059  0.00  0.00    +0.196 C 
BRANCH  12  13
ATOM     13  N   UNL     1       8.803  -3.676  25.691  0.00  0.00    -0.279 N 
ATOM     14  H   UNL     1       9.490  -3.195  25.122  0.00  0.00    +0.258 HD
ATOM     15  C   UNL     1       9.063  -4.947  26.028  0.00  0.00    +0.341 C 
ATOM     16  N   UNL     1      10.209  -5.512  25.639  0.00  0.00    -0.292 N 
ATOM     17  H   UNL     1      10.435  -6.468  25.881  0.00  0.00    +0.255 HD
ATOM     18  H   UNL     1      10.892  -5.007  25.088  0.00  0.00    +0.255 HD
ATOM     19  N   UNL     1       8.205  -5.672  26.750  0.00  0.00    -0.292 N 
ATOM     20  H   UNL     1       8.401  -6.631  27.005  0.00  0.00    +0.255 HD
ATOM     21  H   UNL     1       7.322  -5.287  27.058  0.00  0.00    +0.255 HD
ENDBRANCH  12  13
ENDBRANCH   1  12
TORSDOF 6
ENDMDL
MODEL 7
REMARK VINA RESULT:      -4.7      4.217      6.507
REMARK  Name = 
REMARK  6 active torsions:
REMARK  status: ('A' for Active; 'I' for Inactive)
REMARK    1  A    between atoms: N_1  and  C_2
REMARK    2  A    between atoms: C_2  and  C_4
REMARK    3  A    between atoms: C_2  and  C_13
REMARK    4  A    between atoms: C_4  and  C_5
REMARK    5  A    between atoms: C_5  and  C_6
REMARK    6  A    between atoms: C_6  and  N_7
REMARK                            x       y       z     vdW  Elec       q    Type
REMARK                         _______ _______ _______ _____ _____    ______ ____
ROOT
ATOM      1  C   UNL     1       9.612  -2.225  23.506  0.00  0.00    +0.039 C 
ENDROOT
BRANCH   1   2
ATOM      2  C   UNL     1       8.838  -3.457  23.984  0.00  0.00    +0.031 C 
BRANCH   2   3
ATOM      3  C   UNL     1       9.406  -4.088  25.268  0.00  0.00    +0.138 C 
BRANCH   3   4
ATOM      4  C   UNL     1       8.302  -4.387  26.311  0.00  0.00    +0.227 C 
ATOM      5  O   UNL     1       7.523  -3.541  26.737  0.00  0.00    -0.274 OA
ATOM      6  N   UNL     1       8.223  -5.683  26.728  0.00  0.00    -0.328 N 
ATOM      7  H   UNL     1       7.619  -5.878  27.514  0.00  0.00    +0.145 HD
ATOM      8  H   UNL     1       9.068  -6.240  26.624  0.00  0.00    +0.145 HD
ENDBRANCH   3   4
BRANCH   3   9
ATOM      9  N   UNL     1      10.129  -5.338  24.924  0.00  0.00    -0.320 NA
ATOM     10  H   UNL     1       9.863  -6.070  25.584  0.00  0.00    +0.119 HD
ATOM     11  H   UNL     1       9.824  -5.668  24.007  0.00  0.00    +0.119 HD
ENDBRANCH   3   9
ENDBRANCH   2   3
ENDBRANCH   1   2
BRANCH   1  12
ATOM     12  C   UNL     1       9.200  -1.804  22.100  0.00  0.00    +0.196 C 
BRANCH  12  13
ATOM     13  N   UNL     1       9.829  -0.522  21.743  0.00  0.00    -0.279 N 
ATOM     14  H   UNL     1      10.784  -0.538  21.405  0.00  0.00    +0.258 HD
ATOM     15  C   UNL     1       9.236   0.674  21.863  0.00  0.00    +0.341 C 
ATOM     16  N   UNL     1       9.900   1.778  21.511  0.00  0.00    -0.292 N 
ATOM     17  H   UNL     1       9.479   2.694  21.588  0.00  0.00    +0.255 HD
ATOM     18  H   UNL     1      10.847   1.740  21.157  0.00  0.00    +0.255 HD
ATOM     19  N   UNL     1       7.990   0.797  22.327  0.00  0.00    -0.292 N 
ATOM     20  H   UNL     1       7.543   1.700  22.417  0.00  0.00    +0.255 HD
ATOM     21  H   UNL     1       7.454  -0.012  22.613  0.00  0.00    +0.255 HD
ENDBRANCH  12  13
ENDBRANCH   1  12
TORSDOF 6
ENDMDL
MODEL 8
REMARK VINA RESULT:      -4.7      4.015      5.869
REMARK  Name = 
REMARK  6 active torsions:
REMARK  status: ('A' for Active; 'I' for Inactive)
REMARK    1  A    between atoms: N_1  and  C_2
REMARK    2  A    between atoms: C_2  and  C_4
REMARK    3  A    between atoms: C_2  and  C_13
REMARK    4  A    between atoms: C_4  and  C_5
REMARK    5  A    between atoms: C_5  and  C_6
REMARK    6  A    between atoms: C_6  and  N_7
REMARK                            x       y       z     vdW  Elec       q    Type
REMARK                         _______ _______ _______ _____ _____    ______ ____
ROOT
ATOM      1  C   UNL     1       9.696  -1.564  24.185  0.00  0.00    +0.039 C 
ENDROOT
BRANCH   1   2
ATOM      2  C   UNL     1       9.661  -3.096  24.197  0.00  0.00    +0.031 C 
BRANCH   2   3
ATOM      3  C   UNL     1       8.496  -3.684  25.013  0.00  0.00    +0.138 C 
BRANCH   3   4
ATOM      4  C   UNL     1       8.979  -4.715  26.062  0.00  0.00    +0.227 C 
ATOM      5  O   UNL     1       8.395  -4.935  27.117  0.00  0.00    -0.274 OA
ATOM      6  N   UNL     1      10.108  -5.405  25.731  0.00  0.00    -0.328 N 
ATOM      7  H   UNL     1      10.532  -5.970  26.453  0.00  0.00    +0.145 HD
ATOM      8  H   UNL     1      10.721  -4.961  25.050  0.00  0.00    +0.145 HD
ENDBRANCH   3   4
BRANCH   3   9
ATOM      9  N   UNL     1       7.761  -2.584  25.685  0.00  0.00    -0.320 NA
ATOM     10  H   UNL     1       7.232  -2.967  26.470  0.00  0.00    +0.119 HD
ATOM     11  H   UNL     1       8.427  -1.927  26.093  0.00  0.00    +0.119 HD
ENDBRANCH   3   9
ENDBRANCH   2   3
ENDBRANCH   1   2
BRANCH   1  12
ATOM     12  C   UNL     1       9.579  -1.003  22.772  0.00  0.00    +0.196 C 
BRANCH  12  13
ATOM     13  N   UNL     1      10.185   0.336  22.701  0.00  0.00    -0.279 N 
ATOM     14  H   UNL     1      10.941   0.553  23.339  0.00  0.00    +0.258 HD
ATOM     15  C   UNL     1       9.784   1.307  21.868  0.00  0.00    +0.341 C 
ATOM     16  N   UNL     1      10.403   2.490  21.886  0.00  0.00    -0.292 N 
ATOM     17  H   UNL     1      10.125   3.241  21.268  0.00  0.00    +0.255 HD
ATOM     18  H   UNL     1      11.170   2.680  22.519  0.00  0.00    +0.255 HD
ATOM     19  N   UNL     1       8.776   1.125  21.010  0.00  0.00    -0.292 N 
ATOM     20  H   UNL     1       8.474   1.858  20.382  0.00  0.00    +0.255 HD
ATOM     21  H   UNL     1       8.274   0.249  20.969  0.00  0.00    +0.255 HD
ENDBRANCH  12  13
ENDBRANCH   1  12
TORSDOF 6
ENDMDL
MODEL 9
REMARK VINA RESULT:      -4.6      4.463      7.465
REMARK  Name = 
REMARK  6 active torsions:
REMARK  status: ('A' for Active; 'I' for Inactive)
REMARK    1  A    between atoms: N_1  and  C_2
REMARK    2  A    between atoms: C_2  and  C_4
REMARK    3  A    between atoms: C_2  and  C_13
REMARK    4  A    between atoms: C_4  and  C_5
REMARK    5  A    between atoms: C_5  and  C_6
REMARK    6  A    between atoms: C_6  and  N_7
REMARK                            x       y       z     vdW  Elec       q    Type
REMARK                         _______ _______ _______ _____ _____    ______ ____
ROOT
ATOM      1  C   UNL     1       8.491  -1.447  26.023  0.00  0.00    +0.039 C 
ENDROOT
BRANCH   1   2
ATOM      2  C   UNL     1       8.522  -0.657  24.712  0.00  0.00    +0.031 C 
BRANCH   2   3
ATOM      3  C   UNL     1       9.927  -0.531  24.096  0.00  0.00    +0.138 C 
BRANCH   3   4
ATOM      4  C   UNL     1      10.163  -1.558  22.962  0.00  0.00    +0.227 C 
ATOM      5  O   UNL     1      10.516  -2.717  23.158  0.00  0.00    -0.274 OA
ATOM      6  N   UNL     1       9.928  -1.103  21.698  0.00  0.00    -0.328 N 
ATOM      7  H   UNL     1      10.217  -1.696  20.934  0.00  0.00    +0.145 HD
ATOM      8  H   UNL     1       9.981  -0.095  21.568  0.00  0.00    +0.145 HD
ENDBRANCH   3   4
BRANCH   3   9
ATOM      9  N   UNL     1      10.115   0.847  23.578  0.00  0.00    -0.320 NA
ATOM     10  H   UNL     1       9.997   1.511  24.344  0.00  0.00    +0.119 HD
ATOM     11  H   UNL     1      11.076   0.963  23.255  0.00  0.00    +0.119 HD
ENDBRANCH   3   9
ENDBRANCH   2   3
ENDBRANCH   1   2
BRANCH   1  12
ATOM     12  C   UNL     1       7.913  -2.845  25.832  0.00  0.00    +0.196 C 
BRANCH  12  13
ATOM     13  N   UNL     1       8.978  -3.797  25.477  0.00  0.00    -0.279 N 
ATOM     14  H   UNL     1       9.672  -3.506  24.798  0.00  0.00    +0.258 HD
ATOM     15  C   UNL     1       9.079  -5.040  25.968  0.00  0.00    +0.341 C 
ATOM     16  N   UNL     1      10.087  -5.824  25.576  0.00  0.00    -0.292 N 
ATOM     17  H   UNL     1      10.191  -6.766  25.930  0.00  0.00    +0.255 HD
ATOM     18  H   UNL     1      10.781  -5.508  24.911  0.00  0.00    +0.255 HD
ATOM     19  N   UNL     1       8.196  -5.523  26.846  0.00  0.00    -0.292 N 
ATOM     20  H   UNL     1       8.273  -6.462  27.215  0.00  0.00    +0.255 HD
ATOM     21  H   UNL     1       7.413  -4.967  27.162  0.00  0.00    +0.255 HD
ENDBRANCH  12  13
ENDBRANCH   1  12
TORSDOF 6
ENDMDL
