MODEL 1
REMARK VINA RESULT:      -7.9      0.000      0.000
REMARK  Name = 
REMARK  6 active torsions:
REMARK  status: ('A' for Active; 'I' for Inactive)
REMARK    1  A    between atoms: N_1  and  S_2
REMARK    2  A    between atoms: S_2  and  C_5
REMARK    3  A    between atoms: C_8  and  N_9
REMARK    4  A    between atoms: N_9  and  C_10
REMARK    5  A    between atoms: C_14  and  C_19
REMARK    6  A    between atoms: C_19  and  C_21
REMARK                            x       y       z     vdW  Elec       q    Type
REMARK                         _______ _______ _______ _____ _____    ______ ____
ROOT
ATOM      1  C   UNL     1       9.373  -1.420  23.330  0.00  0.00    +0.142 A 
ATOM      2  N   UNL     1      10.179  -2.440  23.749  0.00  0.00    -0.213 NA
ATOM      3  C   UNL     1       9.378  -3.307  24.314  0.00  0.00    +0.140 A 
ATOM      4  N   UNL     1       8.058  -2.881  24.279  0.00  0.00    -0.304 N 
ATOM      5  C   UNL     1       7.002  -3.618  24.808  0.00  0.00    +0.104 A 
ATOM      6  C   UNL     1       7.256  -4.817  25.383  0.00  0.00    +0.039 A 
ATOM      7  C   UNL     1       8.649  -5.253  25.500  0.00  0.00    +0.017 A 
ATOM      8  C   UNL     1       9.654  -4.546  24.951  0.00  0.00    +0.047 A 
ATOM      9  C   UNL     1       8.052  -1.669  23.618  0.00  0.00    +0.136 A 
ENDROOT
BRANCH   1  10
ATOM     10  N   UNL     1       9.878  -0.338  22.702  0.00  0.00    -0.298 N 
ATOM     11  H   UNL     1      10.500  -0.462  21.912  0.00  0.00    +0.154 HD
BRANCH  10  15
ATOM     12  C   UNL     1       8.540   3.644  23.124  0.00  0.00    +0.105 A 
ATOM     13  C   UNL     1       8.013   2.849  22.111  0.00  0.00    +0.030 A 
ATOM     14  C   UNL     1       8.451   1.531  21.980  0.00  0.00    +0.025 A 
ATOM     15  C   UNL     1       9.432   0.998  22.834  0.00  0.00    +0.033 A 
ATOM     16  C   UNL     1       9.914   1.801  23.877  0.00  0.00    +0.025 A 
ATOM     17  C   UNL     1       9.469   3.121  24.028  0.00  0.00    +0.030 A 
BRANCH  12  18
ATOM     18  S   UNL     1       8.067   5.339  23.221  0.00  0.00    +0.056 S 
ATOM     19  O   UNL     1       6.949   5.482  24.132  0.00  0.00    -0.153 OA
ATOM     20  O   UNL     1       9.248   6.160  23.306  0.00  0.00    -0.153 OA
BRANCH  18  21
ATOM     21  N   UNL     1       7.413   5.596  21.693  0.00  0.00    -0.204 NA
ATOM     22  H   UNL     1       6.574   6.170  21.761  0.00  0.00    +0.144 HD
ATOM     23  H   UNL     1       8.132   5.977  21.077  0.00  0.00    +0.144 HD
ENDBRANCH  18  21
ENDBRANCH  12  18
ENDBRANCH  10  15
ENDBRANCH   1  10
BRANCH   6  24
ATOM     24  C   UNL     1       6.076  -5.650  25.777  0.00  0.00    +0.197 C 
ATOM     25  O   UNL     1       6.144  -6.413  26.742  0.00  0.00    -0.287 OA
BRANCH  24  26
ATOM     26  C   UNL     1       4.788  -5.529  25.039  0.00  0.00    +0.059 A 
ATOM     27  C   UNL     1       4.669  -5.888  23.682  0.00  0.00    +0.053 A 
ATOM     28 CL   UNL     1       5.995  -6.422  22.704  0.00  0.00    -0.083 Cl
ATOM     29  C   UNL     1       3.446  -5.752  23.010  0.00  0.00    +0.021 A 
ATOM     30  C   UNL     1       2.351  -5.179  23.646  0.00  0.00    +0.003 A 
ATOM     31  C   UNL     1       2.469  -4.762  24.968  0.00  0.00    +0.021 A 
ATOM     32  C   UNL     1       3.669  -4.952  25.671  0.00  0.00    +0.053 A 
ATOM     33 CL   UNL     1       3.655  -4.465  27.332  0.00  0.00    -0.083 Cl
ENDBRANCH  24  26
ENDBRANCH   6  24
TORSDOF 6
ENDMDL
MODEL 2
REMARK VINA RESULT:      -7.9      4.315      9.528
REMARK  Name = 
REMARK  6 active torsions:
REMARK  status: ('A' for Active; 'I' for Inactive)
REMARK    1  A    between atoms: N_1  and  S_2
REMARK    2  A    between atoms: S_2  and  C_5
REMARK    3  A    between atoms: C_8  and  N_9
REMARK    4  A    between atoms: N_9  and  C_10
REMARK    5  A    between atoms: C_14  and  C_19
REMARK    6  A    between atoms: C_19  and  C_21
REMARK                            x       y       z     vdW  Elec       q    Type
REMARK                         _______ _______ _______ _____ _____    ______ ____
ROOT
ATOM      1  C   UNL     1       8.714  -2.256  23.905  0.00  0.00    +0.142 A 
ATOM      2  N   UNL     1       9.853  -1.692  24.405  0.00  0.00    -0.213 NA
ATOM      3  C   UNL     1       9.720  -0.404  24.209  0.00  0.00    +0.140 A 
ATOM      4  N   UNL     1       8.515  -0.105  23.589  0.00  0.00    -0.304 N 
ATOM      5  C   UNL     1       8.122   1.191  23.269  0.00  0.00    +0.104 A 
ATOM      6  C   UNL     1       8.939   2.226  23.579  0.00  0.00    +0.039 A 
ATOM      7  C   UNL     1      10.248   1.929  24.164  0.00  0.00    +0.017 A 
ATOM      8  C   UNL     1      10.597   0.673  24.500  0.00  0.00    +0.047 A 
ATOM      9  C   UNL     1       7.852  -1.303  23.414  0.00  0.00    +0.136 A 
ENDROOT
BRANCH   1  10
ATOM     10  N   UNL     1       8.519  -3.590  23.936  0.00  0.00    -0.298 N 
ATOM     11  H   UNL     1       9.137  -4.199  23.413  0.00  0.00    +0.154 HD
BRANCH  10  15
ATOM     12  C   UNL     1       6.104  -5.731  26.657  0.00  0.00    +0.105 A 
ATOM     13  C   UNL     1       5.675  -5.568  25.344  0.00  0.00    +0.030 A 
ATOM     14  C   UNL     1       6.479  -4.868  24.446  0.00  0.00    +0.025 A 
ATOM     15  C   UNL     1       7.702  -4.301  24.845  0.00  0.00    +0.033 A 
ATOM     16  C   UNL     1       8.137  -4.518  26.160  0.00  0.00    +0.025 A 
ATOM     17  C   UNL     1       7.345  -5.235  27.067  0.00  0.00    +0.030 A 
BRANCH  12  18
ATOM     18  S   UNL     1       5.039  -6.521  27.818  0.00  0.00    +0.056 S 
ATOM     19  O   UNL     1       5.772  -7.545  28.536  0.00  0.00    -0.153 OA
ATOM     20  O   UNL     1       4.239  -5.527  28.487  0.00  0.00    -0.153 OA
BRANCH  18  21
ATOM     21  N   UNL     1       4.000  -7.368  26.802  0.00  0.00    -0.204 NA
ATOM     22  H   UNL     1       3.265  -6.752  26.458  0.00  0.00    +0.144 HD
ATOM     23  H   UNL     1       4.542  -7.823  26.067  0.00  0.00    +0.144 HD
ENDBRANCH  18  21
ENDBRANCH  12  18
ENDBRANCH  10  15
ENDBRANCH   1  10
BRANCH   6  24
ATOM     24  C   UNL     1       8.399   3.608  23.378  0.00  0.00    +0.197 C 
ATOM     25  O   UNL     1       7.849   3.916  22.320  0.00  0.00    -0.287 OA
BRANCH  24  26
ATOM     26  C   UNL     1       8.474   4.613  24.475  0.00  0.00    +0.059 A 
ATOM     27  C   UNL     1       9.526   5.545  24.562  0.00  0.00    +0.053 A 
ATOM     28 CL   UNL     1      10.878   5.581  23.479  0.00  0.00    -0.083 Cl
ATOM     29  C   UNL     1       9.577   6.472  25.613  0.00  0.00    +0.021 A 
ATOM     30  C   UNL     1       8.637   6.431  26.635  0.00  0.00    +0.003 A 
ATOM     31  C   UNL     1       7.625   5.477  26.597  0.00  0.00    +0.021 A 
ATOM     32  C   UNL     1       7.527   4.585  25.517  0.00  0.00    +0.053 A 
ATOM     33 CL   UNL     1       6.175   3.505  25.551  0.00  0.00    -0.083 Cl
ENDBRANCH  24  26
ENDBRANCH   6  24
TORSDOF 6
ENDMDL
MODEL 3
REMARK VINA RESULT:      -7.8      4.340      9.636
REMARK  Name = 
REMARK  6 active torsions:
REMARK  status: ('A' for Active; 'I' for Inactive)
REMARK    1  A    between atoms: N_1  and  S_2
REMARK    2  A    between atoms: S_2  and  C_5
REMARK    3  A    between atoms: C_8  and  N_9
REMARK    4  A    between atoms: N_9  and  C_10
REMARK    5  A    between atoms: C_14  and  C_19
REMARK    6  A    between atoms: C_19  and  C_21
REMARK                            x       y       z     vdW  Elec       q    Type
REMARK                         _______ _______ _______ _____ _____    ______ ____
ROOT
ATOM      1  C   UNL     1       8.678  -2.255  23.909  0.00  0.00    +0.142 A 
ATOM      2  N   UNL     1       9.845  -1.721  24.374  0.00  0.00    -0.213 NA
ATOM      3  C   UNL     1       9.729  -0.428  24.205  0.00  0.00    +0.140 A 
ATOM      4  N   UNL     1       8.508  -0.095  23.636  0.00  0.00    -0.304 N 
ATOM      5  C   UNL     1       8.128   1.213  23.353  0.00  0.00    +0.104 A 
ATOM      6  C   UNL     1       8.976   2.227  23.647  0.00  0.00    +0.039 A 
ATOM      7  C   UNL     1      10.300   1.896  24.178  0.00  0.00    +0.017 A 
ATOM      8  C   UNL     1      10.638   0.628  24.479  0.00  0.00    +0.047 A 
ATOM      9  C   UNL     1       7.816  -1.278  23.468  0.00  0.00    +0.136 A 
ENDROOT
BRANCH   1  10
ATOM     10  N   UNL     1       8.458  -3.585  23.926  0.00  0.00    -0.298 N 
ATOM     11  H   UNL     1       9.041  -4.197  23.366  0.00  0.00    +0.154 HD
BRANCH  10  15
ATOM     12  C   UNL     1       6.121  -5.729  26.714  0.00  0.00    +0.105 A 
ATOM     13  C   UNL     1       5.664  -5.582  25.408  0.00  0.00    +0.030 A 
ATOM     14  C   UNL     1       6.443  -4.881  24.488  0.00  0.00    +0.025 A 
ATOM     15  C   UNL     1       7.667  -4.297  24.858  0.00  0.00    +0.033 A 
ATOM     16  C   UNL     1       8.130  -4.498  26.165  0.00  0.00    +0.025 A 
ATOM     17  C   UNL     1       7.365  -5.215  27.095  0.00  0.00    +0.030 A 
BRANCH  12  18
ATOM     18  S   UNL     1       5.089  -6.520  27.902  0.00  0.00    +0.056 S 
ATOM     19  O   UNL     1       5.845  -7.536  28.607  0.00  0.00    -0.153 OA
ATOM     20  O   UNL     1       4.299  -5.527  28.586  0.00  0.00    -0.153 OA
BRANCH  18  21
ATOM     21  N   UNL     1       4.031  -7.378  26.915  0.00  0.00    -0.204 NA
ATOM     22  H   UNL     1       3.239  -6.792  26.656  0.00  0.00    +0.144 HD
ATOM     23  H   UNL     1       4.545  -7.760  26.120  0.00  0.00    +0.144 HD
ENDBRANCH  18  21
ENDBRANCH  12  18
ENDBRANCH  10  15
ENDBRANCH   1  10
BRANCH   6  24
ATOM     24  C   UNL     1       8.455   3.622  23.491  0.00  0.00    +0.197 C 
ATOM     25  O   UNL     1       7.910   3.971  22.442  0.00  0.00    -0.287 OA
BRANCH  24  26
ATOM     26  C   UNL     1       8.542   4.591  24.619  0.00  0.00    +0.059 A 
ATOM     27  C   UNL     1       7.563   4.649  25.629  0.00  0.00    +0.053 A 
ATOM     28 CL   UNL     1       6.125   3.683  25.639  0.00  0.00    -0.083 Cl
ATOM     29  C   UNL     1       7.666   5.580  26.673  0.00  0.00    +0.021 A 
ATOM     30  C   UNL     1       8.690   6.520  26.681  0.00  0.00    +0.003 A 
ATOM     31  C   UNL     1       9.632   6.515  25.658  0.00  0.00    +0.021 A 
ATOM     32  C   UNL     1       9.576   5.548  24.642  0.00  0.00    +0.053 A 
ATOM     33 CL   UNL     1      10.854   5.603  23.476  0.00  0.00    -0.083 Cl
ENDBRANCH  24  26
ENDBRANCH   6  24
TORSDOF 6
ENDMDL
MODEL 4
REMARK VINA RESULT:      -7.8      0.156      1.686
REMARK  Name = 
REMARK  6 active torsions:
REMARK  status: ('A' for Active; 'I' for Inactive)
REMARK    1  A    between atoms: N_1  and  S_2
REMARK    2  A    between atoms: S_2  and  C_5
REMARK    3  A    between atoms: C_8  and  N_9
REMARK    4  A    between atoms: N_9  and  C_10
REMARK    5  A    between atoms: C_14  and  C_19
REMARK    6  A    between atoms: C_19  and  C_21
REMARK                            x       y       z     vdW  Elec       q    Type
REMARK                         _______ _______ _______ _____ _____    ______ ____
ROOT
ATOM      1  C   UNL     1       9.356  -1.349  23.350  0.00  0.00    +0.142 A 
ATOM      2  N   UNL     1      10.150  -2.377  23.772  0.00  0.00    -0.213 NA
ATOM      3  C   UNL     1       9.336  -3.242  24.325  0.00  0.00    +0.140 A 
ATOM      4  N   UNL     1       8.020  -2.805  24.278  0.00  0.00    -0.304 N 
ATOM      5  C   UNL     1       6.954  -3.537  24.793  0.00  0.00    +0.104 A 
ATOM      6  C   UNL     1       7.192  -4.741  25.365  0.00  0.00    +0.039 A 
ATOM      7  C   UNL     1       8.581  -5.188  25.494  0.00  0.00    +0.017 A 
ATOM      8  C   UNL     1       9.597  -4.485  24.958  0.00  0.00    +0.047 A 
ATOM      9  C   UNL     1       8.030  -1.590  23.623  0.00  0.00    +0.136 A 
ENDROOT
BRANCH   1  10
ATOM     10  N   UNL     1       9.875  -0.268  22.733  0.00  0.00    -0.298 N 
ATOM     11  H   UNL     1      10.512  -0.393  21.955  0.00  0.00    +0.154 HD
BRANCH  10  15
ATOM     12  C   UNL     1       8.539   3.716  23.132  0.00  0.00    +0.105 A 
ATOM     13  C   UNL     1       8.025   2.921  22.112  0.00  0.00    +0.030 A 
ATOM     14  C   UNL     1       8.462   1.603  21.989  0.00  0.00    +0.025 A 
ATOM     15  C   UNL     1       9.430   1.069  22.857  0.00  0.00    +0.033 A 
ATOM     16  C   UNL     1       9.899   1.872  23.906  0.00  0.00    +0.025 A 
ATOM     17  C   UNL     1       9.454   3.193  24.050  0.00  0.00    +0.030 A 
BRANCH  12  18
ATOM     18  S   UNL     1       8.068   5.412  23.221  0.00  0.00    +0.056 S 
ATOM     19  O   UNL     1       6.957   5.563  24.140  0.00  0.00    -0.153 OA
ATOM     20  O   UNL     1       9.249   6.234  23.290  0.00  0.00    -0.153 OA
BRANCH  18  21
ATOM     21  N   UNL     1       7.401   5.659  21.696  0.00  0.00    -0.204 NA
ATOM     22  H   UNL     1       6.425   5.365  21.687  0.00  0.00    +0.144 HD
ATOM     23  H   UNL     1       7.547   6.629  21.416  0.00  0.00    +0.144 HD
ENDBRANCH  18  21
ENDBRANCH  12  18
ENDBRANCH  10  15
ENDBRANCH   1  10
BRANCH   6  24
ATOM     24  C   UNL     1       6.002  -5.567  25.742  0.00  0.00    +0.197 C 
ATOM     25  O   UNL     1       6.089  -6.422  26.624  0.00  0.00    -0.287 OA
BRANCH  24  26
ATOM     26  C   UNL     1       4.683  -5.330  25.092  0.00  0.00    +0.059 A 
ATOM     27  C   UNL     1       3.592  -4.784  25.795  0.00  0.00    +0.053 A 
ATOM     28 CL   UNL     1       3.621  -4.410  27.486  0.00  0.00    -0.083 Cl
ATOM     29  C   UNL     1       2.358  -4.583  25.160  0.00  0.00    +0.021 A 
ATOM     30  C   UNL     1       2.165  -4.999  23.848  0.00  0.00    +0.003 A 
ATOM     31  C   UNL     1       3.214  -5.596  23.157  0.00  0.00    +0.021 A 
ATOM     32  C   UNL     1       4.473  -5.744  23.762  0.00  0.00    +0.053 A 
ATOM     33 CL   UNL     1       5.713  -6.425  22.766  0.00  0.00    -0.083 Cl
ENDBRANCH  24  26
ENDBRANCH   6  24
TORSDOF 6
ENDMDL
MODEL 5
REMARK VINA RESULT:      -7.7      4.347      9.615
REMARK  Name = 
REMARK  6 active torsions:
REMARK  status: ('A' for Active; 'I' for Inactive)
REMARK    1  A    between atoms: N_1  and  S_2
REMARK    2  A    between atoms: S_2  and  C_5
REMARK    3  A    between atoms: C_8  and  N_9
REMARK    4  A    between atoms: N_9  and  C_10
REMARK    5  A    between atoms: C_14  and  C_19
REMARK    6  A    between atoms: C_19  and  C_21
REMARK                            x       y       z     vdW  Elec       q    Type
REMARK                         _______ _______ _______ _____ _____    ______ ____
ROOT
ATOM      1  C   UNL     1       8.937  -2.044  23.468  0.00  0.00    +0.142 A 
ATOM      2  N   UNL     1      10.045  -1.495  24.049  0.00  0.00    -0.213 NA
ATOM      3  C   UNL     1       9.873  -0.199  23.972  0.00  0.00    +0.140 A 
ATOM      4  N   UNL     1       8.674   0.121  23.351  0.00  0.00    -0.304 N 
ATOM      5  C   UNL     1       8.246   1.428  23.144  0.00  0.00    +0.104 A 
ATOM      6  C   UNL     1       9.020   2.454  23.572  0.00  0.00    +0.039 A 
ATOM      7  C   UNL     1      10.324   2.143  24.162  0.00  0.00    +0.017 A 
ATOM      8  C   UNL     1      10.707   0.872  24.387  0.00  0.00    +0.047 A 
ATOM      9  C   UNL     1       8.056  -1.076  23.047  0.00  0.00    +0.136 A 
ENDROOT
BRANCH   1  10
ATOM     10  N   UNL     1       8.786  -3.380  23.368  0.00  0.00    -0.298 N 
ATOM     11  H   UNL     1       9.560  -3.950  23.046  0.00  0.00    +0.154 HD
BRANCH  10  15
ATOM     12  C   UNL     1       5.688  -5.705  25.048  0.00  0.00    +0.105 A 
ATOM     13  C   UNL     1       5.803  -5.616  23.664  0.00  0.00    +0.030 A 
ATOM     14  C   UNL     1       6.833  -4.854  23.113  0.00  0.00    +0.025 A 
ATOM     15  C   UNL     1       7.741  -4.154  23.925  0.00  0.00    +0.033 A 
ATOM     16  C   UNL     1       7.635  -4.296  25.316  0.00  0.00    +0.025 A 
ATOM     17  C   UNL     1       6.614  -5.073  25.881  0.00  0.00    +0.030 A 
BRANCH  12  18
ATOM     18  S   UNL     1       4.324  -6.578  25.743  0.00  0.00    +0.056 S 
ATOM     19  O   UNL     1       3.324  -5.635  26.203  0.00  0.00    -0.153 OA
ATOM     20  O   UNL     1       4.001  -7.705  24.905  0.00  0.00    -0.153 OA
BRANCH  18  21
ATOM     21  N   UNL     1       5.003  -7.204  27.149  0.00  0.00    -0.204 NA
ATOM     22  H   UNL     1       4.583  -6.766  27.967  0.00  0.00    +0.144 HD
ATOM     23  H   UNL     1       4.930  -8.222  27.135  0.00  0.00    +0.144 HD
ENDBRANCH  18  21
ENDBRANCH  12  18
ENDBRANCH  10  15
ENDBRANCH   1  10
BRANCH   6  24
ATOM     24  C   UNL     1       8.439   3.831  23.488  0.00  0.00    +0.197 C 
ATOM     25  O   UNL     1       7.809   4.184  22.490  0.00  0.00    -0.287 OA
BRANCH  24  26
ATOM     26  C   UNL     1       8.571   4.776  24.632  0.00  0.00    +0.059 A 
ATOM     27  C   UNL     1       7.615   4.837  25.663  0.00  0.00    +0.053 A 
ATOM     28 CL   UNL     1       6.156   3.903  25.685  0.00  0.00    -0.083 Cl
ATOM     29  C   UNL     1       7.760   5.744  26.722  0.00  0.00    +0.021 A 
ATOM     30  C   UNL     1       8.804   6.661  26.727  0.00  0.00    +0.003 A 
ATOM     31  C   UNL     1       9.725   6.656  25.684  0.00  0.00    +0.021 A 
ATOM     32  C   UNL     1       9.626   5.710  24.652  0.00  0.00    +0.053 A 
ATOM     33 CL   UNL     1      10.881   5.758  23.461  0.00  0.00    -0.083 Cl
ENDBRANCH  24  26
ENDBRANCH   6  24
TORSDOF 6
ENDMDL
MODEL 6
REMARK VINA RESULT:      -7.7      4.352      9.571
REMARK  Name = 
REMARK  6 active torsions:
REMARK  status: ('A' for Active; 'I' for Inactive)
REMARK    1  A    between atoms: N_1  and  S_2
REMARK    2  A    between atoms: S_2  and  C_5
REMARK    3  A    between atoms: C_8  and  N_9
REMARK    4  A    between atoms: N_9  and  C_10
REMARK    5  A    between atoms: C_14  and  C_19
REMARK    6  A    between atoms: C_19  and  C_21
REMARK                            x       y       z     vdW  Elec       q    Type
REMARK                         _______ _______ _______ _____ _____    ______ ____
ROOT
ATOM      1  C   UNL     1       8.598  -2.977  23.913  0.00  0.00    +0.142 A 
ATOM      2  N   UNL     1       9.450  -2.384  24.801  0.00  0.00    -0.213 NA
ATOM      3  C   UNL     1       9.420  -1.107  24.515  0.00  0.00    +0.140 A 
ATOM      4  N   UNL     1       8.567  -0.842  23.453  0.00  0.00    -0.304 N 
ATOM      5  C   UNL     1       8.349   0.436  22.948  0.00  0.00    +0.104 A 
ATOM      6  C   UNL     1       8.987   1.488  23.515  0.00  0.00    +0.039 A 
ATOM      7  C   UNL     1       9.949   1.225  24.586  0.00  0.00    +0.017 A 
ATOM      8  C   UNL     1      10.121  -0.013  25.086  0.00  0.00    +0.047 A 
ATOM      9  C   UNL     1       8.014  -2.051  23.079  0.00  0.00    +0.136 A 
ENDROOT
BRANCH   1  10
ATOM     10  N   UNL     1       8.391  -4.309  23.919  0.00  0.00    -0.298 N 
ATOM     11  H   UNL     1       9.172  -4.937  24.069  0.00  0.00    +0.154 HD
BRANCH  10  15
ATOM     12  C   UNL     1       4.678  -6.296  24.225  0.00  0.00    +0.105 A 
ATOM     13  C   UNL     1       5.207  -6.023  22.967  0.00  0.00    +0.030 A 
ATOM     14  C   UNL     1       6.438  -5.375  22.870  0.00  0.00    +0.025 A 
ATOM     15  C   UNL     1       7.143  -4.968  24.016  0.00  0.00    +0.033 A 
ATOM     16  C   UNL     1       6.615  -5.295  25.272  0.00  0.00    +0.025 A 
ATOM     17  C   UNL     1       5.387  -5.961  25.382  0.00  0.00    +0.030 A 
BRANCH  12  18
ATOM     18  S   UNL     1       3.075  -7.017  24.346  0.00  0.00    +0.056 S 
ATOM     19  O   UNL     1       3.192  -8.402  24.759  0.00  0.00    -0.153 OA
ATOM     20  O   UNL     1       2.181  -6.088  24.990  0.00  0.00    -0.153 OA
BRANCH  18  21
ATOM     21  N   UNL     1       2.612  -7.087  22.730  0.00  0.00    -0.204 NA
ATOM     22  H   UNL     1       2.897  -7.976  22.321  0.00  0.00    +0.144 HD
ATOM     23  H   UNL     1       1.612  -6.895  22.656  0.00  0.00    +0.144 HD
ENDBRANCH  18  21
ENDBRANCH  12  18
ENDBRANCH  10  15
ENDBRANCH   1  10
BRANCH   6  24
ATOM     24  C   UNL     1       8.587   2.857  23.057  0.00  0.00    +0.197 C 
ATOM     25  O   UNL     1       8.053   3.017  21.959  0.00  0.00    -0.287 OA
BRANCH  24  26
ATOM     26  C   UNL     1       8.785   4.036  23.946  0.00  0.00    +0.059 A 
ATOM     27  C   UNL     1       7.734   4.576  24.712  0.00  0.00    +0.053 A 
ATOM     28 CL   UNL     1       6.100   4.004  24.653  0.00  0.00    -0.083 Cl
ATOM     29  C   UNL     1       7.947   5.694  25.531  0.00  0.00    +0.021 A 
ATOM     30  C   UNL     1       9.176   6.343  25.534  0.00  0.00    +0.003 A 
ATOM     31  C   UNL     1      10.207   5.859  24.736  0.00  0.00    +0.021 A 
ATOM     32  C   UNL     1      10.026   4.703  23.961  0.00  0.00    +0.053 A 
ATOM     33 CL   UNL     1      11.413   4.160  23.079  0.00  0.00    -0.083 Cl
ENDBRANCH  24  26
ENDBRANCH   6  24
TORSDOF 6
ENDMDL
MODEL 7
REMARK VINA RESULT:      -7.7      4.321      9.374
REMARK  Name = 
REMARK  6 active torsions:
REMARK  status: ('A' for Active; 'I' for Inactive)
REMARK    1  A    between atoms: N_1  and  S_2
REMARK    2  A    between atoms: S_2  and  C_5
REMARK    3  A    between atoms: C_8  and  N_9
REMARK    4  A    between atoms: N_9  and  C_10
REMARK    5  A    between atoms: C_14  and  C_19
REMARK    6  A    between atoms: C_19  and  C_21
REMARK                            x       y       z     vdW  Elec       q    Type
REMARK                         _______ _______ _______ _____ _____    ______ ____
ROOT
ATOM      1  C   UNL     1       9.247  -1.688  24.567  0.00  0.00    +0.142 A 
ATOM      2  N   UNL     1      10.249  -0.998  23.946  0.00  0.00    -0.213 NA
ATOM      3  C   UNL     1       9.912   0.263  24.036  0.00  0.00    +0.140 A 
ATOM      4  N   UNL     1       8.705   0.423  24.702  0.00  0.00    -0.304 N 
ATOM      5  C   UNL     1       8.119   1.663  24.937  0.00  0.00    +0.104 A 
ATOM      6  C   UNL     1       8.748   2.783  24.508  0.00  0.00    +0.039 A 
ATOM      7  C   UNL     1       9.984   2.636  23.736  0.00  0.00    +0.017 A 
ATOM      8  C   UNL     1      10.555   1.432  23.549  0.00  0.00    +0.047 A 
ATOM      9  C   UNL     1       8.287  -0.841  25.069  0.00  0.00    +0.136 A 
ENDROOT
BRANCH   1  10
ATOM     10  N   UNL     1       9.269  -3.034  24.654  0.00  0.00    -0.298 N 
ATOM     11  H   UNL     1      10.158  -3.521  24.660  0.00  0.00    +0.154 HD
BRANCH  10  15
ATOM     12  C   UNL     1       6.071  -5.559  25.758  0.00  0.00    +0.105 A 
ATOM     13  C   UNL     1       6.209  -5.170  24.429  0.00  0.00    +0.030 A 
ATOM     14  C   UNL     1       7.272  -4.343  24.066  0.00  0.00    +0.025 A 
ATOM     15  C   UNL     1       8.191  -3.873  25.019  0.00  0.00    +0.033 A 
ATOM     16  C   UNL     1       8.061  -4.315  26.343  0.00  0.00    +0.025 A 
ATOM     17  C   UNL     1       7.007  -5.160  26.716  0.00  0.00    +0.030 A 
BRANCH  12  18
ATOM     18  S   UNL     1       4.669  -6.514  26.234  0.00  0.00    +0.056 S 
ATOM     19  O   UNL     1       3.634  -5.639  26.748  0.00  0.00    -0.153 OA
ATOM     20  O   UNL     1       4.411  -7.517  25.232  0.00  0.00    -0.153 OA
BRANCH  18  21
ATOM     21  N   UNL     1       5.256  -7.326  27.585  0.00  0.00    -0.204 NA
ATOM     22  H   UNL     1       4.489  -7.770  28.089  0.00  0.00    +0.144 HD
ATOM     23  H   UNL     1       5.995  -7.969  27.299  0.00  0.00    +0.144 HD
ENDBRANCH  18  21
ENDBRANCH  12  18
ENDBRANCH  10  15
ENDBRANCH   1  10
BRANCH   6  24
ATOM     24  C   UNL     1       8.172   4.097  24.936  0.00  0.00    +0.197 C 
ATOM     25  O   UNL     1       8.318   4.496  26.093  0.00  0.00    -0.287 OA
BRANCH  24  26
ATOM     26  C   UNL     1       7.460   4.964  23.956  0.00  0.00    +0.059 A 
ATOM     27  C   UNL     1       8.133   5.938  23.194  0.00  0.00    +0.053 A 
ATOM     28 CL   UNL     1       9.819   6.300  23.360  0.00  0.00    -0.083 Cl
ATOM     29  C   UNL     1       7.434   6.747  22.288  0.00  0.00    +0.021 A 
ATOM     30  C   UNL     1       6.050   6.662  22.188  0.00  0.00    +0.003 A 
ATOM     31  C   UNL     1       5.362   5.747  22.978  0.00  0.00    +0.021 A 
ATOM     32  C   UNL     1       6.057   4.887  23.843  0.00  0.00    +0.053 A 
ATOM     33 CL   UNL     1       5.090   3.741  24.707  0.00  0.00    -0.083 Cl
ENDBRANCH  24  26
ENDBRANCH   6  24
TORSDOF 6
ENDMDL
MODEL 8
REMARK VINA RESULT:      -7.6      4.285      9.373
REMARK  Name = 
REMARK  6 active torsions:
REMARK  status: ('A' for Active; 'I' for Inactive)
REMARK    1  A    between atoms: N_1  and  S_2
REMARK    2  A    between atoms: S_2  and  C_5
REMARK    3  A    between atoms: C_8  and  N_9
REMARK    4  A    between atoms: N_9  and  C_10
REMARK    5  A    between atoms: C_14  and  C_19
REMARK    6  A    between atoms: C_19  and  C_21
REMARK                            x       y       z     vdW  Elec       q    Type
REMARK                         _______ _______ _______ _____ _____    ______ ____
ROOT
ATOM      1  C   UNL     1       8.826  -2.246  24.398  0.00  0.00    +0.142 A 
ATOM      2  N   UNL     1       9.990  -1.601  24.088  0.00  0.00    -0.213 NA
ATOM      3  C   UNL     1       9.733  -0.327  24.238  0.00  0.00    +0.140 A 
ATOM      4  N   UNL     1       8.422  -0.114  24.640  0.00  0.00    -0.304 N 
ATOM      5  C   UNL     1       7.890   1.150  24.874  0.00  0.00    +0.104 A 
ATOM      6  C   UNL     1       8.679   2.240  24.716  0.00  0.00    +0.039 A 
ATOM      7  C   UNL     1      10.043   2.046  24.220  0.00  0.00    +0.017 A 
ATOM      8  C   UNL     1      10.553   0.814  24.032  0.00  0.00    +0.047 A 
ATOM      9  C   UNL     1       7.842  -1.360  24.768  0.00  0.00    +0.136 A 
ENDROOT
BRANCH   1  10
ATOM     10  N   UNL     1       8.731  -3.590  24.341  0.00  0.00    -0.298 N 
ATOM     11  H   UNL     1       9.574  -4.151  24.318  0.00  0.00    +0.154 HD
BRANCH  10  15
ATOM     12  C   UNL     1       5.294  -5.924  25.089  0.00  0.00    +0.105 A 
ATOM     13  C   UNL     1       5.510  -5.415  23.812  0.00  0.00    +0.030 A 
ATOM     14  C   UNL     1       6.652  -4.652  23.567  0.00  0.00    +0.025 A 
ATOM     15  C   UNL     1       7.573  -4.364  24.588  0.00  0.00    +0.033 A 
ATOM     16  C   UNL     1       7.360  -4.926  25.854  0.00  0.00    +0.025 A 
ATOM     17  C   UNL     1       6.225  -5.709  26.108  0.00  0.00    +0.030 A 
BRANCH  12  18
ATOM     18  S   UNL     1       3.799  -6.795  25.425  0.00  0.00    +0.056 S 
ATOM     19  O   UNL     1       2.699  -5.857  25.527  0.00  0.00    -0.153 OA
ATOM     20  O   UNL     1       3.739  -7.976  24.601  0.00  0.00    -0.153 OA
BRANCH  18  21
ATOM     21  N   UNL     1       4.063  -7.323  27.001  0.00  0.00    -0.204 NA
ATOM     22  H   UNL     1       4.808  -8.018  27.019  0.00  0.00    +0.144 HD
ATOM     23  H   UNL     1       4.228  -6.517  27.604  0.00  0.00    +0.144 HD
ENDBRANCH  18  21
ENDBRANCH  12  18
ENDBRANCH  10  15
ENDBRANCH   1  10
BRANCH   6  24
ATOM     24  C   UNL     1       8.118   3.559  25.149  0.00  0.00    +0.197 C 
ATOM     25  O   UNL     1       8.036   3.840  26.346  0.00  0.00    -0.287 OA
BRANCH  24  26
ATOM     26  C   UNL     1       7.700   4.569  24.138  0.00  0.00    +0.059 A 
ATOM     27  C   UNL     1       6.431   4.534  23.529  0.00  0.00    +0.053 A 
ATOM     28 CL   UNL     1       5.258   3.291  23.811  0.00  0.00    -0.083 Cl
ATOM     29  C   UNL     1       6.069   5.492  22.571  0.00  0.00    +0.021 A 
ATOM     30  C   UNL     1       6.989   6.441  22.141  0.00  0.00    +0.003 A 
ATOM     31  C   UNL     1       8.268   6.452  22.687  0.00  0.00    +0.021 A 
ATOM     32  C   UNL     1       8.621   5.539  23.693  0.00  0.00    +0.053 A 
ATOM     33 CL   UNL     1      10.214   5.714  24.346  0.00  0.00    -0.083 Cl
ENDBRANCH  24  26
ENDBRANCH   6  24
TORSDOF 6
ENDMDL
MODEL 9
REMARK VINA RESULT:      -7.5      4.396      9.529
REMARK  Name = 
REMARK  6 active torsions:
REMARK  status: ('A' for Active; 'I' for Inactive)
REMARK    1  A    between atoms: N_1  and  S_2
REMARK    2  A    between atoms: S_2  and  C_5
REMARK    3  A    between atoms: C_8  and  N_9
REMARK    4  A    between atoms: N_9  and  C_10
REMARK    5  A    between atoms: C_14  and  C_19
REMARK    6  A    between atoms: C_19  and  C_21
REMARK                            x       y       z     vdW  Elec       q    Type
REMARK                         _______ _______ _______ _____ _____    ______ ____
ROOT
ATOM      1  C   UNL     1       8.306  -3.477  24.228  0.00  0.00    +0.142 A 
ATOM      2  N   UNL     1       8.841  -2.802  25.288  0.00  0.00    -0.213 NA
ATOM      3  C   UNL     1       8.973  -1.564  24.884  0.00  0.00    +0.140 A 
ATOM      4  N   UNL     1       8.536  -1.405  23.576  0.00  0.00    -0.304 N 
ATOM      5  C   UNL     1       8.564  -0.187  22.904  0.00  0.00    +0.104 A 
ATOM      6  C   UNL     1       9.029   0.912  23.545  0.00  0.00    +0.039 A 
ATOM      7  C   UNL     1       9.565   0.754  24.898  0.00  0.00    +0.017 A 
ATOM      8  C   UNL     1       9.498  -0.424  25.547  0.00  0.00    +0.047 A 
ATOM      9  C   UNL     1       8.080  -2.640  23.160  0.00  0.00    +0.136 A 
ENDROOT
BRANCH   1  10
ATOM     10  N   UNL     1       8.041  -4.797  24.296  0.00  0.00    -0.298 N 
ATOM     11  H   UNL     1       8.805  -5.458  24.375  0.00  0.00    +0.154 HD
BRANCH  10  15
ATOM     12  C   UNL     1       4.274  -6.553  25.037  0.00  0.00    +0.105 A 
ATOM     13  C   UNL     1       5.104  -6.236  26.108  0.00  0.00    +0.030 A 
ATOM     14  C   UNL     1       6.343  -5.648  25.860  0.00  0.00    +0.025 A 
ATOM     15  C   UNL     1       6.783  -5.393  24.550  0.00  0.00    +0.033 A 
ATOM     16  C   UNL     1       5.912  -5.677  23.489  0.00  0.00    +0.025 A 
ATOM     17  C   UNL     1       4.657  -6.252  23.727  0.00  0.00    +0.030 A 
BRANCH  12  18
ATOM     18  S   UNL     1       2.756  -7.395  25.344  0.00  0.00    +0.056 S 
ATOM     19  O   UNL     1       1.643  -6.505  25.080  0.00  0.00    -0.153 OA
ATOM     20  O   UNL     1       2.830  -8.728  24.802  0.00  0.00    -0.153 OA
BRANCH  18  21
ATOM     21  N   UNL     1       2.791  -7.555  27.018  0.00  0.00    -0.204 NA
ATOM     22  H   UNL     1       1.858  -7.764  27.371  0.00  0.00    +0.144 HD
ATOM     23  H   UNL     1       3.499  -8.243  27.277  0.00  0.00    +0.144 HD
ENDBRANCH  18  21
ENDBRANCH  12  18
ENDBRANCH  10  15
ENDBRANCH   1  10
BRANCH   6  24
ATOM     24  C   UNL     1       8.874   2.227  22.847  0.00  0.00    +0.197 C 
ATOM     25  O   UNL     1       8.770   2.275  21.620  0.00  0.00    -0.287 OA
BRANCH  24  26
ATOM     26  C   UNL     1       8.794   3.491  23.631  0.00  0.00    +0.059 A 
ATOM     27  C   UNL     1       9.916   4.317  23.832  0.00  0.00    +0.053 A 
ATOM     28 CL   UNL     1      11.512   3.931  23.280  0.00  0.00    -0.083 Cl
ATOM     29  C   UNL     1       9.813   5.496  24.585  0.00  0.00    +0.021 A 
ATOM     30  C   UNL     1       8.621   5.825  25.218  0.00  0.00    +0.003 A 
ATOM     31  C   UNL     1       7.518   4.989  25.080  0.00  0.00    +0.021 A 
ATOM     32  C   UNL     1       7.591   3.840  24.277  0.00  0.00    +0.053 A 
ATOM     33 CL   UNL     1       6.126   2.932  24.123  0.00  0.00    -0.083 Cl
ENDBRANCH  24  26
ENDBRANCH   6  24
TORSDOF 6
ENDMDL
