MODEL 1
REMARK VINA RESULT:      -6.9      0.000      0.000
REMARK  Name = 
REMARK  5 active torsions:
REMARK  status: ('A' for Active; 'I' for Inactive)
REMARK    1  A    between atoms: N_1  and  S_2
REMARK    2  A    between atoms: S_2  and  C_5
REMARK    3  A    between atoms: C_8  and  C_11
REMARK    4  A    between atoms: N_13  and  C_14
REMARK    5  A    between atoms: C_14  and  C_15
REMARK                            x       y       z     vdW  Elec       q    Type
REMARK                         _______ _______ _______ _____ _____    ______ ____
ROOT
ATOM      1  C   UNL     1       8.678  -0.725  26.139  0.00  0.00    +0.244 C 
ATOM      2  N   UNL     1       9.776   0.102  26.000  0.00  0.00    -0.307 N 
ATOM      3  H   UNL     1      10.047   0.563  26.864  0.00  0.00    +0.149 HD
ATOM      4  O   UNL     1       8.049  -0.735  27.198  0.00  0.00    -0.270 OA
ENDROOT
BRANCH   1   8
ATOM      5  C   UNL     1       7.147  -3.286  23.083  0.00  0.00    +0.105 A 
ATOM      6  C   UNL     1       6.549  -2.045  23.291  0.00  0.00    +0.029 A 
ATOM      7  C   UNL     1       7.108  -1.158  24.206  0.00  0.00    +0.015 A 
ATOM      8  C   UNL     1       8.201  -1.549  24.995  0.00  0.00    +0.037 A 
ATOM      9  C   UNL     1       8.840  -2.768  24.726  0.00  0.00    +0.015 A 
ATOM     10  C   UNL     1       8.319  -3.638  23.760  0.00  0.00    +0.029 A 
BRANCH   5  11
ATOM     11  S   UNL     1       6.368  -4.434  21.989  0.00  0.00    +0.056 S 
ATOM     12  O   UNL     1       5.643  -3.703  20.974  0.00  0.00    -0.153 OA
ATOM     13  O   UNL     1       7.304  -5.488  21.676  0.00  0.00    -0.153 OA
BRANCH  11  14
ATOM     14  N   UNL     1       5.182  -5.114  22.964  0.00  0.00    -0.204 NA
ATOM     15  H   UNL     1       4.383  -4.481  23.034  0.00  0.00    +0.144 HD
ATOM     16  H   UNL     1       4.941  -6.040  22.610  0.00  0.00    +0.144 HD
ENDBRANCH  11  14
ENDBRANCH   5  11
ENDBRANCH   1   8
BRANCH   2  17
ATOM     17  C   UNL     1      10.644   0.243  24.849  0.00  0.00    +0.145 C 
BRANCH  17  18
ATOM     18  C   UNL     1      10.006   0.769  23.608  0.00  0.00    +0.040 A 
ATOM     19  C   UNL     1       9.324   1.989  23.638  0.00  0.00    +0.131 A 
ATOM     20  F   UNL     1       9.316   2.725  24.762  0.00  0.00    -0.205 F 
ATOM     21  C   UNL     1       8.595   2.446  22.546  0.00  0.00    +0.039 A 
ATOM     22  C   UNL     1       8.546   1.676  21.383  0.00  0.00    +0.006 A 
ATOM     23  C   UNL     1       9.230   0.462  21.328  0.00  0.00    +0.039 A 
ATOM     24  C   UNL     1       9.951   0.018  22.437  0.00  0.00    +0.131 A 
ATOM     25  F   UNL     1      10.573  -1.169  22.371  0.00  0.00    -0.205 F 
ENDBRANCH  17  18
ENDBRANCH   2  17
TORSDOF 5
ENDMDL
MODEL 2
REMARK VINA RESULT:      -6.9      2.710      3.624
REMARK  Name = 
REMARK  5 active torsions:
REMARK  status: ('A' for Active; 'I' for Inactive)
REMARK    1  A    between atoms: N_1  and  S_2
REMARK    2  A    between atoms: S_2  and  C_5
REMARK    3  A    between atoms: C_8  and  C_11
REMARK    4  A    between atoms: N_13  and  C_14
REMARK    5  A    between atoms: C_14  and  C_15
REMARK                            x       y       z     vdW  Elec       q    Type
REMARK                         _______ _______ _______ _____ _____    ______ ____
ROOT
ATOM      1  C   UNL     1       9.303  -4.243  24.784  0.00  0.00    +0.244 C 
ATOM      2  N   UNL     1       9.458  -2.871  24.798  0.00  0.00    -0.307 N 
ATOM      3  H   UNL     1      10.427  -2.574  24.874  0.00  0.00    +0.149 HD
ATOM      4  O   UNL     1      10.272  -4.972  25.000  0.00  0.00    -0.270 OA
ENDROOT
BRANCH   1   8
ATOM      5  C   UNL     1       5.314  -5.683  24.278  0.00  0.00    +0.105 A 
ATOM      6  C   UNL     1       6.092  -5.430  23.151  0.00  0.00    +0.029 A 
ATOM      7  C   UNL     1       7.427  -5.069  23.304  0.00  0.00    +0.015 A 
ATOM      8  C   UNL     1       7.960  -4.852  24.585  0.00  0.00    +0.037 A 
ATOM      9  C   UNL     1       7.192  -5.181  25.711  0.00  0.00    +0.015 A 
ATOM     10  C   UNL     1       5.867  -5.608  25.561  0.00  0.00    +0.029 A 
BRANCH   5  11
ATOM     11  S   UNL     1       3.598  -6.048  24.065  0.00  0.00    +0.056 S 
ATOM     12  O   UNL     1       2.887  -5.702  25.276  0.00  0.00    -0.153 OA
ATOM     13  O   UNL     1       3.185  -5.596  22.758  0.00  0.00    -0.153 OA
BRANCH  11  14
ATOM     14  N   UNL     1       3.590  -7.727  24.022  0.00  0.00    -0.204 NA
ATOM     15  H   UNL     1       4.140  -8.098  24.798  0.00  0.00    +0.144 HD
ATOM     16  H   UNL     1       2.625  -8.061  24.006  0.00  0.00    +0.144 HD
ENDBRANCH  11  14
ENDBRANCH   5  11
ENDBRANCH   1   8
BRANCH   2  17
ATOM     17  C   UNL     1       8.451  -1.859  24.554  0.00  0.00    +0.145 C 
BRANCH  17  18
ATOM     18  C   UNL     1       8.843  -0.752  23.634  0.00  0.00    +0.040 A 
ATOM     19  C   UNL     1       8.890  -0.976  22.255  0.00  0.00    +0.131 A 
ATOM     20  F   UNL     1       8.501  -2.161  21.754  0.00  0.00    -0.205 F 
ATOM     21  C   UNL     1       9.386  -0.019  21.376  0.00  0.00    +0.039 A 
ATOM     22  C   UNL     1       9.843   1.200  21.876  0.00  0.00    +0.006 A 
ATOM     23  C   UNL     1       9.794   1.448  23.247  0.00  0.00    +0.039 A 
ATOM     24  C   UNL     1       9.297   0.473  24.114  0.00  0.00    +0.131 A 
ATOM     25  F   UNL     1       9.292   0.723  25.432  0.00  0.00    -0.205 F 
ENDBRANCH  17  18
ENDBRANCH   2  17
TORSDOF 5
ENDMDL
MODEL 3
REMARK VINA RESULT:      -6.9      2.693      3.287
REMARK  Name = 
REMARK  5 active torsions:
REMARK  status: ('A' for Active; 'I' for Inactive)
REMARK    1  A    between atoms: N_1  and  S_2
REMARK    2  A    between atoms: S_2  and  C_5
REMARK    3  A    between atoms: C_8  and  C_11
REMARK    4  A    between atoms: N_13  and  C_14
REMARK    5  A    between atoms: C_14  and  C_15
REMARK                            x       y       z     vdW  Elec       q    Type
REMARK                         _______ _______ _______ _____ _____    ______ ____
ROOT
ATOM      1  C   UNL     1       9.460  -4.276  24.630  0.00  0.00    +0.244 C 
ATOM      2  N   UNL     1       9.717  -2.958  24.304  0.00  0.00    -0.307 N 
ATOM      3  H   UNL     1      10.700  -2.710  24.367  0.00  0.00    +0.149 HD
ATOM      4  O   UNL     1      10.360  -4.979  25.090  0.00  0.00    -0.270 OA
ENDROOT
BRANCH   1   8
ATOM      5  C   UNL     1       5.402  -5.555  24.264  0.00  0.00    +0.105 A 
ATOM      6  C   UNL     1       6.228  -5.590  23.143  0.00  0.00    +0.029 A 
ATOM      7  C   UNL     1       7.579  -5.282  23.275  0.00  0.00    +0.015 A 
ATOM      8  C   UNL     1       8.086  -4.833  24.504  0.00  0.00    +0.037 A 
ATOM      9  C   UNL     1       7.266  -4.874  25.641  0.00  0.00    +0.015 A 
ATOM     10  C   UNL     1       5.920  -5.245  25.525  0.00  0.00    +0.029 A 
BRANCH   5  11
ATOM     11  S   UNL     1       3.672  -5.856  24.058  0.00  0.00    +0.056 S 
ATOM     12  O   UNL     1       2.998  -5.616  25.313  0.00  0.00    -0.153 OA
ATOM     13  O   UNL     1       3.243  -5.265  22.813  0.00  0.00    -0.153 OA
BRANCH  11  14
ATOM     14  N   UNL     1       3.620  -7.521  23.847  0.00  0.00    -0.204 NA
ATOM     15  H   UNL     1       4.520  -7.856  23.500  0.00  0.00    +0.144 HD
ATOM     16  H   UNL     1       3.326  -7.964  24.718  0.00  0.00    +0.144 HD
ENDBRANCH  11  14
ENDBRANCH   5  11
ENDBRANCH   1   8
BRANCH   2  17
ATOM     17  C   UNL     1       8.802  -1.985  23.744  0.00  0.00    +0.145 C 
BRANCH  17  18
ATOM     18  C   UNL     1       9.377  -0.642  23.441  0.00  0.00    +0.040 A 
ATOM     19  C   UNL     1       9.691   0.232  24.486  0.00  0.00    +0.131 A 
ATOM     20  F   UNL     1       9.555  -0.169  25.761  0.00  0.00    -0.205 F 
ATOM     21  C   UNL     1      10.093   1.542  24.247  0.00  0.00    +0.039 A 
ATOM     22  C   UNL     1      10.195   1.998  22.933  0.00  0.00    +0.006 A 
ATOM     23  C   UNL     1       9.898   1.139  21.876  0.00  0.00    +0.039 A 
ATOM     24  C   UNL     1       9.491  -0.171  22.137  0.00  0.00    +0.131 A 
ATOM     25  F   UNL     1       9.178  -0.968  21.105  0.00  0.00    -0.205 F 
ENDBRANCH  17  18
ENDBRANCH   2  17
TORSDOF 5
ENDMDL
MODEL 4
REMARK VINA RESULT:      -6.7      3.780      5.909
REMARK  Name = 
REMARK  5 active torsions:
REMARK  status: ('A' for Active; 'I' for Inactive)
REMARK    1  A    between atoms: N_1  and  S_2
REMARK    2  A    between atoms: S_2  and  C_5
REMARK    3  A    between atoms: C_8  and  C_11
REMARK    4  A    between atoms: N_13  and  C_14
REMARK    5  A    between atoms: C_14  and  C_15
REMARK                            x       y       z     vdW  Elec       q    Type
REMARK                         _______ _______ _______ _____ _____    ______ ____
ROOT
ATOM      1  C   UNL     1       7.203  -4.932  26.652  0.00  0.00    +0.244 C 
ATOM      2  N   UNL     1       5.872  -5.164  26.363  0.00  0.00    -0.307 N 
ATOM      3  H   UNL     1       5.444  -5.864  26.961  0.00  0.00    +0.149 HD
ATOM      4  O   UNL     1       7.787  -5.650  27.465  0.00  0.00    -0.270 OA
ENDROOT
BRANCH   1   8
ATOM      5  C   UNL     1       9.140  -1.902  24.349  0.00  0.00    +0.105 A 
ATOM      6  C   UNL     1       8.396  -1.533  25.467  0.00  0.00    +0.029 A 
ATOM      7  C   UNL     1       7.854  -2.517  26.288  0.00  0.00    +0.015 A 
ATOM      8  C   UNL     1       7.961  -3.871  25.934  0.00  0.00    +0.037 A 
ATOM      9  C   UNL     1       8.773  -4.236  24.851  0.00  0.00    +0.015 A 
ATOM     10  C   UNL     1       9.375  -3.250  24.059  0.00  0.00    +0.029 A 
BRANCH   5  11
ATOM     11  S   UNL     1       9.738  -0.638  23.268  0.00  0.00    +0.056 S 
ATOM     12  O   UNL     1       8.613   0.060  22.688  0.00  0.00    -0.153 OA
ATOM     13  O   UNL     1      10.835   0.044  23.912  0.00  0.00    -0.153 OA
BRANCH  11  14
ATOM     14  N   UNL     1      10.396  -1.527  22.004  0.00  0.00    -0.204 NA
ATOM     15  H   UNL     1      11.333  -1.183  21.787  0.00  0.00    +0.144 HD
ATOM     16  H   UNL     1      10.369  -2.521  22.238  0.00  0.00    +0.144 HD
ENDBRANCH  11  14
ENDBRANCH   5  11
ENDBRANCH   1   8
BRANCH   2  17
ATOM     17  C   UNL     1       5.017  -4.427  25.455  0.00  0.00    +0.145 C 
BRANCH  17  18
ATOM     18  C   UNL     1       5.328  -4.566  24.003  0.00  0.00    +0.040 A 
ATOM     19  C   UNL     1       5.415  -5.838  23.429  0.00  0.00    +0.131 A 
ATOM     20  F   UNL     1       5.135  -6.927  24.164  0.00  0.00    -0.205 F 
ATOM     21  C   UNL     1       5.842  -6.020  22.118  0.00  0.00    +0.039 A 
ATOM     22  C   UNL     1       6.186  -4.909  21.348  0.00  0.00    +0.006 A 
ATOM     23  C   UNL     1       6.095  -3.631  21.898  0.00  0.00    +0.039 A 
ATOM     24  C   UNL     1       5.670  -3.469  23.218  0.00  0.00    +0.131 A 
ATOM     25  F   UNL     1       5.623  -2.233  23.735  0.00  0.00    -0.205 F 
ENDBRANCH  17  18
ENDBRANCH   2  17
TORSDOF 5
ENDMDL
MODEL 5
REMARK VINA RESULT:      -6.6      1.089      2.271
REMARK  Name = 
REMARK  5 active torsions:
REMARK  status: ('A' for Active; 'I' for Inactive)
REMARK    1  A    between atoms: N_1  and  S_2
REMARK    2  A    between atoms: S_2  and  C_5
REMARK    3  A    between atoms: C_8  and  C_11
REMARK    4  A    between atoms: N_13  and  C_14
REMARK    5  A    between atoms: C_14  and  C_15
REMARK                            x       y       z     vdW  Elec       q    Type
REMARK                         _______ _______ _______ _____ _____    ______ ____
ROOT
ATOM      1  C   UNL     1       7.533  -1.305  26.254  0.00  0.00    +0.244 C 
ATOM      2  N   UNL     1       8.737  -0.640  26.123  0.00  0.00    -0.307 N 
ATOM      3  H   UNL     1       8.961  -0.049  26.919  0.00  0.00    +0.149 HD
ATOM      4  O   UNL     1       6.788  -1.043  27.198  0.00  0.00    -0.270 OA
ENDROOT
BRANCH   1   8
ATOM      5  C   UNL     1       6.491  -3.966  23.080  0.00  0.00    +0.105 A 
ATOM      6  C   UNL     1       7.319  -4.422  24.103  0.00  0.00    +0.029 A 
ATOM      7  C   UNL     1       7.573  -3.601  25.198  0.00  0.00    +0.015 A 
ATOM      8  C   UNL     1       7.093  -2.283  25.222  0.00  0.00    +0.037 A 
ATOM      9  C   UNL     1       6.201  -1.859  24.226  0.00  0.00    +0.015 A 
ATOM     10  C   UNL     1       5.889  -2.705  23.154  0.00  0.00    +0.029 A 
BRANCH   5  11
ATOM     11  S   UNL     1       6.256  -4.985  21.655  0.00  0.00    +0.056 S 
ATOM     12  O   UNL     1       5.736  -4.176  20.576  0.00  0.00    -0.153 OA
ATOM     13  O   UNL     1       7.405  -5.846  21.505  0.00  0.00    -0.153 OA
BRANCH  11  14
ATOM     14  N   UNL     1       4.975  -5.965  22.121  0.00  0.00    -0.204 NA
ATOM     15  H   UNL     1       5.261  -6.569  22.893  0.00  0.00    +0.144 HD
ATOM     16  H   UNL     1       4.164  -5.383  22.336  0.00  0.00    +0.144 HD
ENDBRANCH  11  14
ENDBRANCH   5  11
ENDBRANCH   1   8
BRANCH   2  17
ATOM     17  C   UNL     1       9.745  -0.817  25.099  0.00  0.00    +0.145 C 
BRANCH  17  18
ATOM     18  C   UNL     1       9.514  -0.089  23.818  0.00  0.00    +0.040 A 
ATOM     19  C   UNL     1       9.384  -0.806  22.624  0.00  0.00    +0.131 A 
ATOM     20  F   UNL     1       9.382  -2.150  22.645  0.00  0.00    -0.205 F 
ATOM     21  C   UNL     1       9.311  -0.165  21.392  0.00  0.00    +0.039 A 
ATOM     22  C   UNL     1       9.360   1.227  21.339  0.00  0.00    +0.006 A 
ATOM     23  C   UNL     1       9.478   1.961  22.518  0.00  0.00    +0.039 A 
ATOM     24  C   UNL     1       9.555   1.300  23.745  0.00  0.00    +0.131 A 
ATOM     25  F   UNL     1       9.702   2.026  24.864  0.00  0.00    -0.205 F 
ENDBRANCH  17  18
ENDBRANCH   2  17
TORSDOF 5
ENDMDL
MODEL 6
REMARK VINA RESULT:      -6.6      3.450      5.041
REMARK  Name = 
REMARK  5 active torsions:
REMARK  status: ('A' for Active; 'I' for Inactive)
REMARK    1  A    between atoms: N_1  and  S_2
REMARK    2  A    between atoms: S_2  and  C_5
REMARK    3  A    between atoms: C_8  and  C_11
REMARK    4  A    between atoms: N_13  and  C_14
REMARK    5  A    between atoms: C_14  and  C_15
REMARK                            x       y       z     vdW  Elec       q    Type
REMARK                         _______ _______ _______ _____ _____    ______ ____
ROOT
ATOM      1  C   UNL     1       7.292  -4.927  22.892  0.00  0.00    +0.244 C 
ATOM      2  N   UNL     1       7.470  -3.711  22.261  0.00  0.00    -0.307 N 
ATOM      3  H   UNL     1       7.728  -3.798  21.282  0.00  0.00    +0.149 HD
ATOM      4  O   UNL     1       7.582  -5.970  22.307  0.00  0.00    -0.270 OA
ENDROOT
BRANCH   1   8
ATOM      5  C   UNL     1       5.884  -5.425  26.894  0.00  0.00    +0.105 A 
ATOM      6  C   UNL     1       7.256  -5.358  26.661  0.00  0.00    +0.029 A 
ATOM      7  C   UNL     1       7.722  -5.084  25.379  0.00  0.00    +0.015 A 
ATOM      8  C   UNL     1       6.824  -4.985  24.304  0.00  0.00    +0.037 A 
ATOM      9  C   UNL     1       5.446  -4.979  24.561  0.00  0.00    +0.015 A 
ATOM     10  C   UNL     1       4.971  -5.189  25.861  0.00  0.00    +0.029 A 
BRANCH   5  11
ATOM     11  S   UNL     1       5.314  -5.867  28.508  0.00  0.00    +0.056 S 
ATOM     12  O   UNL     1       6.285  -5.433  29.487  0.00  0.00    -0.153 OA
ATOM     13  O   UNL     1       3.909  -5.555  28.606  0.00  0.00    -0.153 OA
BRANCH  11  14
ATOM     14  N   UNL     1       5.437  -7.541  28.486  0.00  0.00    -0.204 NA
ATOM     15  H   UNL     1       5.558  -7.894  29.437  0.00  0.00    +0.144 HD
ATOM     16  H   UNL     1       4.629  -7.935  28.003  0.00  0.00    +0.144 HD
ENDBRANCH  11  14
ENDBRANCH   5  11
ENDBRANCH   1   8
BRANCH   2  17
ATOM     17  C   UNL     1       7.177  -2.390  22.775  0.00  0.00    +0.145 C 
BRANCH  17  18
ATOM     18  C   UNL     1       8.313  -1.670  23.421  0.00  0.00    +0.040 A 
ATOM     19  C   UNL     1       8.281  -1.411  24.794  0.00  0.00    +0.131 A 
ATOM     20  F   UNL     1       7.271  -1.883  25.544  0.00  0.00    -0.205 F 
ATOM     21  C   UNL     1       9.246  -0.620  25.411  0.00  0.00    +0.039 A 
ATOM     22  C   UNL     1      10.278  -0.077  24.646  0.00  0.00    +0.006 A 
ATOM     23  C   UNL     1      10.334  -0.333  23.277  0.00  0.00    +0.039 A 
ATOM     24  C   UNL     1       9.354  -1.124  22.676  0.00  0.00    +0.131 A 
ATOM     25  F   UNL     1       9.411  -1.329  21.351  0.00  0.00    -0.205 F 
ENDBRANCH  17  18
ENDBRANCH   2  17
TORSDOF 5
ENDMDL
MODEL 7
REMARK VINA RESULT:      -6.5      3.095      4.433
REMARK  Name = 
REMARK  5 active torsions:
REMARK  status: ('A' for Active; 'I' for Inactive)
REMARK    1  A    between atoms: N_1  and  S_2
REMARK    2  A    between atoms: S_2  and  C_5
REMARK    3  A    between atoms: C_8  and  C_11
REMARK    4  A    between atoms: N_13  and  C_14
REMARK    5  A    between atoms: C_14  and  C_15
REMARK                            x       y       z     vdW  Elec       q    Type
REMARK                         _______ _______ _______ _____ _____    ______ ____
ROOT
ATOM      1  C   UNL     1      10.619   3.510  23.300  0.00  0.00    +0.244 C 
ATOM      2  N   UNL     1       9.542   4.375  23.287  0.00  0.00    -0.307 N 
ATOM      3  H   UNL     1       9.810   5.353  23.243  0.00  0.00    +0.149 HD
ATOM      4  O   UNL     1      11.762   3.956  23.401  0.00  0.00    -0.270 OA
ENDROOT
BRANCH   1   8
ATOM      5  C   UNL     1       9.701  -0.662  23.342  0.00  0.00    +0.105 A 
ATOM      6  C   UNL     1       9.654   0.031  22.135  0.00  0.00    +0.029 A 
ATOM      7  C   UNL     1      10.059   1.362  22.090  0.00  0.00    +0.015 A 
ATOM      8  C   UNL     1      10.407   2.037  23.270  0.00  0.00    +0.037 A 
ATOM      9  C   UNL     1      10.523   1.312  24.466  0.00  0.00    +0.015 A 
ATOM     10  C   UNL     1      10.179  -0.045  24.503  0.00  0.00    +0.029 A 
BRANCH   5  11
ATOM     11  S   UNL     1       9.094  -2.321  23.397  0.00  0.00    +0.056 S 
ATOM     12  O   UNL     1       8.371  -2.600  22.177  0.00  0.00    -0.153 OA
ATOM     13  O   UNL     1      10.136  -3.181  23.904  0.00  0.00    -0.153 OA
BRANCH  11  14
ATOM     14  N   UNL     1       7.916  -2.233  24.590  0.00  0.00    -0.204 NA
ATOM     15  H   UNL     1       8.007  -1.356  25.106  0.00  0.00    +0.144 HD
ATOM     16  H   UNL     1       6.995  -2.365  24.169  0.00  0.00    +0.144 HD
ENDBRANCH  11  14
ENDBRANCH   5  11
ENDBRANCH   1   8
BRANCH   2  17
ATOM     17  C   UNL     1       8.137   4.045  23.163  0.00  0.00    +0.145 C 
BRANCH  17  18
ATOM     18  C   UNL     1       7.547   3.255  24.282  0.00  0.00    +0.040 A 
ATOM     19  C   UNL     1       7.716   3.685  25.602  0.00  0.00    +0.131 A 
ATOM     20  F   UNL     1       8.336   4.850  25.855  0.00  0.00    -0.205 F 
ATOM     21  C   UNL     1       7.309   2.907  26.681  0.00  0.00    +0.039 A 
ATOM     22  C   UNL     1       6.709   1.670  26.447  0.00  0.00    +0.006 A 
ATOM     23  C   UNL     1       6.520   1.229  25.138  0.00  0.00    +0.039 A 
ATOM     24  C   UNL     1       6.940   2.021  24.069  0.00  0.00    +0.131 A 
ATOM     25  F   UNL     1       6.778   1.560  22.819  0.00  0.00    -0.205 F 
ENDBRANCH  17  18
ENDBRANCH   2  17
TORSDOF 5
ENDMDL
MODEL 8
REMARK VINA RESULT:      -6.5      3.061      4.385
REMARK  Name = 
REMARK  5 active torsions:
REMARK  status: ('A' for Active; 'I' for Inactive)
REMARK    1  A    between atoms: N_1  and  S_2
REMARK    2  A    between atoms: S_2  and  C_5
REMARK    3  A    between atoms: C_8  and  C_11
REMARK    4  A    between atoms: N_13  and  C_14
REMARK    5  A    between atoms: C_14  and  C_15
REMARK                            x       y       z     vdW  Elec       q    Type
REMARK                         _______ _______ _______ _____ _____    ______ ____
ROOT
ATOM      1  C   UNL     1       6.470  -2.913  22.596  0.00  0.00    +0.244 C 
ATOM      2  N   UNL     1       7.595  -2.298  22.083  0.00  0.00    -0.307 N 
ATOM      3  H   UNL     1       7.429  -1.821  21.201  0.00  0.00    +0.149 HD
ATOM      4  O   UNL     1       5.440  -2.967  21.923  0.00  0.00    -0.270 OA
ENDROOT
BRANCH   1   8
ATOM      5  C   UNL     1       6.252  -4.861  26.391  0.00  0.00    +0.105 A 
ATOM      6  C   UNL     1       6.683  -5.584  25.281  0.00  0.00    +0.029 A 
ATOM      7  C   UNL     1       6.865  -4.932  24.065  0.00  0.00    +0.015 A 
ATOM      8  C   UNL     1       6.512  -3.581  23.925  0.00  0.00    +0.037 A 
ATOM      9  C   UNL     1       6.152  -2.845  25.064  0.00  0.00    +0.015 A 
ATOM     10  C   UNL     1       6.030  -3.483  26.305  0.00  0.00    +0.029 A 
BRANCH   5  11
ATOM     11  S   UNL     1       5.936  -5.724  27.901  0.00  0.00    +0.056 S 
ATOM     12  O   UNL     1       7.179  -6.267  28.403  0.00  0.00    -0.153 OA
ATOM     13  O   UNL     1       5.043  -4.932  28.711  0.00  0.00    -0.153 OA
BRANCH  11  14
ATOM     14  N   UNL     1       5.061  -7.057  27.376  0.00  0.00    -0.204 NA
ATOM     15  H   UNL     1       5.268  -7.865  27.966  0.00  0.00    +0.144 HD
ATOM     16  H   UNL     1       4.069  -6.820  27.341  0.00  0.00    +0.144 HD
ENDBRANCH  11  14
ENDBRANCH   5  11
ENDBRANCH   1   8
BRANCH   2  17
ATOM     17  C   UNL     1       8.884  -2.124  22.720  0.00  0.00    +0.145 C 
BRANCH  17  18
ATOM     18  C   UNL     1       9.285  -0.718  23.015  0.00  0.00    +0.040 A 
ATOM     19  C   UNL     1       9.533   0.170  21.964  0.00  0.00    +0.131 A 
ATOM     20  F   UNL     1       9.328  -0.218  20.694  0.00  0.00    -0.205 F 
ATOM     21  C   UNL     1      10.046   1.443  22.189  0.00  0.00    +0.039 A 
ATOM     22  C   UNL     1      10.314   1.854  23.494  0.00  0.00    +0.006 A 
ATOM     23  C   UNL     1      10.063   0.988  24.558  0.00  0.00    +0.039 A 
ATOM     24  C   UNL     1       9.553  -0.288  24.311  0.00  0.00    +0.131 A 
ATOM     25  F   UNL     1       9.351  -1.115  25.348  0.00  0.00    -0.205 F 
ENDBRANCH  17  18
ENDBRANCH   2  17
TORSDOF 5
ENDMDL
MODEL 9
REMARK VINA RESULT:      -6.5      3.803      6.289
REMARK  Name = 
REMARK  5 active torsions:
REMARK  status: ('A' for Active; 'I' for Inactive)
REMARK    1  A    between atoms: N_1  and  S_2
REMARK    2  A    between atoms: S_2  and  C_5
REMARK    3  A    between atoms: C_8  and  C_11
REMARK    4  A    between atoms: N_13  and  C_14
REMARK    5  A    between atoms: C_14  and  C_15
REMARK                            x       y       z     vdW  Elec       q    Type
REMARK                         _______ _______ _______ _____ _____    ______ ____
ROOT
ATOM      1  C   UNL     1       9.241  -3.801  24.210  0.00  0.00    +0.244 C 
ATOM      2  N   UNL     1       8.176  -4.402  23.567  0.00  0.00    -0.307 N 
ATOM      3  H   UNL     1       8.066  -5.385  23.800  0.00  0.00    +0.149 HD
ATOM      4  O   UNL     1      10.026  -4.485  24.867  0.00  0.00    -0.270 OA
ENDROOT
BRANCH   1   8
ATOM      5  C   UNL     1       9.707   0.392  23.544  0.00  0.00    +0.105 A 
ATOM      6  C   UNL     1       9.079  -0.044  24.708  0.00  0.00    +0.029 A 
ATOM      7  C   UNL     1       9.022  -1.406  24.989  0.00  0.00    +0.015 A 
ATOM      8  C   UNL     1       9.493  -2.342  24.055  0.00  0.00    +0.037 A 
ATOM      9  C   UNL     1      10.189  -1.892  22.924  0.00  0.00    +0.015 A 
ATOM     10  C   UNL     1      10.306  -0.520  22.669  0.00  0.00    +0.029 A 
BRANCH   5  11
ATOM     11  S   UNL     1       9.686   2.117  23.159  0.00  0.00    +0.056 S 
ATOM     12  O   UNL     1       8.367   2.646  23.429  0.00  0.00    -0.153 OA
ATOM     13  O   UNL     1      10.892   2.723  23.670  0.00  0.00    -0.153 OA
BRANCH  11  14
ATOM     14  N   UNL     1       9.818   2.114  21.485  0.00  0.00    -0.204 NA
ATOM     15  H   UNL     1       8.975   2.512  21.068  0.00  0.00    +0.144 HD
ATOM     16  H   UNL     1      10.676   2.594  21.211  0.00  0.00    +0.144 HD
ENDBRANCH  11  14
ENDBRANCH   5  11
ENDBRANCH   1   8
BRANCH   2  17
ATOM     17  C   UNL     1       7.147  -3.771  22.767  0.00  0.00    +0.145 C 
BRANCH  17  18
ATOM     18  C   UNL     1       5.740  -4.136  23.102  0.00  0.00    +0.040 A 
ATOM     19  C   UNL     1       5.029  -3.380  24.039  0.00  0.00    +0.131 A 
ATOM     20  F   UNL     1       5.583  -2.278  24.572  0.00  0.00    -0.205 F 
ATOM     21  C   UNL     1       3.770  -3.767  24.486  0.00  0.00    +0.039 A 
ATOM     22  C   UNL     1       3.194  -4.934  23.985  0.00  0.00    +0.006 A 
ATOM     23  C   UNL     1       3.881  -5.696  23.041  0.00  0.00    +0.039 A 
ATOM     24  C   UNL     1       5.146  -5.293  22.609  0.00  0.00    +0.131 A 
ATOM     25  F   UNL     1       5.802  -6.061  21.726  0.00  0.00    -0.205 F 
ENDBRANCH  17  18
ENDBRANCH   2  17
TORSDOF 5
ENDMDL
