MODEL 1
REMARK VINA RESULT:      -6.0      0.000      0.000
REMARK  Name = 
REMARK  15 active torsions:
REMARK  status: ('A' for Active; 'I' for Inactive)
REMARK    1  A    between atoms: C_2  and  C_3
REMARK    2  A    between atoms: C_2  and  N_15
REMARK    3  A    between atoms: C_2  and  C_26
REMARK    4  A    between atoms: C_3  and  O_4
REMARK    5  A    between atoms: O_4  and  N_5
REMARK    6  A    between atoms: C_6  and  C_7
REMARK    7  A    between atoms: C_6  and  C_12
REMARK    8  A    between atoms: C_7  and  C_8
REMARK    9  A    between atoms: C_8  and  C_9
REMARK   10  A    between atoms: C_9  and  O_10
REMARK   11  A    between atoms: C_12  and  O_13
REMARK   12  A    between atoms: C_16  and  C_18
REMARK   13  A    between atoms: C_18  and  O_19
REMARK   14  A    between atoms: O_19  and  C_20
REMARK   15  A    between atoms: C_26  and  O_27
REMARK                            x       y       z     vdW  Elec       q    Type
REMARK                         _______ _______ _______ _____ _____    ______ ____
ROOT
ATOM      1  C   UNK A   1       6.402  -4.410  23.053  0.00  0.00    +0.222 C 
ENDROOT
BRANCH   1   2
ATOM      2  N   UNK A   1       7.492  -3.448  23.237  0.00  0.00    -0.297 N 
ATOM      3  H   UNK A   1       7.358  -2.493  22.923  0.00  0.00    +0.150 HD
ATOM      4  C   UNK A   0       8.709  -3.805  23.775  0.00  0.00    +0.251 C 
ATOM      5  O   UNK A   0       8.948  -4.938  24.183  0.00  0.00    -0.272 OA
BRANCH   4   6
ATOM      6  C   UNK A   0       9.719  -2.663  23.860  0.00  0.00    +0.324 C 
BRANCH   6   7
ATOM      7  O   UNK A   0       9.608  -1.889  22.670  0.00  0.00    -0.483 OA
BRANCH   7   8
ATOM      8  C   UNK A   0       9.861  -0.549  22.783  0.00  0.00    +0.121 A 
ATOM      9  C   UNK A   0      10.319  -0.141  24.039  0.00  0.00    +0.045 A 
ATOM     10  C   UNK A   0      10.598   1.204  24.294  0.00  0.00    +0.004 A 
ATOM     11  C   UNK A   0      10.422   2.153  23.290  0.00  0.00    +0.000 A 
ATOM     12  C   UNK A   0       9.972   1.753  22.033  0.00  0.00    +0.004 A 
ATOM     13  C   UNK A   0       9.692   0.406  21.779  0.00  0.00    +0.045 A 
ENDBRANCH   7   8
ENDBRANCH   6   7
ENDBRANCH   4   6
ENDBRANCH   1   2
BRANCH   1  14
ATOM     14  C   UNK A   1       6.483  -5.000  21.637  0.00  0.00    +0.329 C 
ATOM     15  O   UNK A   1       7.221  -5.929  21.336  0.00  0.00    -0.249 OA
BRANCH  14  16
ATOM     16  O   UNK A   1       5.782  -4.340  20.684  0.00  0.00    -0.479 OA
ATOM     17  H   UNK A   1       4.836  -4.574  20.619  0.00  0.00    +0.295 HD
ENDBRANCH  14  16
ENDBRANCH   1  14
BRANCH   1  18
ATOM     18  C   UNK A   1       5.048  -3.772  23.361  0.00  0.00    +0.296 C 
BRANCH  18  19
ATOM     19  O   UNK A   1       5.003  -3.568  24.780  0.00  0.00    -0.391 OA
BRANCH  19  20
ATOM     20  N   UNK A   1       5.623  -4.619  25.449  0.00  0.00    -0.082 NA
ATOM     21  C   UNK A   1       6.183  -4.188  26.549  0.00  0.00    +0.164 C 
BRANCH  21  22
ATOM     22  C   UNK A   1       6.883  -5.237  27.415  0.00  0.00    +0.354 C 
ATOM     23  O   UNK A   1       6.526  -5.497  28.545  0.00  0.00    -0.244 OA
BRANCH  22  24
ATOM     24  O   UNK A   1       7.920  -5.792  26.770  0.00  0.00    -0.476 OA
ATOM     25  H   UNK A   1       8.681  -5.168  26.767  0.00  0.00    +0.295 HD
ENDBRANCH  22  24
ENDBRANCH  21  22
BRANCH  21  26
ATOM     26  C   UNK A   1       6.210  -2.756  27.046  0.00  0.00    +0.077 C 
BRANCH  26  27
ATOM     27  C   UNK A   1       7.512  -2.054  26.670  0.00  0.00    +0.127 C 
BRANCH  27  28
ATOM     28  C   UNK A   1       7.234  -0.786  25.903  0.00  0.00    +0.305 C 
ATOM     29  O   UNK A   1       7.561   0.329  26.282  0.00  0.00    -0.251 OA
BRANCH  28  30
ATOM     30  O   UNK A   1       6.544  -0.992  24.761  0.00  0.00    -0.481 OA
ATOM     31  H   UNK A   1       5.659  -1.389  24.879  0.00  0.00    +0.295 HD
ENDBRANCH  28  30
ENDBRANCH  27  28
ENDBRANCH  26  27
ENDBRANCH  21  26
ENDBRANCH  19  20
ENDBRANCH  18  19
ENDBRANCH   1  18
TORSDOF 15
ENDMDL
MODEL 2
REMARK VINA RESULT:      -6.0      1.620      2.867
REMARK  Name = 
REMARK  15 active torsions:
REMARK  status: ('A' for Active; 'I' for Inactive)
REMARK    1  A    between atoms: C_2  and  C_3
REMARK    2  A    between atoms: C_2  and  N_15
REMARK    3  A    between atoms: C_2  and  C_26
REMARK    4  A    between atoms: C_3  and  O_4
REMARK    5  A    between atoms: O_4  and  N_5
REMARK    6  A    between atoms: C_6  and  C_7
REMARK    7  A    between atoms: C_6  and  C_12
REMARK    8  A    between atoms: C_7  and  C_8
REMARK    9  A    between atoms: C_8  and  C_9
REMARK   10  A    between atoms: C_9  and  O_10
REMARK   11  A    between atoms: C_12  and  O_13
REMARK   12  A    between atoms: C_16  and  C_18
REMARK   13  A    between atoms: C_18  and  O_19
REMARK   14  A    between atoms: O_19  and  C_20
REMARK   15  A    between atoms: C_26  and  O_27
REMARK                            x       y       z     vdW  Elec       q    Type
REMARK                         _______ _______ _______ _____ _____    ______ ____
ROOT
ATOM      1  C   UNK A   1       6.318  -3.679  23.771  0.00  0.00    +0.222 C 
ENDROOT
BRANCH   1   2
ATOM      2  N   UNK A   1       7.580  -2.932  23.788  0.00  0.00    -0.297 N 
ATOM      3  H   UNK A   1       7.554  -1.929  23.642  0.00  0.00    +0.150 HD
ATOM      4  C   UNK A   0       8.801  -3.549  23.944  0.00  0.00    +0.251 C 
ATOM      5  O   UNK A   0       8.915  -4.757  24.130  0.00  0.00    -0.272 OA
BRANCH   4   6
ATOM      6  C   UNK A   0       9.995  -2.599  23.910  0.00  0.00    +0.324 C 
BRANCH   6   7
ATOM      7  O   UNK A   0       9.956  -1.888  22.676  0.00  0.00    -0.483 OA
BRANCH   7   8
ATOM      8  C   UNK A   0      10.053  -0.526  22.749  0.00  0.00    +0.121 A 
ATOM      9  C   UNK A   0      10.501  -0.033  23.978  0.00  0.00    +0.045 A 
ATOM     10  C   UNK A   0      10.628   1.342  24.192  0.00  0.00    +0.004 A 
ATOM     11  C   UNK A   0      10.307   2.236  23.173  0.00  0.00    +0.000 A 
ATOM     12  C   UNK A   0       9.866   1.752  21.943  0.00  0.00    +0.004 A 
ATOM     13  C   UNK A   0       9.739   0.376  21.730  0.00  0.00    +0.045 A 
ENDBRANCH   7   8
ENDBRANCH   6   7
ENDBRANCH   4   6
ENDBRANCH   1   2
BRANCH   1  14
ATOM     14  C   UNK A   1       6.039  -4.166  22.340  0.00  0.00    +0.329 C 
ATOM     15  O   UNK A   1       5.296  -3.582  21.563  0.00  0.00    -0.249 OA
BRANCH  14  16
ATOM     16  O   UNK A   1       6.561  -5.374  22.019  0.00  0.00    -0.479 OA
ATOM     17  H   UNK A   1       6.996  -5.853  22.751  0.00  0.00    +0.295 HD
ENDBRANCH  14  16
ENDBRANCH   1  14
BRANCH   1  18
ATOM     18  C   UNK A   1       5.178  -2.846  24.354  0.00  0.00    +0.296 C 
BRANCH  18  19
ATOM     19  O   UNK A   1       4.856  -3.423  25.626  0.00  0.00    -0.391 OA
BRANCH  19  20
ATOM     20  N   UNK A   1       6.000  -3.913  26.250  0.00  0.00    -0.082 NA
ATOM     21  C   UNK A   1       5.756  -5.076  26.795  0.00  0.00    +0.164 C 
BRANCH  21  22
ATOM     22  C   UNK A   1       6.931  -5.760  27.496  0.00  0.00    +0.354 C 
ATOM     23  O   UNK A   1       6.867  -6.164  28.639  0.00  0.00    -0.244 OA
BRANCH  22  24
ATOM     24  O   UNK A   1       8.007  -5.828  26.698  0.00  0.00    -0.476 OA
ATOM     25  H   UNK A   1       8.002  -6.681  26.206  0.00  0.00    +0.295 HD
ENDBRANCH  22  24
ENDBRANCH  21  22
BRANCH  21  26
ATOM     26  C   UNK A   1       4.428  -5.807  26.804  0.00  0.00    +0.077 C 
BRANCH  26  27
ATOM     27  C   UNK A   1       4.462  -7.043  25.908  0.00  0.00    +0.127 C 
BRANCH  27  28
ATOM     28  C   UNK A   1       4.135  -6.679  24.482  0.00  0.00    +0.305 C 
ATOM     29  O   UNK A   1       3.252  -5.898  24.160  0.00  0.00    -0.251 OA
BRANCH  28  30
ATOM     30  O   UNK A   1       4.891  -7.335  23.576  0.00  0.00    -0.481 OA
ATOM     31  H   UNK A   1       5.853  -7.177  23.650  0.00  0.00    +0.295 HD
ENDBRANCH  28  30
ENDBRANCH  27  28
ENDBRANCH  26  27
ENDBRANCH  21  26
ENDBRANCH  19  20
ENDBRANCH  18  19
ENDBRANCH   1  18
TORSDOF 15
ENDMDL
MODEL 3
REMARK VINA RESULT:      -5.9      2.747      5.226
REMARK  Name = 
REMARK  15 active torsions:
REMARK  status: ('A' for Active; 'I' for Inactive)
REMARK    1  A    between atoms: C_2  and  C_3
REMARK    2  A    between atoms: C_2  and  N_15
REMARK    3  A    between atoms: C_2  and  C_26
REMARK    4  A    between atoms: C_3  and  O_4
REMARK    5  A    between atoms: O_4  and  N_5
REMARK    6  A    between atoms: C_6  and  C_7
REMARK    7  A    between atoms: C_6  and  C_12
REMARK    8  A    between atoms: C_7  and  C_8
REMARK    9  A    between atoms: C_8  and  C_9
REMARK   10  A    between atoms: C_9  and  O_10
REMARK   11  A    between atoms: C_12  and  O_13
REMARK   12  A    between atoms: C_16  and  C_18
REMARK   13  A    between atoms: C_18  and  O_19
REMARK   14  A    between atoms: O_19  and  C_20
REMARK   15  A    between atoms: C_26  and  O_27
REMARK                            x       y       z     vdW  Elec       q    Type
REMARK                         _______ _______ _______ _____ _____    ______ ____
ROOT
ATOM      1  C   UNK A   1       8.688  -0.457  23.243  0.00  0.00    +0.222 C 
ENDROOT
BRANCH   1   2
ATOM      2  N   UNK A   1       8.333   0.911  23.632  0.00  0.00    -0.297 N 
ATOM      3  H   UNK A   1       7.409   1.259  23.402  0.00  0.00    +0.150 HD
ATOM      4  C   UNK A   0       9.225   1.758  24.251  0.00  0.00    +0.251 C 
ATOM      5  O   UNK A   0      10.360   1.411  24.566  0.00  0.00    -0.272 OA
BRANCH   4   6
ATOM      6  C   UNK A   0       8.670   3.148  24.552  0.00  0.00    +0.324 C 
BRANCH   6   7
ATOM      7  O   UNK A   0       9.176   4.045  23.570  0.00  0.00    -0.483 OA
BRANCH   7   8
ATOM      8  C   UNK A   0      10.102   4.960  23.992  0.00  0.00    +0.121 A 
ATOM      9  C   UNK A   0      11.391   4.767  23.487  0.00  0.00    +0.045 A 
ATOM     10  C   UNK A   0      12.435   5.620  23.853  0.00  0.00    +0.004 A 
ATOM     11  C   UNK A   0      12.195   6.676  24.728  0.00  0.00    +0.000 A 
ATOM     12  C   UNK A   0      10.911   6.879  25.231  0.00  0.00    +0.004 A 
ATOM     13  C   UNK A   0       9.867   6.024  24.865  0.00  0.00    +0.045 A 
ENDBRANCH   7   8
ENDBRANCH   6   7
ENDBRANCH   4   6
ENDBRANCH   1   2
BRANCH   1  14
ATOM     14  C   UNK A   1       9.358  -0.431  21.860  0.00  0.00    +0.329 C 
ATOM     15  O   UNK A   1       9.197   0.473  21.051  0.00  0.00    -0.249 OA
BRANCH  14  16
ATOM     16  O   UNK A   1      10.044  -1.548  21.518  0.00  0.00    -0.479 OA
ATOM     17  H   UNK A   1      10.707  -1.850  22.168  0.00  0.00    +0.295 HD
ENDBRANCH  14  16
ENDBRANCH   1  14
BRANCH   1  18
ATOM     18  C   UNK A   1       7.471  -1.379  23.303  0.00  0.00    +0.296 C 
BRANCH  18  19
ATOM     19  O   UNK A   1       7.912  -2.671  22.863  0.00  0.00    -0.391 OA
BRANCH  19  20
ATOM     20  N   UNK A   1       8.647  -3.307  23.860  0.00  0.00    -0.082 NA
ATOM     21  C   UNK A   1       8.104  -4.457  24.159  0.00  0.00    +0.164 C 
BRANCH  21  22
ATOM     22  C   UNK A   1       8.818  -5.293  25.223  0.00  0.00    +0.354 C 
ATOM     23  O   UNK A   1       8.278  -5.644  26.251  0.00  0.00    -0.244 OA
BRANCH  22  24
ATOM     24  O   UNK A   1      10.087  -5.555  24.871  0.00  0.00    -0.476 OA
ATOM     25  H   UNK A   1      10.197  -6.522  24.724  0.00  0.00    +0.295 HD
ENDBRANCH  22  24
ENDBRANCH  21  22
BRANCH  21  26
ATOM     26  C   UNK A   1       6.840  -5.041  23.559  0.00  0.00    +0.077 C 
BRANCH  26  27
ATOM     27  C   UNK A   1       7.115  -5.727  22.224  0.00  0.00    +0.127 C 
BRANCH  27  28
ATOM     28  C   UNK A   1       6.191  -5.203  21.154  0.00  0.00    +0.305 C 
ATOM     29  O   UNK A   1       5.979  -5.772  20.093  0.00  0.00    -0.251 OA
BRANCH  28  30
ATOM     30  O   UNK A   1       5.640  -4.009  21.460  0.00  0.00    -0.481 OA
ATOM     31  H   UNK A   1       5.361  -3.473  20.693  0.00  0.00    +0.295 HD
ENDBRANCH  28  30
ENDBRANCH  27  28
ENDBRANCH  26  27
ENDBRANCH  21  26
ENDBRANCH  19  20
ENDBRANCH  18  19
ENDBRANCH   1  18
TORSDOF 15
ENDMDL
MODEL 4
REMARK VINA RESULT:      -5.8      2.041      3.906
REMARK  Name = 
REMARK  15 active torsions:
REMARK  status: ('A' for Active; 'I' for Inactive)
REMARK    1  A    between atoms: C_2  and  C_3
REMARK    2  A    between atoms: C_2  and  N_15
REMARK    3  A    between atoms: C_2  and  C_26
REMARK    4  A    between atoms: C_3  and  O_4
REMARK    5  A    between atoms: O_4  and  N_5
REMARK    6  A    between atoms: C_6  and  C_7
REMARK    7  A    between atoms: C_6  and  C_12
REMARK    8  A    between atoms: C_7  and  C_8
REMARK    9  A    between atoms: C_8  and  C_9
REMARK   10  A    between atoms: C_9  and  O_10
REMARK   11  A    between atoms: C_12  and  O_13
REMARK   12  A    between atoms: C_16  and  C_18
REMARK   13  A    between atoms: C_18  and  O_19
REMARK   14  A    between atoms: O_19  and  C_20
REMARK   15  A    between atoms: C_26  and  O_27
REMARK                            x       y       z     vdW  Elec       q    Type
REMARK                         _______ _______ _______ _____ _____    ______ ____
ROOT
ATOM      1  C   UNK A   1       8.422  -3.859  26.489  0.00  0.00    +0.222 C 
ENDROOT
BRANCH   1   2
ATOM      2  N   UNK A   1       7.699  -2.695  25.967  0.00  0.00    -0.297 N 
ATOM      3  H   UNK A   1       6.923  -2.849  25.333  0.00  0.00    +0.150 HD
ATOM      4  C   UNK A   0       8.067  -1.402  26.264  0.00  0.00    +0.251 C 
ATOM      5  O   UNK A   0       8.992  -1.134  27.026  0.00  0.00    -0.272 OA
BRANCH   4   6
ATOM      6  C   UNK A   0       7.201  -0.333  25.602  0.00  0.00    +0.324 C 
BRANCH   6   7
ATOM      7  O   UNK A   0       7.465  -0.359  24.203  0.00  0.00    -0.483 OA
BRANCH   7   8
ATOM      8  C   UNK A   0       8.390   0.535  23.735  0.00  0.00    +0.121 A 
ATOM      9  C   UNK A   0       8.802   0.319  22.417  0.00  0.00    +0.045 A 
ATOM     10  C   UNK A   0       9.755   1.149  21.823  0.00  0.00    +0.004 A 
ATOM     11  C   UNK A   0      10.304   2.205  22.546  0.00  0.00    +0.000 A 
ATOM     12  C   UNK A   0       9.894   2.431  23.858  0.00  0.00    +0.004 A 
ATOM     13  C   UNK A   0       8.939   1.599  24.453  0.00  0.00    +0.045 A 
ENDBRANCH   7   8
ENDBRANCH   6   7
ENDBRANCH   4   6
ENDBRANCH   1   2
BRANCH   1  14
ATOM     14  C   UNK A   1       9.294  -4.454  25.373  0.00  0.00    +0.329 C 
ATOM     15  O   UNK A   1       9.246  -4.080  24.209  0.00  0.00    -0.249 OA
BRANCH  14  16
ATOM     16  O   UNK A   1      10.039  -5.531  25.721  0.00  0.00    -0.479 OA
ATOM     17  H   UNK A   1      10.528  -5.451  26.563  0.00  0.00    +0.295 HD
ENDBRANCH  14  16
ENDBRANCH   1  14
BRANCH   1  18
ATOM     18  C   UNK A   1       7.461  -4.873  27.106  0.00  0.00    +0.296 C 
BRANCH  18  19
ATOM     19  O   UNK A   1       7.201  -5.859  26.097  0.00  0.00    -0.391 OA
BRANCH  19  20
ATOM     20  N   UNK A   1       5.938  -6.417  26.267  0.00  0.00    -0.082 NA
ATOM     21  C   UNK A   1       5.243  -6.308  25.166  0.00  0.00    +0.164 C 
BRANCH  21  22
ATOM     22  C   UNK A   1       3.835  -6.906  25.185  0.00  0.00    +0.354 C 
ATOM     23  O   UNK A   1       3.017  -6.630  26.039  0.00  0.00    -0.244 OA
BRANCH  22  24
ATOM     24  O   UNK A   1       3.651  -7.762  24.169  0.00  0.00    -0.476 OA
ATOM     25  H   UNK A   1       4.319  -8.482  24.216  0.00  0.00    +0.295 HD
ENDBRANCH  22  24
ENDBRANCH  21  22
BRANCH  21  26
ATOM     26  C   UNK A   1       5.692  -5.646  23.878  0.00  0.00    +0.077 C 
BRANCH  26  27
ATOM     27  C   UNK A   1       5.182  -4.211  23.776  0.00  0.00    +0.127 C 
BRANCH  27  28
ATOM     28  C   UNK A   1       5.844  -3.489  22.630  0.00  0.00    +0.305 C 
ATOM     29  O   UNK A   1       5.436  -3.513  21.478  0.00  0.00    -0.251 OA
BRANCH  28  30
ATOM     30  O   UNK A   1       6.969  -2.834  22.989  0.00  0.00    -0.481 OA
ATOM     31  H   UNK A   1       7.448  -3.222  23.746  0.00  0.00    +0.295 HD
ENDBRANCH  28  30
ENDBRANCH  27  28
ENDBRANCH  26  27
ENDBRANCH  21  26
ENDBRANCH  19  20
ENDBRANCH  18  19
ENDBRANCH   1  18
TORSDOF 15
ENDMDL
MODEL 5
REMARK VINA RESULT:      -5.7      2.504      4.876
REMARK  Name = 
REMARK  15 active torsions:
REMARK  status: ('A' for Active; 'I' for Inactive)
REMARK    1  A    between atoms: C_2  and  C_3
REMARK    2  A    between atoms: C_2  and  N_15
REMARK    3  A    between atoms: C_2  and  C_26
REMARK    4  A    between atoms: C_3  and  O_4
REMARK    5  A    between atoms: O_4  and  N_5
REMARK    6  A    between atoms: C_6  and  C_7
REMARK    7  A    between atoms: C_6  and  C_12
REMARK    8  A    between atoms: C_7  and  C_8
REMARK    9  A    between atoms: C_8  and  C_9
REMARK   10  A    between atoms: C_9  and  O_10
REMARK   11  A    between atoms: C_12  and  O_13
REMARK   12  A    between atoms: C_16  and  C_18
REMARK   13  A    between atoms: C_18  and  O_19
REMARK   14  A    between atoms: O_19  and  C_20
REMARK   15  A    between atoms: C_26  and  O_27
REMARK                            x       y       z     vdW  Elec       q    Type
REMARK                         _______ _______ _______ _____ _____    ______ ____
ROOT
ATOM      1  C   UNK A   1       8.541  -1.007  23.323  0.00  0.00    +0.222 C 
ENDROOT
BRANCH   1   2
ATOM      2  N   UNK A   1       8.683   0.378  22.865  0.00  0.00    -0.297 N 
ATOM      3  H   UNK A   1       9.203   0.559  22.014  0.00  0.00    +0.150 HD
ATOM      4  C   UNK A   0       8.178   1.445  23.574  0.00  0.00    +0.251 C 
ATOM      5  O   UNK A   0       7.533   1.309  24.609  0.00  0.00    -0.272 OA
BRANCH   4   6
ATOM      6  C   UNK A   0       8.451   2.807  22.941  0.00  0.00    +0.324 C 
BRANCH   6   7
ATOM      7  O   UNK A   0       8.764   3.722  23.986  0.00  0.00    -0.483 OA
BRANCH   7   8
ATOM      8  C   UNK A   0       9.974   4.357  23.905  0.00  0.00    +0.121 A 
ATOM      9  C   UNK A   0       9.989   5.659  24.413  0.00  0.00    +0.045 A 
ATOM     10  C   UNK A   0      11.157   6.425  24.376  0.00  0.00    +0.004 A 
ATOM     11  C   UNK A   0      12.321   5.891  23.830  0.00  0.00    +0.000 A 
ATOM     12  C   UNK A   0      12.315   4.591  23.327  0.00  0.00    +0.004 A 
ATOM     13  C   UNK A   0      11.146   3.825  23.364  0.00  0.00    +0.045 A 
ENDBRANCH   7   8
ENDBRANCH   6   7
ENDBRANCH   4   6
ENDBRANCH   1   2
BRANCH   1  14
ATOM     14  C   UNK A   1       9.751  -1.824  22.841  0.00  0.00    +0.329 C 
ATOM     15  O   UNK A   1      10.369  -2.600  23.558  0.00  0.00    -0.249 OA
BRANCH  14  16
ATOM     16  O   UNK A   1      10.195  -1.536  21.594  0.00  0.00    -0.479 OA
ATOM     17  H   UNK A   1      11.132  -1.750  21.421  0.00  0.00    +0.295 HD
ENDBRANCH  14  16
ENDBRANCH   1  14
BRANCH   1  18
ATOM     18  C   UNK A   1       7.204  -1.599  22.882  0.00  0.00    +0.296 C 
BRANCH  18  19
ATOM     19  O   UNK A   1       7.507  -2.689  22.000  0.00  0.00    -0.391 OA
BRANCH  19  20
ATOM     20  N   UNK A   1       6.402  -3.522  21.848  0.00  0.00    -0.082 NA
ATOM     21  C   UNK A   1       6.592  -4.647  22.485  0.00  0.00    +0.164 C 
BRANCH  21  22
ATOM     22  C   UNK A   1       5.447  -5.660  22.436  0.00  0.00    +0.354 C 
ATOM     23  O   UNK A   1       4.285  -5.343  22.587  0.00  0.00    -0.244 OA
BRANCH  22  24
ATOM     24  O   UNK A   1       5.901  -6.905  22.228  0.00  0.00    -0.476 OA
ATOM     25  H   UNK A   1       5.415  -7.537  22.806  0.00  0.00    +0.295 HD
ENDBRANCH  22  24
ENDBRANCH  21  22
BRANCH  21  26
ATOM     26  C   UNK A   1       7.832  -5.047  23.260  0.00  0.00    +0.077 C 
BRANCH  26  27
ATOM     27  C   UNK A   1       7.616  -4.930  24.766  0.00  0.00    +0.127 C 
BRANCH  27  28
ATOM     28  C   UNK A   1       8.934  -4.952  25.499  0.00  0.00    +0.305 C 
ATOM     29  O   UNK A   1       9.076  -4.608  26.663  0.00  0.00    -0.251 OA
BRANCH  28  30
ATOM     30  O   UNK A   1       9.967  -5.356  24.729  0.00  0.00    -0.481 OA
ATOM     31  H   UNK A   1      10.501  -4.634  24.344  0.00  0.00    +0.295 HD
ENDBRANCH  28  30
ENDBRANCH  27  28
ENDBRANCH  26  27
ENDBRANCH  21  26
ENDBRANCH  19  20
ENDBRANCH  18  19
ENDBRANCH   1  18
TORSDOF 15
ENDMDL
MODEL 6
REMARK VINA RESULT:      -5.6      2.143      3.376
REMARK  Name = 
REMARK  15 active torsions:
REMARK  status: ('A' for Active; 'I' for Inactive)
REMARK    1  A    between atoms: C_2  and  C_3
REMARK    2  A    between atoms: C_2  and  N_15
REMARK    3  A    between atoms: C_2  and  C_26
REMARK    4  A    between atoms: C_3  and  O_4
REMARK    5  A    between atoms: O_4  and  N_5
REMARK    6  A    between atoms: C_6  and  C_7
REMARK    7  A    between atoms: C_6  and  C_12
REMARK    8  A    between atoms: C_7  and  C_8
REMARK    9  A    between atoms: C_8  and  C_9
REMARK   10  A    between atoms: C_9  and  O_10
REMARK   11  A    between atoms: C_12  and  O_13
REMARK   12  A    between atoms: C_16  and  C_18
REMARK   13  A    between atoms: C_18  and  O_19
REMARK   14  A    between atoms: O_19  and  C_20
REMARK   15  A    between atoms: C_26  and  O_27
REMARK                            x       y       z     vdW  Elec       q    Type
REMARK                         _______ _______ _______ _____ _____    ______ ____
ROOT
ATOM      1  C   UNK A   1       9.214  -3.659  25.009  0.00  0.00    +0.222 C 
ENDROOT
BRANCH   1   2
ATOM      2  N   UNK A   1       8.677  -2.835  23.923  0.00  0.00    -0.297 N 
ATOM      3  H   UNK A   1       7.672  -2.716  23.853  0.00  0.00    +0.150 HD
ATOM      4  C   UNK A   0       9.481  -2.260  22.965  0.00  0.00    +0.251 C 
ATOM      5  O   UNK A   0      10.705  -2.354  22.982  0.00  0.00    -0.272 OA
BRANCH   4   6
ATOM      6  C   UNK A   0       8.726  -1.460  21.906  0.00  0.00    +0.324 C 
BRANCH   6   7
ATOM      7  O   UNK A   0       9.570  -0.398  21.473  0.00  0.00    -0.483 OA
BRANCH   7   8
ATOM      8  C   UNK A   0       9.391   0.815  22.079  0.00  0.00    +0.121 A 
ATOM      9  C   UNK A   0       8.281   1.538  21.631  0.00  0.00    +0.045 A 
ATOM     10  C   UNK A   0       7.994   2.800  22.155  0.00  0.00    +0.004 A 
ATOM     11  C   UNK A   0       8.818   3.351  23.134  0.00  0.00    +0.000 A 
ATOM     12  C   UNK A   0       9.923   2.634  23.589  0.00  0.00    +0.004 A 
ATOM     13  C   UNK A   0      10.210   1.370  23.064  0.00  0.00    +0.045 A 
ENDBRANCH   7   8
ENDBRANCH   6   7
ENDBRANCH   4   6
ENDBRANCH   1   2
BRANCH   1  14
ATOM     14  C   UNK A   1       9.019  -5.143  24.662  0.00  0.00    +0.329 C 
ATOM     15  O   UNK A   1       8.444  -5.528  23.652  0.00  0.00    -0.249 OA
BRANCH  14  16
ATOM     16  O   UNK A   1       9.403  -6.026  25.615  0.00  0.00    -0.479 OA
ATOM     17  H   UNK A   1      10.272  -5.851  26.025  0.00  0.00    +0.295 HD
ENDBRANCH  14  16
ENDBRANCH   1  14
BRANCH   1  18
ATOM     18  C   UNK A   1       8.597  -3.271  26.351  0.00  0.00    +0.296 C 
BRANCH  18  19
ATOM     19  O   UNK A   1       7.305  -3.891  26.404  0.00  0.00    -0.391 OA
BRANCH  19  20
ATOM     20  N   UNK A   1       7.111  -4.525  27.628  0.00  0.00    -0.082 NA
ATOM     21  C   UNK A   1       6.354  -5.579  27.479  0.00  0.00    +0.164 C 
BRANCH  21  22
ATOM     22  C   UNK A   1       6.074  -6.403  28.737  0.00  0.00    +0.354 C 
ATOM     23  O   UNK A   1       6.344  -6.007  29.852  0.00  0.00    -0.244 OA
BRANCH  22  24
ATOM     24  O   UNK A   1       5.522  -7.588  28.435  0.00  0.00    -0.476 OA
ATOM     25  H   UNK A   1       6.224  -8.276  28.381  0.00  0.00    +0.295 HD
ENDBRANCH  22  24
ENDBRANCH  21  22
BRANCH  21  26
ATOM     26  C   UNK A   1       5.725  -6.061  26.186  0.00  0.00    +0.077 C 
BRANCH  26  27
ATOM     27  C   UNK A   1       4.377  -5.391  25.932  0.00  0.00    +0.127 C 
BRANCH  27  28
ATOM     28  C   UNK A   1       4.440  -4.514  24.707  0.00  0.00    +0.305 C 
ATOM     29  O   UNK A   1       3.462  -4.005  24.179  0.00  0.00    -0.251 OA
BRANCH  28  30
ATOM     30  O   UNK A   1       5.689  -4.371  24.214  0.00  0.00    -0.481 OA
ATOM     31  H   UNK A   1       5.756  -4.410  23.240  0.00  0.00    +0.295 HD
ENDBRANCH  28  30
ENDBRANCH  27  28
ENDBRANCH  26  27
ENDBRANCH  21  26
ENDBRANCH  19  20
ENDBRANCH  18  19
ENDBRANCH   1  18
TORSDOF 15
ENDMDL
MODEL 7
REMARK VINA RESULT:      -5.6      1.653      2.859
REMARK  Name = 
REMARK  15 active torsions:
REMARK  status: ('A' for Active; 'I' for Inactive)
REMARK    1  A    between atoms: C_2  and  C_3
REMARK    2  A    between atoms: C_2  and  N_15
REMARK    3  A    between atoms: C_2  and  C_26
REMARK    4  A    between atoms: C_3  and  O_4
REMARK    5  A    between atoms: O_4  and  N_5
REMARK    6  A    between atoms: C_6  and  C_7
REMARK    7  A    between atoms: C_6  and  C_12
REMARK    8  A    between atoms: C_7  and  C_8
REMARK    9  A    between atoms: C_8  and  C_9
REMARK   10  A    between atoms: C_9  and  O_10
REMARK   11  A    between atoms: C_12  and  O_13
REMARK   12  A    between atoms: C_16  and  C_18
REMARK   13  A    between atoms: C_18  and  O_19
REMARK   14  A    between atoms: O_19  and  C_20
REMARK   15  A    between atoms: C_26  and  O_27
REMARK                            x       y       z     vdW  Elec       q    Type
REMARK                         _______ _______ _______ _____ _____    ______ ____
ROOT
ATOM      1  C   UNK A   1       6.437  -4.218  23.125  0.00  0.00    +0.222 C 
ENDROOT
BRANCH   1   2
ATOM      2  N   UNK A   1       7.580  -3.335  23.374  0.00  0.00    -0.297 N 
ATOM      3  H   UNK A   1       7.511  -2.361  23.100  0.00  0.00    +0.150 HD
ATOM      4  C   UNK A   0       8.760  -3.789  23.919  0.00  0.00    +0.251 C 
ATOM      5  O   UNK A   0       8.920  -4.951  24.280  0.00  0.00    -0.272 OA
BRANCH   4   6
ATOM      6  C   UNK A   0       9.835  -2.717  24.076  0.00  0.00    +0.324 C 
BRANCH   6   7
ATOM      7  O   UNK A   0       9.878  -1.959  22.871  0.00  0.00    -0.483 OA
BRANCH   7   8
ATOM      8  C   UNK A   0      10.039  -0.606  23.002  0.00  0.00    +0.121 A 
ATOM      9  C   UNK A   0       9.718   0.137  21.862  0.00  0.00    +0.045 A 
ATOM     10  C   UNK A   0       9.854   1.527  21.855  0.00  0.00    +0.004 A 
ATOM     11  C   UNK A   0      10.313   2.186  22.993  0.00  0.00    +0.000 A 
ATOM     12  C   UNK A   0      10.629   1.453  24.135  0.00  0.00    +0.004 A 
ATOM     13  C   UNK A   0      10.493   0.061  24.141  0.00  0.00    +0.045 A 
ENDBRANCH   7   8
ENDBRANCH   6   7
ENDBRANCH   4   6
ENDBRANCH   1   2
BRANCH   1  14
ATOM     14  C   UNK A   1       6.420  -4.616  21.641  0.00  0.00    +0.329 C 
ATOM     15  O   UNK A   1       5.690  -4.090  20.812  0.00  0.00    -0.249 OA
BRANCH  14  16
ATOM     16  O   UNK A   1       7.171  -5.694  21.313  0.00  0.00    -0.479 OA
ATOM     17  H   UNK A   1       7.430  -6.269  22.059  0.00  0.00    +0.295 HD
ENDBRANCH  14  16
ENDBRANCH   1  14
BRANCH   1  18
ATOM     18  C   UNK A   1       5.132  -3.573  23.589  0.00  0.00    +0.296 C 
BRANCH  18  19
ATOM     19  O   UNK A   1       4.719  -4.281  24.766  0.00  0.00    -0.391 OA
BRANCH  19  20
ATOM     20  N   UNK A   1       5.712  -4.241  25.740  0.00  0.00    -0.082 NA
ATOM     21  C   UNK A   1       5.781  -5.387  26.365  0.00  0.00    +0.164 C 
BRANCH  21  22
ATOM     22  C   UNK A   1       6.852  -5.509  27.449  0.00  0.00    +0.354 C 
ATOM     23  O   UNK A   1       6.633  -5.263  28.617  0.00  0.00    -0.244 OA
BRANCH  22  24
ATOM     24  O   UNK A   1       8.029  -5.898  26.935  0.00  0.00    -0.476 OA
ATOM     25  H   UNK A   1       7.880  -6.586  26.248  0.00  0.00    +0.295 HD
ENDBRANCH  22  24
ENDBRANCH  21  22
BRANCH  21  26
ATOM     26  C   UNK A   1       4.903  -6.599  26.123  0.00  0.00    +0.077 C 
BRANCH  26  27
ATOM     27  C   UNK A   1       3.895  -6.797  27.252  0.00  0.00    +0.127 C 
BRANCH  27  28
ATOM     28  C   UNK A   1       3.150  -5.516  27.534  0.00  0.00    +0.305 C 
ATOM     29  O   UNK A   1       3.102  -4.981  28.631  0.00  0.00    -0.251 OA
BRANCH  28  30
ATOM     30  O   UNK A   1       2.499  -5.028  26.457  0.00  0.00    -0.481 OA
ATOM     31  H   UNK A   1       1.528  -5.131  26.479  0.00  0.00    +0.295 HD
ENDBRANCH  28  30
ENDBRANCH  27  28
ENDBRANCH  26  27
ENDBRANCH  21  26
ENDBRANCH  19  20
ENDBRANCH  18  19
ENDBRANCH   1  18
TORSDOF 15
ENDMDL
MODEL 8
REMARK VINA RESULT:      -5.6      4.011      8.179
REMARK  Name = 
REMARK  15 active torsions:
REMARK  status: ('A' for Active; 'I' for Inactive)
REMARK    1  A    between atoms: C_2  and  C_3
REMARK    2  A    between atoms: C_2  and  N_15
REMARK    3  A    between atoms: C_2  and  C_26
REMARK    4  A    between atoms: C_3  and  O_4
REMARK    5  A    between atoms: O_4  and  N_5
REMARK    6  A    between atoms: C_6  and  C_7
REMARK    7  A    between atoms: C_6  and  C_12
REMARK    8  A    between atoms: C_7  and  C_8
REMARK    9  A    between atoms: C_8  and  C_9
REMARK   10  A    between atoms: C_9  and  O_10
REMARK   11  A    between atoms: C_12  and  O_13
REMARK   12  A    between atoms: C_16  and  C_18
REMARK   13  A    between atoms: C_18  and  O_19
REMARK   14  A    between atoms: O_19  and  C_20
REMARK   15  A    between atoms: C_26  and  O_27
REMARK                            x       y       z     vdW  Elec       q    Type
REMARK                         _______ _______ _______ _____ _____    ______ ____
ROOT
ATOM      1  C   UNK A   1       8.928   1.349  23.560  0.00  0.00    +0.222 C 
ENDROOT
BRANCH   1   2
ATOM      2  N   UNK A   1       8.576  -0.071  23.653  0.00  0.00    -0.297 N 
ATOM      3  H   UNK A   1       7.859  -0.353  24.312  0.00  0.00    +0.150 HD
ATOM      4  C   UNK A   0       9.218  -1.041  22.916  0.00  0.00    +0.251 C 
ATOM      5  O   UNK A   0      10.093  -0.781  22.095  0.00  0.00    -0.272 OA
BRANCH   4   6
ATOM      6  C   UNK A   0       8.721  -2.461  23.175  0.00  0.00    +0.324 C 
BRANCH   6   7
ATOM      7  O   UNK A   0       7.945  -2.866  22.052  0.00  0.00    -0.483 OA
BRANCH   7   8
ATOM      8  C   UNK A   0       6.907  -3.722  22.298  0.00  0.00    +0.121 A 
ATOM      9  C   UNK A   0       7.148  -5.054  21.949  0.00  0.00    +0.045 A 
ATOM     10  C   UNK A   0       6.164  -6.029  22.132  0.00  0.00    +0.004 A 
ATOM     11  C   UNK A   0       4.928  -5.677  22.669  0.00  0.00    +0.000 A 
ATOM     12  C   UNK A   0       4.683  -4.352  23.026  0.00  0.00    +0.004 A 
ATOM     13  C   UNK A   0       5.668  -3.377  22.842  0.00  0.00    +0.045 A 
ENDBRANCH   7   8
ENDBRANCH   6   7
ENDBRANCH   4   6
ENDBRANCH   1   2
BRANCH   1  14
ATOM     14  C   UNK A   1       8.653   1.844  22.131  0.00  0.00    +0.329 C 
ATOM     15  O   UNK A   1       7.527   1.962  21.665  0.00  0.00    -0.249 OA
BRANCH  14  16
ATOM     16  O   UNK A   1       9.745   2.020  21.349  0.00  0.00    -0.479 OA
ATOM     17  H   UNK A   1      10.039   1.231  20.854  0.00  0.00    +0.295 HD
ENDBRANCH  14  16
ENDBRANCH   1  14
BRANCH   1  18
ATOM     18  C   UNK A   1      10.367   1.590  24.011  0.00  0.00    +0.296 C 
BRANCH  18  19
ATOM     19  O   UNK A   1      10.546   3.011  24.076  0.00  0.00    -0.391 OA
BRANCH  19  20
ATOM     20  N   UNK A   1      11.665   3.402  23.347  0.00  0.00    -0.082 NA
ATOM     21  C   UNK A   1      11.828   4.696  23.426  0.00  0.00    +0.164 C 
BRANCH  21  22
ATOM     22  C   UNK A   1      13.041   5.277  22.697  0.00  0.00    +0.354 C 
ATOM     23  O   UNK A   1      12.945   5.910  21.666  0.00  0.00    -0.244 OA
BRANCH  22  24
ATOM     24  O   UNK A   1      14.185   4.979  23.332  0.00  0.00    -0.476 OA
ATOM     25  H   UNK A   1      14.525   5.778  23.795  0.00  0.00    +0.295 HD
ENDBRANCH  22  24
ENDBRANCH  21  22
BRANCH  21  26
ATOM     26  C   UNK A   1      10.935   5.675  24.164  0.00  0.00    +0.077 C 
BRANCH  26  27
ATOM     27  C   UNK A   1       9.849   6.241  23.253  0.00  0.00    +0.127 C 
BRANCH  27  28
ATOM     28  C   UNK A   1       8.559   5.477  23.421  0.00  0.00    +0.305 C 
ATOM     29  O   UNK A   1       8.089   5.157  24.503  0.00  0.00    -0.251 OA
BRANCH  28  30
ATOM     30  O   UNK A   1       7.982   5.138  22.249  0.00  0.00    -0.481 OA
ATOM     31  H   UNK A   1       7.628   4.228  22.210  0.00  0.00    +0.295 HD
ENDBRANCH  28  30
ENDBRANCH  27  28
ENDBRANCH  26  27
ENDBRANCH  21  26
ENDBRANCH  19  20
ENDBRANCH  18  19
ENDBRANCH   1  18
TORSDOF 15
ENDMDL
MODEL 9
REMARK VINA RESULT:      -5.5      1.880      4.219
REMARK  Name = 
REMARK  15 active torsions:
REMARK  status: ('A' for Active; 'I' for Inactive)
REMARK    1  A    between atoms: C_2  and  C_3
REMARK    2  A    between atoms: C_2  and  N_15
REMARK    3  A    between atoms: C_2  and  C_26
REMARK    4  A    between atoms: C_3  and  O_4
REMARK    5  A    between atoms: O_4  and  N_5
REMARK    6  A    between atoms: C_6  and  C_7
REMARK    7  A    between atoms: C_6  and  C_12
REMARK    8  A    between atoms: C_7  and  C_8
REMARK    9  A    between atoms: C_8  and  C_9
REMARK   10  A    between atoms: C_9  and  O_10
REMARK   11  A    between atoms: C_12  and  O_13
REMARK   12  A    between atoms: C_16  and  C_18
REMARK   13  A    between atoms: C_18  and  O_19
REMARK   14  A    between atoms: O_19  and  C_20
REMARK   15  A    between atoms: C_26  and  O_27
REMARK                            x       y       z     vdW  Elec       q    Type
REMARK                         _______ _______ _______ _____ _____    ______ ____
ROOT
ATOM      1  C   UNK A   1       6.703  -4.120  26.374  0.00  0.00    +0.222 C 
ENDROOT
BRANCH   1   2
ATOM      2  N   UNK A   1       7.613  -3.681  25.312  0.00  0.00    -0.297 N 
ATOM      3  H   UNK A   1       7.674  -4.234  24.463  0.00  0.00    +0.150 HD
ATOM      4  C   UNK A   0       8.424  -2.576  25.443  0.00  0.00    +0.251 C 
ATOM      5  O   UNK A   0       8.405  -1.854  26.436  0.00  0.00    -0.272 OA
BRANCH   4   6
ATOM      6  C   UNK A   0       9.314  -2.300  24.234  0.00  0.00    +0.324 C 
BRANCH   6   7
ATOM      7  O   UNK A   0      10.209  -1.248  24.580  0.00  0.00    -0.483 OA
BRANCH   7   8
ATOM      8  C   UNK A   0      10.180  -0.132  23.788  0.00  0.00    +0.121 A 
ATOM      9  C   UNK A   0      10.570   1.050  24.424  0.00  0.00    +0.045 A 
ATOM     10  C   UNK A   0      10.568   2.265  23.735  0.00  0.00    +0.004 A 
ATOM     11  C   UNK A   0      10.176   2.305  22.399  0.00  0.00    +0.000 A 
ATOM     12  C   UNK A   0       9.793   1.130  21.756  0.00  0.00    +0.004 A 
ATOM     13  C   UNK A   0       9.794  -0.086  22.447  0.00  0.00    +0.045 A 
ENDBRANCH   7   8
ENDBRANCH   6   7
ENDBRANCH   4   6
ENDBRANCH   1   2
BRANCH   1  14
ATOM     14  C   UNK A   1       6.926  -5.617  26.643  0.00  0.00    +0.329 C 
ATOM     15  O   UNK A   1       6.018  -6.400  26.884  0.00  0.00    -0.249 OA
BRANCH  14  16
ATOM     16  O   UNK A   1       8.219  -6.011  26.736  0.00  0.00    -0.479 OA
ATOM     17  H   UNK A   1       8.816  -5.390  27.198  0.00  0.00    +0.295 HD
ENDBRANCH  14  16
ENDBRANCH   1  14
BRANCH   1  18
ATOM     18  C   UNK A   1       5.253  -3.782  26.031  0.00  0.00    +0.296 C 
BRANCH  18  19
ATOM     19  O   UNK A   1       5.152  -3.808  24.601  0.00  0.00    -0.391 OA
BRANCH  19  20
ATOM     20  N   UNK A   1       3.931  -4.344  24.203  0.00  0.00    -0.082 NA
ATOM     21  C   UNK A   1       4.114  -5.486  23.593  0.00  0.00    +0.164 C 
BRANCH  21  22
ATOM     22  C   UNK A   1       2.856  -6.217  23.121  0.00  0.00    +0.354 C 
ATOM     23  O   UNK A   1       1.917  -5.642  22.610  0.00  0.00    -0.244 OA
BRANCH  22  24
ATOM     24  O   UNK A   1       2.935  -7.535  23.361  0.00  0.00    -0.476 OA
ATOM     25  H   UNK A   1       2.407  -7.758  24.161  0.00  0.00    +0.295 HD
ENDBRANCH  22  24
ENDBRANCH  21  22
BRANCH  21  26
ATOM     26  C   UNK A   1       5.446  -6.152  23.307  0.00  0.00    +0.077 C 
BRANCH  26  27
ATOM     27  C   UNK A   1       5.838  -6.016  21.838  0.00  0.00    +0.127 C 
BRANCH  27  28
ATOM     28  C   UNK A   1       6.196  -4.589  21.510  0.00  0.00    +0.305 C 
ATOM     29  O   UNK A   1       5.693  -3.949  20.597  0.00  0.00    -0.251 OA
BRANCH  28  30
ATOM     30  O   UNK A   1       7.167  -4.085  22.302  0.00  0.00    -0.481 OA
ATOM     31  H   UNK A   1       7.094  -3.129  22.487  0.00  0.00    +0.295 HD
ENDBRANCH  28  30
ENDBRANCH  27  28
ENDBRANCH  26  27
ENDBRANCH  21  26
ENDBRANCH  19  20
ENDBRANCH  18  19
ENDBRANCH   1  18
TORSDOF 15
ENDMDL
