MODEL 1
REMARK VINA RESULT:      -5.9      0.000      0.000
REMARK  Name = 
REMARK  5 active torsions:
REMARK  status: ('A' for Active; 'I' for Inactive)
REMARK    1  A    between atoms: C_1  and  C_2
REMARK    2  A    between atoms: C_2  and  O_4
REMARK    3  A    between atoms: C_2  and  C_5
REMARK    4  A    between atoms: C_5  and  O_7
REMARK    5  A    between atoms: C_5  and  C_8
REMARK                            x       y       z     vdW  Elec       q    Type
REMARK                         _______ _______ _______ _____ _____    ______ ____
ROOT
ATOM      1  C   UNL     1       8.600  -1.338  22.397  0.00  0.00    +0.119 C 
ATOM      2  N   UNL     1       7.824  -2.598  22.306  0.00  0.00    -0.330 N 
ATOM      3  H   UNL     1       6.815  -2.442  22.189  0.00  0.00    +0.147 HD
ATOM      4  C   UNL     1       7.999  -3.516  23.358  0.00  0.00    +0.133 A 
ATOM      5  C   UNL     1       6.866  -4.414  23.722  0.00  0.00    +0.276 A 
ATOM      6  N   UNL     1       7.020  -5.106  24.883  0.00  0.00    -0.294 N 
ATOM      7  H   UNL     1       6.233  -5.657  25.175  0.00  0.00    +0.172 HD
ATOM      8  C   UNL     1       8.125  -4.990  25.657  0.00  0.00    +0.195 A 
ATOM      9  N   UNL     1       9.151  -4.272  25.328  0.00  0.00    -0.199 NA
ATOM     10  N   UNL     1       8.119  -5.672  26.828  0.00  0.00    -0.329 N 
ATOM     11  H   UNL     1       9.040  -5.742  27.247  0.00  0.00    +0.145 HD
ATOM     12  H   UNL     1       7.572  -6.520  26.884  0.00  0.00    +0.145 HD
ATOM     13  O   UNL     1       5.841  -4.497  23.047  0.00  0.00    -0.266 OA
ATOM     14  C   UNL     1       9.086  -3.532  24.171  0.00  0.00    +0.149 A 
ATOM     15  N   UNL     1      10.140  -2.673  23.871  0.00  0.00    -0.326 N 
ATOM     16  H   UNL     1      10.740  -2.490  24.665  0.00  0.00    +0.148 HD
ATOM     17  C   UNL     1      10.075  -1.693  22.780  0.00  0.00    +0.127 C 
ENDROOT
BRANCH   1  18
ATOM     18  C   UNL     1       8.006  -0.325  23.426  0.00  0.00    +0.164 C 
BRANCH  18  20
ATOM     19  C   UNL     1       8.364   1.507  21.649  0.00  0.00    +0.040 C 
ATOM     20  C   UNL     1       7.554   1.042  22.851  0.00  0.00    +0.142 C 
BRANCH  20  21
ATOM     21  O   UNL     1       6.171   1.030  22.512  0.00  0.00    -0.389 OA
ATOM     22  H   UNL     1       5.649   1.021  23.333  0.00  0.00    +0.210 HD
ENDBRANCH  20  21
ENDBRANCH  18  20
BRANCH  18  23
ATOM     23  O   UNL     1       8.976  -0.095  24.465  0.00  0.00    -0.387 OA
ATOM     24  H   UNL     1       9.687   0.450  24.082  0.00  0.00    +0.210 HD
ENDBRANCH  18  23
ENDBRANCH   1  18
TORSDOF 4
ENDMDL
MODEL 2
REMARK VINA RESULT:      -5.7      2.199      2.976
REMARK  Name = 
REMARK  5 active torsions:
REMARK  status: ('A' for Active; 'I' for Inactive)
REMARK    1  A    between atoms: C_1  and  C_2
REMARK    2  A    between atoms: C_2  and  O_4
REMARK    3  A    between atoms: C_2  and  C_5
REMARK    4  A    between atoms: C_5  and  O_7
REMARK    5  A    between atoms: C_5  and  C_8
REMARK                            x       y       z     vdW  Elec       q    Type
REMARK                         _______ _______ _______ _____ _____    ______ ____
ROOT
ATOM      1  C   UNL     1       8.919  -1.212  24.370  0.00  0.00    +0.119 C 
ATOM      2  N   UNL     1       9.591  -2.384  24.979  0.00  0.00    -0.330 N 
ATOM      3  H   UNL     1      10.211  -2.878  24.325  0.00  0.00    +0.147 HD
ATOM      4  C   UNL     1       8.754  -3.339  25.584  0.00  0.00    +0.133 A 
ATOM      5  C   UNL     1       9.190  -4.765  25.605  0.00  0.00    +0.276 A 
ATOM      6  N   UNL     1       8.241  -5.659  25.993  0.00  0.00    -0.294 N 
ATOM      7  H   UNL     1       8.501  -6.628  25.941  0.00  0.00    +0.172 HD
ATOM      8  C   UNL     1       6.985  -5.284  26.336  0.00  0.00    +0.195 A 
ATOM      9  N   UNL     1       6.604  -4.048  26.393  0.00  0.00    -0.199 NA
ATOM     10  N   UNL     1       6.114  -6.280  26.625  0.00  0.00    -0.329 N 
ATOM     11  H   UNL     1       5.278  -5.948  27.095  0.00  0.00    +0.145 HD
ATOM     12  H   UNL     1       6.482  -7.145  26.996  0.00  0.00    +0.145 HD
ATOM     13  O   UNL     1      10.315  -5.121  25.258  0.00  0.00    -0.266 OA
ATOM     14  C   UNL     1       7.494  -3.071  26.016  0.00  0.00    +0.149 A 
ATOM     15  N   UNL     1       7.054  -1.752  25.968  0.00  0.00    -0.326 N 
ATOM     16  H   UNL     1       6.045  -1.671  25.975  0.00  0.00    +0.148 HD
ATOM     17  C   UNL     1       7.856  -0.670  25.382  0.00  0.00    +0.127 C 
ENDROOT
BRANCH   1  18
ATOM     18  C   UNL     1       8.243  -1.536  23.000  0.00  0.00    +0.164 C 
BRANCH  18  20
ATOM     19  C   UNL     1       9.191   0.263  21.417  0.00  0.00    +0.040 C 
ATOM     20  C   UNL     1       9.082  -1.222  21.735  0.00  0.00    +0.142 C 
BRANCH  20  21
ATOM     21  O   UNL     1      10.388  -1.781  21.828  0.00  0.00    -0.389 OA
ATOM     22  H   UNL     1      10.892  -1.286  22.497  0.00  0.00    +0.210 HD
ENDBRANCH  20  21
ENDBRANCH  18  20
BRANCH  18  23
ATOM     23  O   UNL     1       6.994  -0.824  22.919  0.00  0.00    -0.387 OA
ATOM     24  H   UNL     1       6.598  -1.031  22.053  0.00  0.00    +0.210 HD
ENDBRANCH  18  23
ENDBRANCH   1  18
TORSDOF 4
ENDMDL
MODEL 3
REMARK VINA RESULT:      -5.7      3.359      5.921
REMARK  Name = 
REMARK  5 active torsions:
REMARK  status: ('A' for Active; 'I' for Inactive)
REMARK    1  A    between atoms: C_1  and  C_2
REMARK    2  A    between atoms: C_2  and  O_4
REMARK    3  A    between atoms: C_2  and  C_5
REMARK    4  A    between atoms: C_5  and  O_7
REMARK    5  A    between atoms: C_5  and  C_8
REMARK                            x       y       z     vdW  Elec       q    Type
REMARK                         _______ _______ _______ _____ _____    ______ ____
ROOT
ATOM      1  C   UNL     1       7.702  -0.754  24.746  0.00  0.00    +0.119 C 
ATOM      2  N   UNL     1       7.811  -0.182  23.383  0.00  0.00    -0.330 N 
ATOM      3  H   UNL     1       8.143  -0.862  22.687  0.00  0.00    +0.147 HD
ATOM      4  C   UNL     1       8.591   0.981  23.254  0.00  0.00    +0.133 A 
ATOM      5  C   UNL     1       9.298   1.232  21.966  0.00  0.00    +0.276 A 
ATOM      6  N   UNL     1      10.208   2.243  21.988  0.00  0.00    -0.294 N 
ATOM      7  H   UNL     1      10.743   2.373  21.148  0.00  0.00    +0.172 HD
ATOM      8  C   UNL     1      10.458   2.973  23.101  0.00  0.00    +0.195 A 
ATOM      9  N   UNL     1       9.809   2.820  24.211  0.00  0.00    -0.199 NA
ATOM     10  N   UNL     1      11.446   3.895  23.012  0.00  0.00    -0.329 N 
ATOM     11  H   UNL     1      11.433   4.562  23.777  0.00  0.00    +0.145 HD
ATOM     12  H   UNL     1      11.636   4.306  22.108  0.00  0.00    +0.145 HD
ATOM     13  O   UNL     1       9.108   0.551  20.960  0.00  0.00    -0.266 OA
ATOM     14  C   UNL     1       8.869   1.820  24.286  0.00  0.00    +0.149 A 
ATOM     15  N   UNL     1       8.249   1.580  25.508  0.00  0.00    -0.326 N 
ATOM     16  H   UNL     1       8.734   2.004  26.289  0.00  0.00    +0.148 HD
ATOM     17  C   UNL     1       7.394   0.410  25.747  0.00  0.00    +0.127 C 
ENDROOT
BRANCH   1  18
ATOM     18  C   UNL     1       8.985  -1.523  25.193  0.00  0.00    +0.164 C 
BRANCH  18  20
ATOM     19  C   UNL     1       8.361  -3.632  23.850  0.00  0.00    +0.040 C 
ATOM     20  C   UNL     1       9.461  -2.659  24.252  0.00  0.00    +0.142 C 
BRANCH  20  21
ATOM     21  O   UNL     1      10.078  -2.136  23.080  0.00  0.00    -0.389 OA
ATOM     22  H   UNL     1      10.935  -2.580  22.955  0.00  0.00    +0.210 HD
ENDBRANCH  20  21
ENDBRANCH  18  20
BRANCH  18  23
ATOM     23  O   UNL     1       8.764  -2.070  26.507  0.00  0.00    -0.387 OA
ATOM     24  H   UNL     1       8.440  -2.981  26.391  0.00  0.00    +0.210 HD
ENDBRANCH  18  23
ENDBRANCH   1  18
TORSDOF 4
ENDMDL
MODEL 4
REMARK VINA RESULT:      -5.7      2.194      2.695
REMARK  Name = 
REMARK  5 active torsions:
REMARK  status: ('A' for Active; 'I' for Inactive)
REMARK    1  A    between atoms: C_1  and  C_2
REMARK    2  A    between atoms: C_2  and  O_4
REMARK    3  A    between atoms: C_2  and  C_5
REMARK    4  A    between atoms: C_5  and  O_7
REMARK    5  A    between atoms: C_5  and  C_8
REMARK                            x       y       z     vdW  Elec       q    Type
REMARK                         _______ _______ _______ _____ _____    ______ ____
ROOT
ATOM      1  C   UNL     1       8.404  -1.245  23.142  0.00  0.00    +0.119 C 
ATOM      2  N   UNL     1       7.495  -1.281  24.312  0.00  0.00    -0.330 N 
ATOM      3  H   UNL     1       7.721  -0.571  25.019  0.00  0.00    +0.147 HD
ATOM      4  C   UNL     1       7.370  -2.519  24.967  0.00  0.00    +0.133 A 
ATOM      5  C   UNL     1       7.077  -2.530  26.429  0.00  0.00    +0.276 A 
ATOM      6  N   UNL     1       7.198  -3.739  27.039  0.00  0.00    -0.294 N 
ATOM      7  H   UNL     1       7.074  -3.745  28.036  0.00  0.00    +0.172 HD
ATOM      8  C   UNL     1       7.560  -4.860  26.368  0.00  0.00    +0.195 A 
ATOM      9  N   UNL     1       7.752  -4.889  25.088  0.00  0.00    -0.199 NA
ATOM     10  N   UNL     1       7.723  -5.982  27.108  0.00  0.00    -0.329 N 
ATOM     11  H   UNL     1       7.759  -6.824  26.542  0.00  0.00    +0.145 HD
ATOM     12  H   UNL     1       7.185  -6.077  27.958  0.00  0.00    +0.145 HD
ATOM     13  O   UNL     1       6.786  -1.513  27.056  0.00  0.00    -0.266 OA
ATOM     14  C   UNL     1       7.654  -3.712  24.385  0.00  0.00    +0.149 A 
ATOM     15  N   UNL     1       7.969  -3.719  23.029  0.00  0.00    -0.326 N 
ATOM     16  H   UNL     1       8.482  -4.544  22.746  0.00  0.00    +0.148 HD
ATOM     17  C   UNL     1       8.100  -2.488  22.240  0.00  0.00    +0.127 C 
ENDROOT
BRANCH   1  18
ATOM     18  C   UNL     1       9.914  -1.225  23.539  0.00  0.00    +0.164 C 
BRANCH  18  20
ATOM     19  C   UNL     1      10.170   1.256  22.887  0.00  0.00    +0.040 C 
ATOM     20  C   UNL     1      10.507   0.164  23.893  0.00  0.00    +0.142 C 
BRANCH  20  21
ATOM     21  O   UNL     1      10.106   0.582  25.194  0.00  0.00    -0.389 OA
ATOM     22  H   UNL     1       9.386   1.230  25.104  0.00  0.00    +0.210 HD
ENDBRANCH  20  21
ENDBRANCH  18  20
BRANCH  18  23
ATOM     23  O   UNL     1      10.684  -1.799  22.466  0.00  0.00    -0.387 OA
ATOM     24  H   UNL     1      10.054  -2.168  21.822  0.00  0.00    +0.210 HD
ENDBRANCH  18  23
ENDBRANCH   1  18
TORSDOF 4
ENDMDL
MODEL 5
REMARK VINA RESULT:      -5.6      2.153      3.395
REMARK  Name = 
REMARK  5 active torsions:
REMARK  status: ('A' for Active; 'I' for Inactive)
REMARK    1  A    between atoms: C_1  and  C_2
REMARK    2  A    between atoms: C_2  and  O_4
REMARK    3  A    between atoms: C_2  and  C_5
REMARK    4  A    between atoms: C_5  and  O_7
REMARK    5  A    between atoms: C_5  and  C_8
REMARK                            x       y       z     vdW  Elec       q    Type
REMARK                         _______ _______ _______ _____ _____    ______ ____
ROOT
ATOM      1  C   UNL     1       8.187  -1.044  24.543  0.00  0.00    +0.119 C 
ATOM      2  N   UNL     1       8.210  -2.498  24.833  0.00  0.00    -0.330 N 
ATOM      3  H   UNL     1       9.159  -2.867  24.968  0.00  0.00    +0.147 HD
ATOM      4  C   UNL     1       7.551  -3.329  23.909  0.00  0.00    +0.133 A 
ATOM      5  C   UNL     1       8.049  -4.721  23.714  0.00  0.00    +0.276 A 
ATOM      6  N   UNL     1       7.520  -5.386  22.652  0.00  0.00    -0.294 N 
ATOM      7  H   UNL     1       7.902  -6.296  22.467  0.00  0.00    +0.172 HD
ATOM      8  C   UNL     1       6.604  -4.826  21.826  0.00  0.00    +0.195 A 
ATOM      9  N   UNL     1       6.105  -3.646  22.015  0.00  0.00    -0.199 NA
ATOM     10  N   UNL     1       6.218  -5.566  20.759  0.00  0.00    -0.329 N 
ATOM     11  H   UNL     1       5.376  -5.210  20.317  0.00  0.00    +0.145 HD
ATOM     12  H   UNL     1       6.249  -6.573  20.839  0.00  0.00    +0.145 HD
ATOM     13  O   UNL     1       8.910  -5.225  24.433  0.00  0.00    -0.266 OA
ATOM     14  C   UNL     1       6.581  -2.895  23.063  0.00  0.00    +0.149 A 
ATOM     15  N   UNL     1       6.129  -1.587  23.203  0.00  0.00    -0.326 N 
ATOM     16  H   UNL     1       5.679  -1.231  22.369  0.00  0.00    +0.148 HD
ATOM     17  C   UNL     1       6.726  -0.640  24.154  0.00  0.00    +0.127 C 
ENDROOT
BRANCH   1  18
ATOM     18  C   UNL     1       9.180  -0.629  23.411  0.00  0.00    +0.164 C 
BRANCH  18  20
ATOM     19  C   UNL     1      10.257   1.703  23.207  0.00  0.00    +0.040 C 
ATOM     20  C   UNL     1      10.334   0.317  23.830  0.00  0.00    +0.142 C 
BRANCH  20  21
ATOM     21  O   UNL     1      10.413   0.441  25.246  0.00  0.00    -0.389 OA
ATOM     22  H   UNL     1      10.642  -0.427  25.622  0.00  0.00    +0.210 HD
ENDBRANCH  20  21
ENDBRANCH  18  20
BRANCH  18  23
ATOM     23  O   UNL     1       8.436  -0.011  22.344  0.00  0.00    -0.387 OA
ATOM     24  H   UNL     1       8.374   0.940  22.547  0.00  0.00    +0.210 HD
ENDBRANCH  18  23
ENDBRANCH   1  18
TORSDOF 4
ENDMDL
MODEL 6
REMARK VINA RESULT:      -5.5      1.964      2.081
REMARK  Name = 
REMARK  5 active torsions:
REMARK  status: ('A' for Active; 'I' for Inactive)
REMARK    1  A    between atoms: C_1  and  C_2
REMARK    2  A    between atoms: C_2  and  O_4
REMARK    3  A    between atoms: C_2  and  C_5
REMARK    4  A    between atoms: C_5  and  O_7
REMARK    5  A    between atoms: C_5  and  C_8
REMARK                            x       y       z     vdW  Elec       q    Type
REMARK                         _______ _______ _______ _____ _____    ______ ____
ROOT
ATOM      1  C   UNL     1       8.697   0.129  22.516  0.00  0.00    +0.119 C 
ATOM      2  N   UNL     1       7.644  -0.795  23.000  0.00  0.00    -0.330 N 
ATOM      3  H   UNL     1       6.955  -0.337  23.609  0.00  0.00    +0.147 HD
ATOM      4  C   UNL     1       8.087  -1.961  23.650  0.00  0.00    +0.133 A 
ATOM      5  C   UNL     1       7.225  -2.565  24.706  0.00  0.00    +0.276 A 
ATOM      6  N   UNL     1       7.810  -3.544  25.447  0.00  0.00    -0.294 N 
ATOM      7  H   UNL     1       7.264  -3.907  26.207  0.00  0.00    +0.172 HD
ATOM      8  C   UNL     1       9.088  -3.946  25.243  0.00  0.00    +0.195 A 
ATOM      9  N   UNL     1       9.833  -3.486  24.289  0.00  0.00    -0.199 NA
ATOM     10  N   UNL     1       9.576  -4.872  26.102  0.00  0.00    -0.329 N 
ATOM     11  H   UNL     1      10.433  -5.303  25.770  0.00  0.00    +0.145 HD
ATOM     12  H   UNL     1       8.926  -5.517  26.530  0.00  0.00    +0.145 HD
ATOM     13  O   UNL     1       6.077  -2.182  24.926  0.00  0.00    -0.266 OA
ATOM     14  C   UNL     1       9.328  -2.489  23.488  0.00  0.00    +0.149 A 
ATOM     15  N   UNL     1      10.163  -1.915  22.534  0.00  0.00    -0.326 N 
ATOM     16  H   UNL     1      11.142  -2.116  22.692  0.00  0.00    +0.148 HD
ATOM     17  C   UNL     1       9.792  -0.712  21.778  0.00  0.00    +0.127 C 
ENDROOT
BRANCH   1  18
ATOM     18  C   UNL     1       9.346   0.972  23.659  0.00  0.00    +0.164 C 
BRANCH  18  20
ATOM     19  C   UNL     1      10.806   3.083  23.430  0.00  0.00    +0.040 C 
ATOM     20  C   UNL     1       9.398   2.505  23.429  0.00  0.00    +0.142 C 
BRANCH  20  21
ATOM     21  O   UNL     1       8.739   2.870  22.221  0.00  0.00    -0.389 OA
ATOM     22  H   UNL     1       8.524   3.818  22.259  0.00  0.00    +0.210 HD
ENDBRANCH  20  21
ENDBRANCH  18  20
BRANCH  18  23
ATOM     23  O   UNL     1      10.683   0.490  23.890  0.00  0.00    -0.387 OA
ATOM     24  H   UNL     1      10.735   0.214  24.822  0.00  0.00    +0.210 HD
ENDBRANCH  18  23
ENDBRANCH   1  18
TORSDOF 4
ENDMDL
MODEL 7
REMARK VINA RESULT:      -5.5      2.329      3.444
REMARK  Name = 
REMARK  5 active torsions:
REMARK  status: ('A' for Active; 'I' for Inactive)
REMARK    1  A    between atoms: C_1  and  C_2
REMARK    2  A    between atoms: C_2  and  O_4
REMARK    3  A    between atoms: C_2  and  C_5
REMARK    4  A    between atoms: C_5  and  O_7
REMARK    5  A    between atoms: C_5  and  C_8
REMARK                            x       y       z     vdW  Elec       q    Type
REMARK                         _______ _______ _______ _____ _____    ______ ____
ROOT
ATOM      1  C   UNL     1       8.425  -2.760  23.618  0.00  0.00    +0.119 C 
ATOM      2  N   UNL     1       8.138  -4.193  23.372  0.00  0.00    -0.330 N 
ATOM      3  H   UNL     1       8.495  -4.526  22.468  0.00  0.00    +0.147 HD
ATOM      4  C   UNL     1       6.791  -4.586  23.475  0.00  0.00    +0.133 A 
ATOM      5  C   UNL     1       6.311  -5.726  22.643  0.00  0.00    +0.276 A 
ATOM      6  N   UNL     1       4.963  -5.903  22.618  0.00  0.00    -0.294 N 
ATOM      7  H   UNL     1       4.623  -6.621  22.004  0.00  0.00    +0.172 HD
ATOM      8  C   UNL     1       4.111  -5.100  23.300  0.00  0.00    +0.195 A 
ATOM      9  N   UNL     1       4.507  -4.147  24.083  0.00  0.00    -0.199 NA
ATOM     10  N   UNL     1       2.788  -5.333  23.125  0.00  0.00    -0.329 N 
ATOM     11  H   UNL     1       2.212  -4.873  23.823  0.00  0.00    +0.145 HD
ATOM     12  H   UNL     1       2.494  -6.272  22.899  0.00  0.00    +0.145 HD
ATOM     13  O   UNL     1       7.071  -6.438  21.988  0.00  0.00    -0.266 OA
ATOM     14  C   UNL     1       5.854  -3.891  24.171  0.00  0.00    +0.149 A 
ATOM     15  N   UNL     1       6.276  -2.799  24.924  0.00  0.00    -0.326 N 
ATOM     16  H   UNL     1       5.529  -2.148  25.131  0.00  0.00    +0.148 HD
ATOM     17  C   UNL     1       7.663  -2.317  24.912  0.00  0.00    +0.127 C 
ENDROOT
BRANCH   1  18
ATOM     18  C   UNL     1       8.030  -1.840  22.419  0.00  0.00    +0.164 C 
BRANCH  18  20
ATOM     19  C   UNL     1       9.271   0.265  21.601  0.00  0.00    +0.040 C 
ATOM     20  C   UNL     1       9.205  -1.256  21.594  0.00  0.00    +0.142 C 
BRANCH  20  21
ATOM     21  O   UNL     1      10.455  -1.783  22.026  0.00  0.00    -0.389 OA
ATOM     22  H   UNL     1      11.115  -1.632  21.327  0.00  0.00    +0.210 HD
ENDBRANCH  20  21
ENDBRANCH  18  20
BRANCH  18  23
ATOM     23  O   UNL     1       7.223  -0.754  22.914  0.00  0.00    -0.387 OA
ATOM     24  H   UNL     1       6.656  -1.113  23.620  0.00  0.00    +0.210 HD
ENDBRANCH  18  23
ENDBRANCH   1  18
TORSDOF 4
ENDMDL
MODEL 8
REMARK VINA RESULT:      -5.5      2.779      5.751
REMARK  Name = 
REMARK  5 active torsions:
REMARK  status: ('A' for Active; 'I' for Inactive)
REMARK    1  A    between atoms: C_1  and  C_2
REMARK    2  A    between atoms: C_2  and  O_4
REMARK    3  A    between atoms: C_2  and  C_5
REMARK    4  A    between atoms: C_5  and  O_7
REMARK    5  A    between atoms: C_5  and  C_8
REMARK                            x       y       z     vdW  Elec       q    Type
REMARK                         _______ _______ _______ _____ _____    ______ ____
ROOT
ATOM      1  C   UNL     1       9.286  -2.834  23.734  0.00  0.00    +0.119 C 
ATOM      2  N   UNL     1      10.154  -1.633  23.777  0.00  0.00    -0.330 N 
ATOM      3  H   UNL     1      10.862  -1.675  24.520  0.00  0.00    +0.147 HD
ATOM      4  C   UNL     1       9.499  -0.392  23.875  0.00  0.00    +0.133 A 
ATOM      5  C   UNL     1      10.190   0.730  24.572  0.00  0.00    +0.276 A 
ATOM      6  N   UNL     1       9.417   1.819  24.832  0.00  0.00    -0.294 N 
ATOM      7  H   UNL     1       9.851   2.551  25.365  0.00  0.00    +0.172 HD
ATOM      8  C   UNL     1       8.109   1.883  24.483  0.00  0.00    +0.195 A 
ATOM      9  N   UNL     1       7.506   0.951  23.816  0.00  0.00    -0.199 NA
ATOM     10  N   UNL     1       7.432   2.989  24.871  0.00  0.00    -0.329 N 
ATOM     11  H   UNL     1       6.543   3.096  24.392  0.00  0.00    +0.145 HD
ATOM     12  H   UNL     1       7.948   3.851  24.983  0.00  0.00    +0.145 HD
ATOM     13  O   UNL     1      11.365   0.668  24.929  0.00  0.00    -0.266 OA
ATOM     14  C   UNL     1       8.207  -0.192  23.510  0.00  0.00    +0.149 A 
ATOM     15  N   UNL     1       7.532  -1.240  22.892  0.00  0.00    -0.326 N 
ATOM     16  H   UNL     1       6.525  -1.155  22.954  0.00  0.00    +0.148 HD
ATOM     17  C   UNL     1       8.128  -2.570  22.715  0.00  0.00    +0.127 C 
ENDROOT
BRANCH   1  18
ATOM     18  C   UNL     1       8.698  -3.216  25.130  0.00  0.00    +0.164 C 
BRANCH  18  20
ATOM     19  C   UNL     1       8.137  -5.411  26.357  0.00  0.00    +0.040 C 
ATOM     20  C   UNL     1       9.224  -4.535  25.752  0.00  0.00    +0.142 C 
BRANCH  20  21
ATOM     21  O   UNL     1       9.969  -5.294  24.805  0.00  0.00    -0.389 OA
ATOM     22  H   UNL     1      10.433  -6.008  25.275  0.00  0.00    +0.210 HD
ENDBRANCH  20  21
ENDBRANCH  18  20
BRANCH  18  23
ATOM     23  O   UNL     1       7.264  -3.291  25.024  0.00  0.00    -0.387 OA
ATOM     24  H   UNL     1       6.950  -3.872  25.740  0.00  0.00    +0.210 HD
ENDBRANCH  18  23
ENDBRANCH   1  18
TORSDOF 4
ENDMDL
MODEL 9
REMARK VINA RESULT:      -5.4      2.674      5.283
REMARK  Name = 
REMARK  5 active torsions:
REMARK  status: ('A' for Active; 'I' for Inactive)
REMARK    1  A    between atoms: C_1  and  C_2
REMARK    2  A    between atoms: C_2  and  O_4
REMARK    3  A    between atoms: C_2  and  C_5
REMARK    4  A    between atoms: C_5  and  O_7
REMARK    5  A    between atoms: C_5  and  C_8
REMARK                            x       y       z     vdW  Elec       q    Type
REMARK                         _______ _______ _______ _____ _____    ______ ____
ROOT
ATOM      1  C   UNL     1       7.773  -2.813  24.196  0.00  0.00    +0.119 C 
ATOM      2  N   UNL     1       8.973  -2.064  24.641  0.00  0.00    -0.330 N 
ATOM      3  H   UNL     1       8.869  -1.657  25.578  0.00  0.00    +0.147 HD
ATOM      4  C   UNL     1       9.431  -1.051  23.779  0.00  0.00    +0.133 A 
ATOM      5  C   UNL     1      10.123   0.132  24.367  0.00  0.00    +0.276 A 
ATOM      6  N   UNL     1      10.331   1.170  23.513  0.00  0.00    -0.294 N 
ATOM      7  H   UNL     1      10.730   1.999  23.916  0.00  0.00    +0.172 HD
ATOM      8  C   UNL     1       9.937   1.136  22.217  0.00  0.00    +0.195 A 
ATOM      9  N   UNL     1       9.397   0.096  21.666  0.00  0.00    -0.199 NA
ATOM     10  N   UNL     1      10.130   2.266  21.496  0.00  0.00    -0.329 N 
ATOM     11  H   UNL     1      10.041   2.114  20.496  0.00  0.00    +0.145 HD
ATOM     12  H   UNL     1      10.894   2.875  21.756  0.00  0.00    +0.145 HD
ATOM     13  O   UNL     1      10.450   0.190  25.552  0.00  0.00    -0.266 OA
ATOM     14  C   UNL     1       9.145  -1.003  22.453  0.00  0.00    +0.149 A 
ATOM     15  N   UNL     1       8.465  -2.080  21.892  0.00  0.00    -0.326 N 
ATOM     16  H   UNL     1       7.999  -1.846  21.024  0.00  0.00    +0.148 HD
ATOM     17  C   UNL     1       7.964  -3.204  22.693  0.00  0.00    +0.127 C 
ENDROOT
BRANCH   1  18
ATOM     18  C   UNL     1       6.447  -2.010  24.380  0.00  0.00    +0.164 C 
BRANCH  18  20
ATOM     19  C   UNL     1       6.076  -2.656  26.848  0.00  0.00    +0.040 C 
ATOM     20  C   UNL     1       5.469  -2.549  25.456  0.00  0.00    +0.142 C 
BRANCH  20  21
ATOM     21  O   UNL     1       4.283  -1.763  25.518  0.00  0.00    -0.389 OA
ATOM     22  H   UNL     1       4.376  -1.011  24.908  0.00  0.00    +0.210 HD
ENDBRANCH  20  21
ENDBRANCH  18  20
BRANCH  18  23
ATOM     23  O   UNL     1       5.761  -1.952  23.115  0.00  0.00    -0.387 OA
ATOM     24  H   UNL     1       5.674  -1.012  22.875  0.00  0.00    +0.210 HD
ENDBRANCH  18  23
ENDBRANCH   1  18
TORSDOF 4
ENDMDL
