MODEL 1
REMARK VINA RESULT:      -5.3      0.000      0.000
REMARK  Name = 
REMARK  6 active torsions:
REMARK  status: ('A' for Active; 'I' for Inactive)
REMARK    1  A    between atoms: N_1  and  CA_2
REMARK    2  A    between atoms: CA_2  and  C_4
REMARK    3  A    between atoms: CA_2  and  C_13
REMARK    4  A    between atoms: C_4  and  C_5
REMARK    5  A    between atoms: C_8  and  O_9
REMARK    6  A    between atoms: C_13  and  O_14
REMARK                            x       y       z     vdW  Elec       q    Type
REMARK                         _______ _______ _______ _____ _____    ______ ____
ROOT
ATOM      1  C   UNL     1       8.912  -3.730  24.343  0.00  0.00    +0.065 C 
ENDROOT
BRANCH   1   2
ATOM      2  C   UNL     1       8.953  -2.241  24.601  0.00  0.00    -0.044 A 
ATOM      3  C   UNL     1       9.222  -1.349  23.553  0.00  0.00    +0.021 A 
ATOM      4  C   UNL     1       9.215   0.032  23.782  0.00  0.00    +0.055 A 
ATOM      5  I   UNL     1       9.636   1.302  22.174  0.00  0.00    -0.040 I 
ATOM      6  C   UNL     1       8.928   0.525  25.056  0.00  0.00    +0.130 A 
ATOM      7  C   UNL     1       8.669  -0.355  26.106  0.00  0.00    +0.047 A 
ATOM      8  C   UNL     1       8.692  -1.731  25.880  0.00  0.00    +0.007 A 
BRANCH   6   9
ATOM      9  O   UNL     1       8.895   1.873  25.286  0.00  0.00    -0.506 OA
ATOM     10  H   UNL     1       9.223   2.058  26.181  0.00  0.00    +0.292 HD
ENDBRANCH   6   9
ENDBRANCH   1   2
BRANCH   1  11
ATOM     11  CA  UNL     1       9.178  -4.568  25.607  0.00  0.00    +0.165 C 
BRANCH  11  12
ATOM     12  N   UNL     1      10.277  -5.575  25.427  0.00  0.00    -0.318 NA
ATOM     13  H1  UNL     1      10.009  -6.431  25.923  0.00  0.00    +0.119 HD
ATOM     14  H2  UNL     1      10.258  -5.857  24.439  0.00  0.00    +0.119 HD
ENDBRANCH  11  12
BRANCH  11  15
ATOM     15  C   UNL     1       7.897  -5.323  25.993  0.00  0.00    +0.322 C 
ATOM     16  OXT UNL     1       6.864  -5.348  25.343  0.00  0.00    -0.249 OA
BRANCH  15  17
ATOM     17  O   UNL     1       8.050  -5.974  27.178  0.00  0.00    -0.480 OA
ATOM     18  H   UNL     1       7.578  -5.418  27.849  0.00  0.00    +0.295 HD
ENDBRANCH  15  17
ENDBRANCH  11  15
ENDBRANCH   1  11
TORSDOF 6
ENDMDL
MODEL 2
REMARK VINA RESULT:      -5.2      3.554      6.167
REMARK  Name = 
REMARK  6 active torsions:
REMARK  status: ('A' for Active; 'I' for Inactive)
REMARK    1  A    between atoms: N_1  and  CA_2
REMARK    2  A    between atoms: CA_2  and  C_4
REMARK    3  A    between atoms: CA_2  and  C_13
REMARK    4  A    between atoms: C_4  and  C_5
REMARK    5  A    between atoms: C_8  and  O_9
REMARK    6  A    between atoms: C_13  and  O_14
REMARK                            x       y       z     vdW  Elec       q    Type
REMARK                         _______ _______ _______ _____ _____    ______ ____
ROOT
ATOM      1  C   UNL     1       9.631  -0.606  21.640  0.00  0.00    +0.065 C 
ENDROOT
BRANCH   1   2
ATOM      2  C   UNL     1       9.199  -1.768  22.505  0.00  0.00    -0.044 A 
ATOM      3  C   UNL     1       8.037  -2.488  22.193  0.00  0.00    +0.021 A 
ATOM      4  C   UNL     1       7.661  -3.593  22.967  0.00  0.00    +0.055 A 
ATOM      5  I   UNL     1       5.909  -4.611  22.449  0.00  0.00    -0.040 I 
ATOM      6  C   UNL     1       8.451  -3.987  24.048  0.00  0.00    +0.130 A 
ATOM      7  C   UNL     1       9.603  -3.270  24.372  0.00  0.00    +0.047 A 
ATOM      8  C   UNL     1       9.968  -2.161  23.608  0.00  0.00    +0.007 A 
BRANCH   6   9
ATOM      9  O   UNL     1       8.107  -5.078  24.796  0.00  0.00    -0.506 OA
ATOM     10  H   UNL     1       7.141  -5.181  24.795  0.00  0.00    +0.292 HD
ENDBRANCH   6   9
ENDBRANCH   1   2
BRANCH   1  11
ATOM     11  CA  UNL     1       9.033   0.737  22.094  0.00  0.00    +0.165 C 
BRANCH  11  12
ATOM     12  N   UNL     1       8.364   1.492  20.981  0.00  0.00    -0.318 NA
ATOM     13  H1  UNL     1       7.365   1.558  21.197  0.00  0.00    +0.119 HD
ATOM     14  H2  UNL     1       8.687   2.465  21.052  0.00  0.00    +0.119 HD
ENDBRANCH  11  12
BRANCH  11  15
ATOM     15  C   UNL     1      10.150   1.622  22.667  0.00  0.00    +0.322 C 
ATOM     16  OXT UNL     1      10.627   1.526  23.787  0.00  0.00    -0.249 OA
BRANCH  15  17
ATOM     17  O   UNL     1      10.553   2.553  21.761  0.00  0.00    -0.480 OA
ATOM     18  H   UNL     1      10.106   3.395  22.030  0.00  0.00    +0.295 HD
ENDBRANCH  15  17
ENDBRANCH  11  15
ENDBRANCH   1  11
TORSDOF 6
ENDMDL
MODEL 3
REMARK VINA RESULT:      -5.2      1.998      2.682
REMARK  Name = 
REMARK  6 active torsions:
REMARK  status: ('A' for Active; 'I' for Inactive)
REMARK    1  A    between atoms: N_1  and  CA_2
REMARK    2  A    between atoms: CA_2  and  C_4
REMARK    3  A    between atoms: CA_2  and  C_13
REMARK    4  A    between atoms: C_4  and  C_5
REMARK    5  A    between atoms: C_8  and  O_9
REMARK    6  A    between atoms: C_13  and  O_14
REMARK                            x       y       z     vdW  Elec       q    Type
REMARK                         _______ _______ _______ _____ _____    ______ ____
ROOT
ATOM      1  C   UNL     1       8.762  -2.298  25.075  0.00  0.00    +0.065 C 
ENDROOT
BRANCH   1   2
ATOM      2  C   UNL     1       9.063  -1.174  24.110  0.00  0.00    -0.044 A 
ATOM      3  C   UNL     1       8.836   0.158  24.484  0.00  0.00    +0.021 A 
ATOM      4  C   UNL     1       9.157   1.203  23.609  0.00  0.00    +0.055 A 
ATOM      5  I   UNL     1       8.780   3.164  24.230  0.00  0.00    -0.040 I 
ATOM      6  C   UNL     1       9.716   0.918  22.361  0.00  0.00    +0.130 A 
ATOM      7  C   UNL     1       9.936  -0.404  21.977  0.00  0.00    +0.047 A 
ATOM      8  C   UNL     1       9.601  -1.444  22.845  0.00  0.00    +0.007 A 
BRANCH   6   9
ATOM      9  O   UNL     1      10.056   1.931  21.508  0.00  0.00    -0.506 OA
ATOM     10  H   UNL     1      10.853   2.378  21.835  0.00  0.00    +0.292 HD
ENDBRANCH   6   9
ENDBRANCH   1   2
BRANCH   1  11
ATOM     11  CA  UNL     1       9.154  -3.682  24.527  0.00  0.00    +0.165 C 
BRANCH  11  12
ATOM     12  N   UNL     1       8.066  -4.326  23.716  0.00  0.00    -0.318 NA
ATOM     13  H1  UNL     1       7.594  -3.592  23.178  0.00  0.00    +0.119 HD
ATOM     14  H2  UNL     1       8.533  -4.887  22.993  0.00  0.00    +0.119 HD
ENDBRANCH  11  12
BRANCH  11  15
ATOM     15  C   UNL     1       9.491  -4.615  25.700  0.00  0.00    +0.322 C 
ATOM     16  OXT UNL     1       9.086  -4.490  26.845  0.00  0.00    -0.249 OA
BRANCH  15  17
ATOM     17  O   UNL     1      10.317  -5.621  25.305  0.00  0.00    -0.480 OA
ATOM     18  H   UNL     1      11.228  -5.335  25.570  0.00  0.00    +0.295 HD
ENDBRANCH  15  17
ENDBRANCH  11  15
ENDBRANCH   1  11
TORSDOF 6
ENDMDL
MODEL 4
REMARK VINA RESULT:      -5.1      3.734      5.886
REMARK  Name = 
REMARK  6 active torsions:
REMARK  status: ('A' for Active; 'I' for Inactive)
REMARK    1  A    between atoms: N_1  and  CA_2
REMARK    2  A    between atoms: CA_2  and  C_4
REMARK    3  A    between atoms: CA_2  and  C_13
REMARK    4  A    between atoms: C_4  and  C_5
REMARK    5  A    between atoms: C_8  and  O_9
REMARK    6  A    between atoms: C_13  and  O_14
REMARK                            x       y       z     vdW  Elec       q    Type
REMARK                         _______ _______ _______ _____ _____    ______ ____
ROOT
ATOM      1  C   UNL     1       8.040  -2.724  22.585  0.00  0.00    +0.065 C 
ENDROOT
BRANCH   1   2
ATOM      2  C   UNL     1       8.036  -3.574  23.835  0.00  0.00    -0.044 A 
ATOM      3  C   UNL     1       6.865  -4.231  24.240  0.00  0.00    +0.021 A 
ATOM      4  C   UNL     1       6.872  -5.055  25.371  0.00  0.00    +0.055 A 
ATOM      5  I   UNL     1       5.086  -5.993  25.921  0.00  0.00    -0.040 I 
ATOM      6  C   UNL     1       8.053  -5.234  26.095  0.00  0.00    +0.130 A 
ATOM      7  C   UNL     1       9.219  -4.576  25.706  0.00  0.00    +0.047 A 
ATOM      8  C   UNL     1       9.206  -3.743  24.587  0.00  0.00    +0.007 A 
BRANCH   6   9
ATOM      9  O   UNL     1       8.078  -6.054  27.188  0.00  0.00    -0.506 OA
ATOM     10  H   UNL     1       8.866  -6.620  27.152  0.00  0.00    +0.292 HD
ENDBRANCH   6   9
ENDBRANCH   1   2
BRANCH   1  11
ATOM     11  CA  UNL     1       8.375  -1.248  22.863  0.00  0.00    +0.165 C 
BRANCH  11  12
ATOM     12  N   UNL     1       7.164  -0.359  22.873  0.00  0.00    -0.318 NA
ATOM     13  H1  UNL     1       7.485   0.615  22.889  0.00  0.00    +0.119 HD
ATOM     14  H2  UNL     1       6.727  -0.450  21.948  0.00  0.00    +0.119 HD
ENDBRANCH  11  12
BRANCH  11  15
ATOM     15  C   UNL     1       9.336  -0.733  21.780  0.00  0.00    +0.322 C 
ATOM     16  OXT UNL     1       9.231   0.326  21.183  0.00  0.00    -0.249 OA
BRANCH  15  17
ATOM     17  O   UNL     1      10.341  -1.622  21.553  0.00  0.00    -0.480 OA
ATOM     18  H   UNL     1       9.930  -2.518  21.650  0.00  0.00    +0.295 HD
ENDBRANCH  15  17
ENDBRANCH  11  15
ENDBRANCH   1  11
TORSDOF 6
ENDMDL
MODEL 5
REMARK VINA RESULT:      -5.1      3.326      3.647
REMARK  Name = 
REMARK  6 active torsions:
REMARK  status: ('A' for Active; 'I' for Inactive)
REMARK    1  A    between atoms: N_1  and  CA_2
REMARK    2  A    between atoms: CA_2  and  C_4
REMARK    3  A    between atoms: CA_2  and  C_13
REMARK    4  A    between atoms: C_4  and  C_5
REMARK    5  A    between atoms: C_8  and  O_9
REMARK    6  A    between atoms: C_13  and  O_14
REMARK                            x       y       z     vdW  Elec       q    Type
REMARK                         _______ _______ _______ _____ _____    ______ ____
ROOT
ATOM      1  C   UNL     1       6.840  -2.131  23.148  0.00  0.00    +0.065 C 
ENDROOT
BRANCH   1   2
ATOM      2  C   UNL     1       7.689  -0.980  22.660  0.00  0.00    -0.044 A 
ATOM      3  C   UNL     1       7.227   0.339  22.777  0.00  0.00    +0.021 A 
ATOM      4  C   UNL     1       8.032   1.409  22.368  0.00  0.00    +0.055 A 
ATOM      5  I   UNL     1       7.272   3.348  22.562  0.00  0.00    -0.040 I 
ATOM      6  C   UNL     1       9.305   1.164  21.849  0.00  0.00    +0.130 A 
ATOM      7  C   UNL     1       9.768  -0.145  21.719  0.00  0.00    +0.047 A 
ATOM      8  C   UNL     1       8.959  -1.210  22.114  0.00  0.00    +0.007 A 
BRANCH   6   9
ATOM      9  O   UNL     1      10.109   2.202  21.468  0.00  0.00    -0.506 OA
ATOM     10  H   UNL     1       9.972   2.390  20.525  0.00  0.00    +0.292 HD
ENDBRANCH   6   9
ENDBRANCH   1   2
BRANCH   1  11
ATOM     11  CA  UNL     1       6.939  -3.376  22.247  0.00  0.00    +0.165 C 
BRANCH  11  12
ATOM     12  N   UNL     1       5.657  -3.688  21.529  0.00  0.00    -0.318 NA
ATOM     13  H1  UNL     1       4.919  -3.098  21.925  0.00  0.00    +0.119 HD
ATOM     14  H2  UNL     1       5.762  -3.328  20.573  0.00  0.00    +0.119 HD
ENDBRANCH  11  12
BRANCH  11  15
ATOM     15  C   UNL     1       7.315  -4.593  23.105  0.00  0.00    +0.322 C 
ATOM     16  OXT UNL     1       6.621  -5.583  23.275  0.00  0.00    -0.249 OA
BRANCH  15  17
ATOM     17  O   UNL     1       8.542  -4.435  23.670  0.00  0.00    -0.480 OA
ATOM     18  H   UNL     1       9.063  -3.893  23.025  0.00  0.00    +0.295 HD
ENDBRANCH  15  17
ENDBRANCH  11  15
ENDBRANCH   1  11
TORSDOF 6
ENDMDL
MODEL 6
REMARK VINA RESULT:      -5.0      2.132      2.252
REMARK  Name = 
REMARK  6 active torsions:
REMARK  status: ('A' for Active; 'I' for Inactive)
REMARK    1  A    between atoms: N_1  and  CA_2
REMARK    2  A    between atoms: CA_2  and  C_4
REMARK    3  A    between atoms: CA_2  and  C_13
REMARK    4  A    between atoms: C_4  and  C_5
REMARK    5  A    between atoms: C_8  and  O_9
REMARK    6  A    between atoms: C_13  and  O_14
REMARK                            x       y       z     vdW  Elec       q    Type
REMARK                         _______ _______ _______ _____ _____    ______ ____
ROOT
ATOM      1  C   UNL     1       8.532  -3.322  26.336  0.00  0.00    +0.065 C 
ENDROOT
BRANCH   1   2
ATOM      2  C   UNL     1       7.958  -2.276  25.408  0.00  0.00    -0.044 A 
ATOM      3  C   UNL     1       8.769  -1.666  24.441  0.00  0.00    +0.021 A 
ATOM      4  C   UNL     1       8.227  -0.731  23.551  0.00  0.00    +0.055 A 
ATOM      5  I   UNL     1       9.500   0.146  22.143  0.00  0.00    -0.040 I 
ATOM      6  C   UNL     1       6.869  -0.411  23.620  0.00  0.00    +0.130 A 
ATOM      7  C   UNL     1       6.057  -1.005  24.585  0.00  0.00    +0.047 A 
ATOM      8  C   UNL     1       6.603  -1.926  25.480  0.00  0.00    +0.007 A 
BRANCH   6   9
ATOM      9  O   UNL     1       6.324   0.482  22.741  0.00  0.00    -0.506 OA
ATOM     10  H   UNL     1       6.917   0.594  21.980  0.00  0.00    +0.292 HD
ENDBRANCH   6   9
ENDBRANCH   1   2
BRANCH   1  11
ATOM     11  CA  UNL     1       8.037  -4.745  26.021  0.00  0.00    +0.165 C 
BRANCH  11  12
ATOM     12  N   UNL     1       8.083  -5.663  27.209  0.00  0.00    -0.318 NA
ATOM     13  H1  UNL     1       7.533  -6.499  26.986  0.00  0.00    +0.119 HD
ATOM     14  H2  UNL     1       9.045  -6.019  27.266  0.00  0.00    +0.119 HD
ENDBRANCH  11  12
BRANCH  11  15
ATOM     15  C   UNL     1       8.910  -5.352  24.913  0.00  0.00    +0.322 C 
ATOM     16  OXT UNL     1       8.590  -5.469  23.741  0.00  0.00    -0.249 OA
BRANCH  15  17
ATOM     17  O   UNL     1      10.112  -5.759  25.404  0.00  0.00    -0.480 OA
ATOM     18  H   UNL     1      10.244  -5.246  26.241  0.00  0.00    +0.295 HD
ENDBRANCH  15  17
ENDBRANCH  11  15
ENDBRANCH   1  11
TORSDOF 6
ENDMDL
MODEL 7
REMARK VINA RESULT:      -5.0      1.524      1.917
REMARK  Name = 
REMARK  6 active torsions:
REMARK  status: ('A' for Active; 'I' for Inactive)
REMARK    1  A    between atoms: N_1  and  CA_2
REMARK    2  A    between atoms: CA_2  and  C_4
REMARK    3  A    between atoms: CA_2  and  C_13
REMARK    4  A    between atoms: C_4  and  C_5
REMARK    5  A    between atoms: C_8  and  O_9
REMARK    6  A    between atoms: C_13  and  O_14
REMARK                            x       y       z     vdW  Elec       q    Type
REMARK                         _______ _______ _______ _____ _____    ______ ____
ROOT
ATOM      1  C   UNL     1       8.829  -3.895  24.331  0.00  0.00    +0.065 C 
ENDROOT
BRANCH   1   2
ATOM      2  C   UNL     1       9.020  -2.402  24.473  0.00  0.00    -0.044 A 
ATOM      3  C   UNL     1       8.230  -1.670  25.371  0.00  0.00    +0.021 A 
ATOM      4  C   UNL     1       8.437  -0.296  25.537  0.00  0.00    +0.055 A 
ATOM      5  I   UNL     1       7.213   0.732  26.886  0.00  0.00    -0.040 I 
ATOM      6  C   UNL     1       9.442   0.349  24.813  0.00  0.00    +0.130 A 
ATOM      7  C   UNL     1      10.225  -0.369  23.910  0.00  0.00    +0.047 A 
ATOM      8  C   UNL     1      10.007  -1.736  23.735  0.00  0.00    +0.007 A 
BRANCH   6   9
ATOM      9  O   UNL     1       9.669   1.686  24.984  0.00  0.00    -0.506 OA
ATOM     10  H   UNL     1       9.957   1.853  25.896  0.00  0.00    +0.292 HD
ENDBRANCH   6   9
ENDBRANCH   1   2
BRANCH   1  11
ATOM     11  CA  UNL     1       9.137  -4.667  25.627  0.00  0.00    +0.165 C 
BRANCH  11  12
ATOM     12  N   UNL     1      10.210  -5.704  25.456  0.00  0.00    -0.318 NA
ATOM     13  H1  UNL     1       9.756  -6.603  25.264  0.00  0.00    +0.119 HD
ATOM     14  H2  UNL     1      10.689  -5.487  24.573  0.00  0.00    +0.119 HD
ENDBRANCH  11  12
BRANCH  11  15
ATOM     15  C   UNL     1       7.862  -5.375  26.110  0.00  0.00    +0.322 C 
ATOM     16  OXT UNL     1       6.817  -5.459  25.486  0.00  0.00    -0.249 OA
BRANCH  15  17
ATOM     17  O   UNL     1       8.037  -5.908  27.350  0.00  0.00    -0.480 OA
ATOM     18  H   UNL     1       8.753  -5.368  27.772  0.00  0.00    +0.295 HD
ENDBRANCH  15  17
ENDBRANCH  11  15
ENDBRANCH   1  11
TORSDOF 6
ENDMDL
MODEL 8
REMARK VINA RESULT:      -4.9      1.521      2.029
REMARK  Name = 
REMARK  6 active torsions:
REMARK  status: ('A' for Active; 'I' for Inactive)
REMARK    1  A    between atoms: N_1  and  CA_2
REMARK    2  A    between atoms: CA_2  and  C_4
REMARK    3  A    between atoms: CA_2  and  C_13
REMARK    4  A    between atoms: C_4  and  C_5
REMARK    5  A    between atoms: C_8  and  O_9
REMARK    6  A    between atoms: C_13  and  O_14
REMARK                            x       y       z     vdW  Elec       q    Type
REMARK                         _______ _______ _______ _____ _____    ______ ____
ROOT
ATOM      1  C   UNL     1       8.307  -4.440  24.015  0.00  0.00    +0.065 C 
ENDROOT
BRANCH   1   2
ATOM      2  C   UNL     1       8.106  -2.957  23.806  0.00  0.00    -0.044 A 
ATOM      3  C   UNL     1       9.132  -2.053  24.117  0.00  0.00    +0.021 A 
ATOM      4  C   UNL     1       8.964  -0.684  23.880  0.00  0.00    +0.055 A 
ATOM      5  I   UNL     1      10.533   0.605  24.380  0.00  0.00    -0.040 I 
ATOM      6  C   UNL     1       7.773  -0.215  23.322  0.00  0.00    +0.130 A 
ATOM      7  C   UNL     1       6.743  -1.105  23.020  0.00  0.00    +0.047 A 
ATOM      8  C   UNL     1       6.907  -2.468  23.270  0.00  0.00    +0.007 A 
BRANCH   6   9
ATOM      9  O   UNL     1       7.606   1.117  23.065  0.00  0.00    -0.506 OA
ATOM     10  H   UNL     1       6.857   1.457  23.581  0.00  0.00    +0.292 HD
ENDBRANCH   6   9
ENDBRANCH   1   2
BRANCH   1  11
ATOM     11  CA  UNL     1       8.858  -4.782  25.411  0.00  0.00    +0.165 C 
BRANCH  11  12
ATOM     12  N   UNL     1       9.987  -5.773  25.374  0.00  0.00    -0.318 NA
ATOM     13  H1  UNL     1       9.691  -6.569  24.801  0.00  0.00    +0.119 HD
ATOM     14  H2  UNL     1      10.735  -5.343  24.817  0.00  0.00    +0.119 HD
ENDBRANCH  11  12
BRANCH  11  15
ATOM     15  C   UNL     1       7.731  -5.374  26.271  0.00  0.00    +0.322 C 
ATOM     16  OXT UNL     1       7.811  -5.640  27.459  0.00  0.00    -0.249 OA
BRANCH  15  17
ATOM     17  O   UNL     1       6.605  -5.575  25.534  0.00  0.00    -0.480 OA
ATOM     18  H   UNL     1       6.920  -5.912  24.656  0.00  0.00    +0.295 HD
ENDBRANCH  15  17
ENDBRANCH  11  15
ENDBRANCH   1  11
TORSDOF 6
ENDMDL
MODEL 9
REMARK VINA RESULT:      -4.8      3.549      6.206
REMARK  Name = 
REMARK  6 active torsions:
REMARK  status: ('A' for Active; 'I' for Inactive)
REMARK    1  A    between atoms: N_1  and  CA_2
REMARK    2  A    between atoms: CA_2  and  C_4
REMARK    3  A    between atoms: CA_2  and  C_13
REMARK    4  A    between atoms: C_4  and  C_5
REMARK    5  A    between atoms: C_8  and  O_9
REMARK    6  A    between atoms: C_13  and  O_14
REMARK                            x       y       z     vdW  Elec       q    Type
REMARK                         _______ _______ _______ _____ _____    ______ ____
ROOT
ATOM      1  C   UNL     1      10.138  -0.685  22.400  0.00  0.00    +0.065 C 
ENDROOT
BRANCH   1   2
ATOM      2  C   UNL     1       9.266  -1.864  22.765  0.00  0.00    -0.044 A 
ATOM      3  C   UNL     1       9.610  -2.691  23.844  0.00  0.00    +0.021 A 
ATOM      4  C   UNL     1       8.779  -3.756  24.212  0.00  0.00    +0.055 A 
ATOM      5  I   UNL     1       9.361  -4.952  25.825  0.00  0.00    -0.040 I 
ATOM      6  C   UNL     1       7.597  -3.992  23.507  0.00  0.00    +0.130 A 
ATOM      7  C   UNL     1       7.253  -3.182  22.425  0.00  0.00    +0.047 A 
ATOM      8  C   UNL     1       8.090  -2.129  22.052  0.00  0.00    +0.007 A 
BRANCH   6   9
ATOM      9  O   UNL     1       6.766  -5.014  23.871  0.00  0.00    -0.506 OA
ATOM     10  H   UNL     1       6.057  -5.107  23.214  0.00  0.00    +0.292 HD
ENDBRANCH   6   9
ENDBRANCH   1   2
BRANCH   1  11
ATOM     11  CA  UNL     1       9.395   0.661  22.480  0.00  0.00    +0.165 C 
BRANCH  11  12
ATOM     12  N   UNL     1       9.047   1.224  21.131  0.00  0.00    -0.318 NA
ATOM     13  H1  UNL     1       9.242   0.506  20.427  0.00  0.00    +0.119 HD
ATOM     14  H2  UNL     1       8.023   1.310  21.106  0.00  0.00    +0.119 HD
ENDBRANCH  11  12
BRANCH  11  15
ATOM     15  C   UNL     1      10.276   1.684  23.212  0.00  0.00    +0.322 C 
ATOM     16  OXT UNL     1      10.750   1.543  24.327  0.00  0.00    -0.249 OA
BRANCH  15  17
ATOM     17  O   UNL     1      10.468   2.797  22.454  0.00  0.00    -0.480 OA
ATOM     18  H   UNL     1      10.402   2.492  21.513  0.00  0.00    +0.295 HD
ENDBRANCH  15  17
ENDBRANCH  11  15
ENDBRANCH   1  11
TORSDOF 6
ENDMDL
