MODEL 1
REMARK VINA RESULT:      -6.4      0.000      0.000
REMARK  Name = 
REMARK  13 active torsions:
REMARK  status: ('A' for Active; 'I' for Inactive)
REMARK    1  A    between atoms: C_1  and  N_2
REMARK    2  A    between atoms: N_2  and  C_3
REMARK    3  A    between atoms: N_2  and  C_4
REMARK    4  A    between atoms: C_13  and  S_14
REMARK    5  A    between atoms: S_14  and  N_17
REMARK    6  A    between atoms: N_17  and  C_18
REMARK    7  A    between atoms: C_18  and  C_19
REMARK    8  A    between atoms: C_19  and  C_20
REMARK    9  A    between atoms: C_20  and  C_21
REMARK   10  A    between atoms: C_21  and  C_22
REMARK   11  A    between atoms: C_22  and  N_24
REMARK   12  A    between atoms: C_22  and  C_25
REMARK   13  A    between atoms: C_25  and  O_26
REMARK                            x       y       z     vdW  Elec       q    Type
REMARK                         _______ _______ _______ _____ _____    ______ ____
ROOT
ATOM      1  S   UNK     1       8.843  -4.113  24.912  0.00  0.00    +0.059 S 
ATOM      2  O   UNK     1      10.209  -4.465  24.590  0.00  0.00    -0.153 OA
ATOM      3  O   UNK     1       7.738  -4.588  24.108  0.00  0.00    -0.153 OA
ENDROOT
BRANCH   1   9
ATOM      4  C   UNK     1       9.323   0.864  23.127  0.00  0.00    +0.037 A 
ATOM      5  C   UNK     1       9.008  -0.058  24.182  0.00  0.00    +0.005 A 
ATOM      6  C   UNK     1       8.645   0.388  25.476  0.00  0.00    +0.010 A 
ATOM      7  C   UNK     1       8.376  -0.478  26.531  0.00  0.00    +0.003 A 
ATOM      8  C   UNK     1       8.426  -1.841  26.322  0.00  0.00    +0.029 A 
ATOM      9  C   UNK     1       8.731  -2.335  25.050  0.00  0.00    +0.113 A 
ATOM     10  C   UNK     1       9.009  -1.466  23.950  0.00  0.00    +0.010 A 
ATOM     11  C   UNK     1       9.279  -1.911  22.631  0.00  0.00    +0.010 A 
ATOM     12  C   UNK     1       9.582  -1.025  21.603  0.00  0.00    +0.002 A 
ATOM     13  C   UNK     1       9.615   0.338  21.860  0.00  0.00    +0.024 A 
BRANCH   4  15
ATOM     14  C   UNK     1       8.269   3.039  22.668  0.00  0.00    +0.129 C 
ATOM     15  N   UNK     1       9.315   2.266  23.340  0.00  0.00    -0.336 N 
ATOM     16  C   UNK     1      10.630   2.912  23.413  0.00  0.00    +0.129 C 
ENDBRANCH   4  15
ENDBRANCH   1   9
BRANCH   1  17
ATOM     17  N   UNK     1       8.555  -4.631  26.486  0.00  0.00    -0.190 NA
ATOM     18  H   UNK     1       8.769  -3.904  27.166  0.00  0.00    +0.148 HD
BRANCH  17  19
ATOM     19  C   UNK     1       7.418  -5.528  26.735  0.00  0.00    +0.106 C 
BRANCH  19  20
ATOM     20  C   UNK     1       6.205  -4.746  27.244  0.00  0.00    +0.017 C 
BRANCH  20  21
ATOM     21  C   UNK     1       4.949  -5.057  26.427  0.00  0.00    +0.003 C 
BRANCH  21  22
ATOM     22  C   UNK     1       5.078  -6.326  25.577  0.00  0.00    +0.030 C 
BRANCH  22  23
ATOM     23  C   UNK     1       4.019  -6.413  24.464  0.00  0.00    +0.161 C 
BRANCH  23  24
ATOM     24  N   UNK     1       3.618  -7.826  24.207  0.00  0.00    -0.318 NA
ATOM     25  H   UNK     1       2.763  -7.811  23.643  0.00  0.00    +0.119 HD
ATOM     26  H   UNK     1       4.321  -8.243  23.586  0.00  0.00    +0.119 HD
ENDBRANCH  23  24
BRANCH  23  27
ATOM     27  C   UNK     1       4.567  -5.819  23.155  0.00  0.00    +0.322 C 
ATOM     28  O   UNK     1       4.129  -4.830  22.591  0.00  0.00    -0.249 OA
BRANCH  27  29
ATOM     29  O   UNK     1       5.654  -6.515  22.722  0.00  0.00    -0.480 OA
ATOM     30  H   UNK     1       6.300  -5.839  22.397  0.00  0.00    +0.295 HD
ENDBRANCH  27  29
ENDBRANCH  23  27
ENDBRANCH  22  23
ENDBRANCH  21  22
ENDBRANCH  20  21
ENDBRANCH  19  20
ENDBRANCH  17  19
ENDBRANCH   1  17
TORSDOF 11
ENDMDL
MODEL 2
REMARK VINA RESULT:      -6.3      3.059      7.200
REMARK  Name = 
REMARK  13 active torsions:
REMARK  status: ('A' for Active; 'I' for Inactive)
REMARK    1  A    between atoms: C_1  and  N_2
REMARK    2  A    between atoms: N_2  and  C_3
REMARK    3  A    between atoms: N_2  and  C_4
REMARK    4  A    between atoms: C_13  and  S_14
REMARK    5  A    between atoms: S_14  and  N_17
REMARK    6  A    between atoms: N_17  and  C_18
REMARK    7  A    between atoms: C_18  and  C_19
REMARK    8  A    between atoms: C_19  and  C_20
REMARK    9  A    between atoms: C_20  and  C_21
REMARK   10  A    between atoms: C_21  and  C_22
REMARK   11  A    between atoms: C_22  and  N_24
REMARK   12  A    between atoms: C_22  and  C_25
REMARK   13  A    between atoms: C_25  and  O_26
REMARK                            x       y       z     vdW  Elec       q    Type
REMARK                         _______ _______ _______ _____ _____    ______ ____
ROOT
ATOM      1  S   UNK     1       9.246  -2.154  23.440  0.00  0.00    +0.059 S 
ATOM      2  O   UNK     1       8.973  -1.753  22.076  0.00  0.00    -0.153 OA
ATOM      3  O   UNK     1      10.361  -3.020  23.757  0.00  0.00    -0.153 OA
ENDROOT
BRANCH   1   9
ATOM      4  C   UNK     1       5.093  -5.463  23.504  0.00  0.00    +0.037 A 
ATOM      5  C   UNK     1       5.840  -4.385  24.091  0.00  0.00    +0.005 A 
ATOM      6  C   UNK     1       5.397  -3.726  25.264  0.00  0.00    +0.010 A 
ATOM      7  C   UNK     1       6.072  -2.652  25.834  0.00  0.00    +0.003 A 
ATOM      8  C   UNK     1       7.250  -2.210  25.265  0.00  0.00    +0.029 A 
ATOM      9  C   UNK     1       7.758  -2.857  24.135  0.00  0.00    +0.113 A 
ATOM     10  C   UNK     1       7.083  -3.964  23.533  0.00  0.00    +0.010 A 
ATOM     11  C   UNK     1       7.576  -4.685  22.415  0.00  0.00    +0.010 A 
ATOM     12  C   UNK     1       6.861  -5.732  21.841  0.00  0.00    +0.002 A 
ATOM     13  C   UNK     1       5.634  -6.098  22.376  0.00  0.00    +0.024 A 
BRANCH   4  15
ATOM     14  C   UNK     1       3.866  -7.169  24.780  0.00  0.00    +0.129 C 
ATOM     15  N   UNK     1       3.861  -5.899  24.054  0.00  0.00    -0.336 N 
ATOM     16  C   UNK     1       2.668  -5.639  23.242  0.00  0.00    +0.129 C 
ENDBRANCH   4  15
ENDBRANCH   1   9
BRANCH   1  17
ATOM     17  N   UNK     1       9.453  -0.748  24.339  0.00  0.00    -0.190 NA
ATOM     18  H   UNK     1       9.225  -0.893  25.320  0.00  0.00    +0.148 HD
BRANCH  17  19
ATOM     19  C   UNK     1      10.557   0.155  23.988  0.00  0.00    +0.106 C 
BRANCH  19  20
ATOM     20  C   UNK     1      10.027   1.524  23.552  0.00  0.00    +0.017 C 
BRANCH  20  21
ATOM     21  C   UNK     1       9.926   1.632  22.030  0.00  0.00    +0.003 C 
BRANCH  21  22
ATOM     22  C   UNK     1       8.481   1.612  21.516  0.00  0.00    +0.030 C 
BRANCH  22  23
ATOM     23  C   UNK     1       7.441   1.656  22.649  0.00  0.00    +0.161 C 
BRANCH  23  24
ATOM     24  N   UNK     1       6.681   0.375  22.736  0.00  0.00    -0.318 NA
ATOM     25  H   UNK     1       7.207  -0.259  23.345  0.00  0.00    +0.119 HD
ATOM     26  H   UNK     1       5.815   0.560  23.255  0.00  0.00    +0.119 HD
ENDBRANCH  23  24
BRANCH  23  27
ATOM     27  C   UNK     1       6.438   2.798  22.411  0.00  0.00    +0.322 C 
ATOM     28  O   UNK     1       6.726   3.924  22.038  0.00  0.00    -0.249 OA
BRANCH  27  29
ATOM     29  O   UNK     1       5.161   2.377  22.622  0.00  0.00    -0.480 OA
ATOM     30  H   UNK     1       4.685   2.506  21.763  0.00  0.00    +0.295 HD
ENDBRANCH  27  29
ENDBRANCH  23  27
ENDBRANCH  22  23
ENDBRANCH  21  22
ENDBRANCH  20  21
ENDBRANCH  19  20
ENDBRANCH  17  19
ENDBRANCH   1  17
TORSDOF 11
ENDMDL
MODEL 3
REMARK VINA RESULT:      -6.2      1.515      2.100
REMARK  Name = 
REMARK  13 active torsions:
REMARK  status: ('A' for Active; 'I' for Inactive)
REMARK    1  A    between atoms: C_1  and  N_2
REMARK    2  A    between atoms: N_2  and  C_3
REMARK    3  A    between atoms: N_2  and  C_4
REMARK    4  A    between atoms: C_13  and  S_14
REMARK    5  A    between atoms: S_14  and  N_17
REMARK    6  A    between atoms: N_17  and  C_18
REMARK    7  A    between atoms: C_18  and  C_19
REMARK    8  A    between atoms: C_19  and  C_20
REMARK    9  A    between atoms: C_20  and  C_21
REMARK   10  A    between atoms: C_21  and  C_22
REMARK   11  A    between atoms: C_22  and  N_24
REMARK   12  A    between atoms: C_22  and  C_25
REMARK   13  A    between atoms: C_25  and  O_26
REMARK                            x       y       z     vdW  Elec       q    Type
REMARK                         _______ _______ _______ _____ _____    ______ ____
ROOT
ATOM      1  S   UNK     1       8.684  -3.995  25.220  0.00  0.00    +0.059 S 
ATOM      2  O   UNK     1       8.349  -4.493  26.537  0.00  0.00    -0.153 OA
ATOM      3  O   UNK     1       9.910  -4.387  24.559  0.00  0.00    -0.153 OA
ENDROOT
BRANCH   1   9
ATOM      4  C   UNK     1       9.397   0.865  23.202  0.00  0.00    +0.037 A 
ATOM      5  C   UNK     1       8.982   0.009  24.278  0.00  0.00    +0.005 A 
ATOM      6  C   UNK     1       8.524   0.533  25.511  0.00  0.00    +0.010 A 
ATOM      7  C   UNK     1       8.156  -0.266  26.589  0.00  0.00    +0.003 A 
ATOM      8  C   UNK     1       8.198  -1.640  26.462  0.00  0.00    +0.029 A 
ATOM      9  C   UNK     1       8.594  -2.210  25.248  0.00  0.00    +0.113 A 
ATOM     10  C   UNK     1       8.975  -1.410  24.127  0.00  0.00    +0.010 A 
ATOM     11  C   UNK     1       9.341  -1.934  22.861  0.00  0.00    +0.010 A 
ATOM     12  C   UNK     1       9.742  -1.113  21.812  0.00  0.00    +0.002 A 
ATOM     13  C   UNK     1       9.779   0.262  21.994  0.00  0.00    +0.024 A 
BRANCH   4  15
ATOM     14  C   UNK     1       8.334   3.013  22.650  0.00  0.00    +0.129 C 
ATOM     15  N   UNK     1       9.398   2.277  23.335  0.00  0.00    -0.336 N 
ATOM     16  C   UNK     1      10.715   2.921  23.332  0.00  0.00    +0.129 C 
ENDBRANCH   4  15
ENDBRANCH   1   9
BRANCH   1  17
ATOM     17  N   UNK     1       7.422  -4.419  24.193  0.00  0.00    -0.190 NA
ATOM     18  H   UNK     1       6.736  -3.672  24.112  0.00  0.00    +0.148 HD
BRANCH  17  19
ATOM     19  C   UNK     1       7.721  -5.245  23.015  0.00  0.00    +0.106 C 
BRANCH  19  20
ATOM     20  C   UNK     1       6.474  -6.000  22.546  0.00  0.00    +0.017 C 
BRANCH  20  21
ATOM     21  C   UNK     1       5.233  -5.106  22.560  0.00  0.00    +0.003 C 
BRANCH  21  22
ATOM     22  C   UNK     1       4.084  -5.678  23.399  0.00  0.00    +0.030 C 
BRANCH  22  23
ATOM     23  C   UNK     1       4.535  -6.803  24.347  0.00  0.00    +0.161 C 
BRANCH  23  24
ATOM     24  N   UNK     1       3.554  -7.925  24.360  0.00  0.00    -0.318 NA
ATOM     25  H   UNK     1       2.985  -7.854  23.511  0.00  0.00    +0.119 HD
ATOM     26  H   UNK     1       4.077  -8.800  24.239  0.00  0.00    +0.119 HD
ENDBRANCH  23  24
BRANCH  23  27
ATOM     27  C   UNK     1       4.680  -6.269  25.782  0.00  0.00    +0.322 C 
ATOM     28  O   UNK     1       3.761  -5.891  26.490  0.00  0.00    -0.249 OA
BRANCH  27  29
ATOM     29  O   UNK     1       5.977  -6.319  26.193  0.00  0.00    -0.480 OA
ATOM     30  H   UNK     1       6.183  -5.422  26.558  0.00  0.00    +0.295 HD
ENDBRANCH  27  29
ENDBRANCH  23  27
ENDBRANCH  22  23
ENDBRANCH  21  22
ENDBRANCH  20  21
ENDBRANCH  19  20
ENDBRANCH  17  19
ENDBRANCH   1  17
TORSDOF 11
ENDMDL
MODEL 4
REMARK VINA RESULT:      -6.2      2.740      7.926
REMARK  Name = 
REMARK  13 active torsions:
REMARK  status: ('A' for Active; 'I' for Inactive)
REMARK    1  A    between atoms: C_1  and  N_2
REMARK    2  A    between atoms: N_2  and  C_3
REMARK    3  A    between atoms: N_2  and  C_4
REMARK    4  A    between atoms: C_13  and  S_14
REMARK    5  A    between atoms: S_14  and  N_17
REMARK    6  A    between atoms: N_17  and  C_18
REMARK    7  A    between atoms: C_18  and  C_19
REMARK    8  A    between atoms: C_19  and  C_20
REMARK    9  A    between atoms: C_20  and  C_21
REMARK   10  A    between atoms: C_21  and  C_22
REMARK   11  A    between atoms: C_22  and  N_24
REMARK   12  A    between atoms: C_22  and  C_25
REMARK   13  A    between atoms: C_25  and  O_26
REMARK                            x       y       z     vdW  Elec       q    Type
REMARK                         _______ _______ _______ _____ _____    ______ ____
ROOT
ATOM      1  S   UNK     1       9.348  -2.619  23.928  0.00  0.00    +0.059 S 
ATOM      2  O   UNK     1      10.156  -3.770  24.268  0.00  0.00    -0.153 OA
ATOM      3  O   UNK     1       9.341  -1.436  24.762  0.00  0.00    -0.153 OA
ENDROOT
BRANCH   1   9
ATOM      4  C   UNK     1       4.973  -5.361  25.165  0.00  0.00    +0.037 A 
ATOM      5  C   UNK     1       5.685  -4.476  24.285  0.00  0.00    +0.005 A 
ATOM      6  C   UNK     1       5.111  -4.010  23.078  0.00  0.00    +0.010 A 
ATOM      7  C   UNK     1       5.788  -3.188  22.181  0.00  0.00    +0.003 A 
ATOM      8  C   UNK     1       7.068  -2.767  22.479  0.00  0.00    +0.029 A 
ATOM      9  C   UNK     1       7.663  -3.158  23.683  0.00  0.00    +0.113 A 
ATOM     10  C   UNK     1       6.987  -4.000  24.619  0.00  0.00    +0.010 A 
ATOM     11  C   UNK     1       7.524  -4.390  25.872  0.00  0.00    +0.010 A 
ATOM     12  C   UNK     1       6.842  -5.244  26.732  0.00  0.00    +0.002 A 
ATOM     13  C   UNK     1       5.593  -5.727  26.370  0.00  0.00    +0.024 A 
BRANCH   4  15
ATOM     14  C   UNK     1       2.551  -5.227  25.569  0.00  0.00    +0.129 C 
ATOM     15  N   UNK     1       3.673  -5.833  24.852  0.00  0.00    -0.336 N 
ATOM     16  C   UNK     1       3.558  -7.273  24.597  0.00  0.00    +0.129 C 
ENDBRANCH   4  15
ENDBRANCH   1   9
BRANCH   1  17
ATOM     17  N   UNK     1       9.812  -2.123  22.389  0.00  0.00    -0.190 NA
ATOM     18  H   UNK     1       9.297  -2.618  21.664  0.00  0.00    +0.148 HD
BRANCH  17  19
ATOM     19  C   UNK     1      10.163  -0.712  22.180  0.00  0.00    +0.106 C 
BRANCH  19  20
ATOM     20  C   UNK     1       9.221  -0.060  21.164  0.00  0.00    +0.017 C 
BRANCH  20  21
ATOM     21  C   UNK     1       8.930   1.400  21.520  0.00  0.00    +0.003 C 
BRANCH  21  22
ATOM     22  C   UNK     1      10.004   2.032  22.413  0.00  0.00    +0.030 C 
BRANCH  22  23
ATOM     23  C   UNK     1       9.460   3.175  23.287  0.00  0.00    +0.161 C 
BRANCH  23  24
ATOM     24  N   UNK     1      10.494   4.229  23.505  0.00  0.00    -0.318 NA
ATOM     25  H   UNK     1      11.040   4.313  22.643  0.00  0.00    +0.119 HD
ATOM     26  H   UNK     1      10.010   5.130  23.584  0.00  0.00    +0.119 HD
ENDBRANCH  23  24
BRANCH  23  27
ATOM     27  C   UNK     1       9.020   2.639  24.659  0.00  0.00    +0.322 C 
ATOM     28  O   UNK     1       8.132   3.111  25.350  0.00  0.00    -0.249 OA
BRANCH  27  29
ATOM     29  O   UNK     1       9.719   1.518  24.992  0.00  0.00    -0.480 OA
ATOM     30  H   UNK     1       9.446   1.291  25.916  0.00  0.00    +0.295 HD
ENDBRANCH  27  29
ENDBRANCH  23  27
ENDBRANCH  22  23
ENDBRANCH  21  22
ENDBRANCH  20  21
ENDBRANCH  19  20
ENDBRANCH  17  19
ENDBRANCH   1  17
TORSDOF 11
ENDMDL
MODEL 5
REMARK VINA RESULT:      -6.1      2.729      7.530
REMARK  Name = 
REMARK  13 active torsions:
REMARK  status: ('A' for Active; 'I' for Inactive)
REMARK    1  A    between atoms: C_1  and  N_2
REMARK    2  A    between atoms: N_2  and  C_3
REMARK    3  A    between atoms: N_2  and  C_4
REMARK    4  A    between atoms: C_13  and  S_14
REMARK    5  A    between atoms: S_14  and  N_17
REMARK    6  A    between atoms: N_17  and  C_18
REMARK    7  A    between atoms: C_18  and  C_19
REMARK    8  A    between atoms: C_19  and  C_20
REMARK    9  A    between atoms: C_20  and  C_21
REMARK   10  A    between atoms: C_21  and  C_22
REMARK   11  A    between atoms: C_22  and  N_24
REMARK   12  A    between atoms: C_22  and  C_25
REMARK   13  A    between atoms: C_25  and  O_26
REMARK                            x       y       z     vdW  Elec       q    Type
REMARK                         _______ _______ _______ _____ _____    ______ ____
ROOT
ATOM      1  S   UNK     1       8.939  -2.206  24.634  0.00  0.00    +0.059 S 
ATOM      2  O   UNK     1       9.848  -3.172  24.054  0.00  0.00    -0.153 OA
ATOM      3  O   UNK     1       9.338  -1.381  25.754  0.00  0.00    -0.153 OA
ENDROOT
BRANCH   1   9
ATOM      4  C   UNK     1       4.991  -5.657  23.803  0.00  0.00    +0.037 A 
ATOM      5  C   UNK     1       5.599  -4.623  24.592  0.00  0.00    +0.005 A 
ATOM      6  C   UNK     1       4.976  -4.115  25.758  0.00  0.00    +0.010 A 
ATOM      7  C   UNK     1       5.516  -3.084  26.521  0.00  0.00    +0.003 A 
ATOM      8  C   UNK     1       6.732  -2.538  26.163  0.00  0.00    +0.029 A 
ATOM      9  C   UNK     1       7.413  -3.038  25.049  0.00  0.00    +0.113 A 
ATOM     10  C   UNK     1       6.880  -4.096  24.251  0.00  0.00    +0.010 A 
ATOM     11  C   UNK     1       7.548  -4.671  23.139  0.00  0.00    +0.010 A 
ATOM     12  C   UNK     1       6.968  -5.674  22.370  0.00  0.00    +0.002 A 
ATOM     13  C   UNK     1       5.704  -6.144  22.696  0.00  0.00    +0.024 A 
BRANCH   4  15
ATOM     14  C   UNK     1       3.708  -7.410  24.956  0.00  0.00    +0.129 C 
ATOM     15  N   UNK     1       3.723  -6.198  24.136  0.00  0.00    -0.336 N 
ATOM     16  C   UNK     1       2.701  -6.132  23.087  0.00  0.00    +0.129 C 
ENDBRANCH   4  15
ENDBRANCH   1   9
BRANCH   1  17
ATOM     17  N   UNK     1       8.474  -1.160  23.402  0.00  0.00    -0.190 NA
ATOM     18  H   UNK     1       8.494  -0.189  23.706  0.00  0.00    +0.148 HD
BRANCH  17  19
ATOM     19  C   UNK     1       8.859  -1.484  22.021  0.00  0.00    +0.106 C 
BRANCH  19  20
ATOM     20  C   UNK     1       9.626  -0.324  21.381  0.00  0.00    +0.017 C 
BRANCH  20  21
ATOM     21  C   UNK     1       9.123   1.031  21.882  0.00  0.00    +0.003 C 
BRANCH  21  22
ATOM     22  C   UNK     1      10.254   1.990  22.272  0.00  0.00    +0.030 C 
BRANCH  22  23
ATOM     23  C   UNK     1      10.477   2.068  23.792  0.00  0.00    +0.161 C 
BRANCH  23  24
ATOM     24  N   UNK     1      11.007   0.781  24.328  0.00  0.00    -0.318 NA
ATOM     25  H   UNK     1      10.444   0.022  23.932  0.00  0.00    +0.119 HD
ATOM     26  H   UNK     1      11.941   0.636  23.927  0.00  0.00    +0.119 HD
ENDBRANCH  23  24
BRANCH  23  27
ATOM     27  C   UNK     1       9.155   2.383  24.512  0.00  0.00    +0.322 C 
ATOM     28  O   UNK     1       8.468   3.375  24.326  0.00  0.00    -0.249 OA
BRANCH  27  29
ATOM     29  O   UNK     1       8.809   1.376  25.361  0.00  0.00    -0.480 OA
ATOM     30  H   UNK     1       8.364   0.689  24.804  0.00  0.00    +0.295 HD
ENDBRANCH  27  29
ENDBRANCH  23  27
ENDBRANCH  22  23
ENDBRANCH  21  22
ENDBRANCH  20  21
ENDBRANCH  19  20
ENDBRANCH  17  19
ENDBRANCH   1  17
TORSDOF 11
ENDMDL
MODEL 6
REMARK VINA RESULT:      -6.1      2.056      7.337
REMARK  Name = 
REMARK  13 active torsions:
REMARK  status: ('A' for Active; 'I' for Inactive)
REMARK    1  A    between atoms: C_1  and  N_2
REMARK    2  A    between atoms: N_2  and  C_3
REMARK    3  A    between atoms: N_2  and  C_4
REMARK    4  A    between atoms: C_13  and  S_14
REMARK    5  A    between atoms: S_14  and  N_17
REMARK    6  A    between atoms: N_17  and  C_18
REMARK    7  A    between atoms: C_18  and  C_19
REMARK    8  A    between atoms: C_19  and  C_20
REMARK    9  A    between atoms: C_20  and  C_21
REMARK   10  A    between atoms: C_21  and  C_22
REMARK   11  A    between atoms: C_22  and  N_24
REMARK   12  A    between atoms: C_22  and  C_25
REMARK   13  A    between atoms: C_25  and  O_26
REMARK                            x       y       z     vdW  Elec       q    Type
REMARK                         _______ _______ _______ _____ _____    ______ ____
ROOT
ATOM      1  S   UNK     1       9.173  -3.912  24.799  0.00  0.00    +0.059 S 
ATOM      2  O   UNK     1      10.042  -3.242  23.855  0.00  0.00    -0.153 OA
ATOM      3  O   UNK     1       9.613  -5.090  25.517  0.00  0.00    -0.153 OA
ENDROOT
BRANCH   1   9
ATOM      4  C   UNK     1       4.338  -6.082  24.471  0.00  0.00    +0.037 A 
ATOM      5  C   UNK     1       5.415  -5.337  23.880  0.00  0.00    +0.005 A 
ATOM      6  C   UNK     1       5.359  -4.887  22.538  0.00  0.00    +0.010 A 
ATOM      7  C   UNK     1       6.400  -4.201  21.921  0.00  0.00    +0.003 A 
ATOM      8  C   UNK     1       7.539  -3.904  22.642  0.00  0.00    +0.029 A 
ATOM      9  C   UNK     1       7.625  -4.281  23.986  0.00  0.00    +0.113 A 
ATOM     10  C   UNK     1       6.568  -4.984  24.641  0.00  0.00    +0.010 A 
ATOM     11  C   UNK     1       6.584  -5.350  26.012  0.00  0.00    +0.010 A 
ATOM     12  C   UNK     1       5.545  -6.070  26.593  0.00  0.00    +0.002 A 
ATOM     13  C   UNK     1       4.451  -6.437  25.824  0.00  0.00    +0.024 A 
BRANCH   4  15
ATOM     14  C   UNK     1       2.223  -5.360  23.444  0.00  0.00    +0.129 C 
ATOM     15  N   UNK     1       3.181  -6.430  23.729  0.00  0.00    -0.336 N 
ATOM     16  C   UNK     1       2.594  -7.740  24.031  0.00  0.00    +0.129 C 
ENDBRANCH   4  15
ENDBRANCH   1   9
BRANCH   1  17
ATOM     17  N   UNK     1       8.729  -2.776  25.957  0.00  0.00    -0.190 NA
ATOM     18  H   UNK     1       9.291  -2.861  26.801  0.00  0.00    +0.148 HD
BRANCH  17  19
ATOM     19  C   UNK     1       8.309  -1.442  25.509  0.00  0.00    +0.106 C 
BRANCH  19  20
ATOM     20  C   UNK     1       9.236  -0.360  26.070  0.00  0.00    +0.017 C 
BRANCH  20  21
ATOM     21  C   UNK     1      10.254   0.107  25.028  0.00  0.00    +0.003 C 
BRANCH  21  22
ATOM     22  C   UNK     1       9.678   1.117  24.028  0.00  0.00    +0.030 C 
BRANCH  22  23
ATOM     23  C   UNK     1      10.061   0.803  22.571  0.00  0.00    +0.161 C 
BRANCH  23  24
ATOM     24  N   UNK     1       9.974   2.021  21.714  0.00  0.00    -0.318 NA
ATOM     25  H   UNK     1       9.816   2.825  22.328  0.00  0.00    +0.119 HD
ATOM     26  H   UNK     1      10.904   2.190  21.314  0.00  0.00    +0.119 HD
ENDBRANCH  23  24
BRANCH  23  27
ATOM     27  C   UNK     1       9.122  -0.267  21.988  0.00  0.00    +0.322 C 
ATOM     28  O   UNK     1       7.952  -0.422  22.295  0.00  0.00    -0.249 OA
BRANCH  27  29
ATOM     29  O   UNK     1       9.754  -1.000  21.030  0.00  0.00    -0.480 OA
ATOM     30  H   UNK     1      10.060  -0.352  20.347  0.00  0.00    +0.295 HD
ENDBRANCH  27  29
ENDBRANCH  23  27
ENDBRANCH  22  23
ENDBRANCH  21  22
ENDBRANCH  20  21
ENDBRANCH  19  20
ENDBRANCH  17  19
ENDBRANCH   1  17
TORSDOF 11
ENDMDL
MODEL 7
REMARK VINA RESULT:      -6.1      2.559      8.074
REMARK  Name = 
REMARK  13 active torsions:
REMARK  status: ('A' for Active; 'I' for Inactive)
REMARK    1  A    between atoms: C_1  and  N_2
REMARK    2  A    between atoms: N_2  and  C_3
REMARK    3  A    between atoms: N_2  and  C_4
REMARK    4  A    between atoms: C_13  and  S_14
REMARK    5  A    between atoms: S_14  and  N_17
REMARK    6  A    between atoms: N_17  and  C_18
REMARK    7  A    between atoms: C_18  and  C_19
REMARK    8  A    between atoms: C_19  and  C_20
REMARK    9  A    between atoms: C_20  and  C_21
REMARK   10  A    between atoms: C_21  and  C_22
REMARK   11  A    between atoms: C_22  and  N_24
REMARK   12  A    between atoms: C_22  and  C_25
REMARK   13  A    between atoms: C_25  and  O_26
REMARK                            x       y       z     vdW  Elec       q    Type
REMARK                         _______ _______ _______ _____ _____    ______ ____
ROOT
ATOM      1  S   UNK     1       8.756  -4.153  25.277  0.00  0.00    +0.059 S 
ATOM      2  O   UNK     1       9.412  -5.317  25.833  0.00  0.00    -0.153 OA
ATOM      3  O   UNK     1       8.331  -3.057  26.121  0.00  0.00    -0.153 OA
ENDROOT
BRANCH   1   9
ATOM      4  C   UNK     1       3.945  -6.285  24.571  0.00  0.00    +0.037 A 
ATOM      5  C   UNK     1       5.152  -5.723  24.033  0.00  0.00    +0.005 A 
ATOM      6  C   UNK     1       5.368  -5.625  22.637  0.00  0.00    +0.010 A 
ATOM      7  C   UNK     1       6.543  -5.126  22.082  0.00  0.00    +0.003 A 
ATOM      8  C   UNK     1       7.546  -4.669  22.912  0.00  0.00    +0.029 A 
ATOM      9  C   UNK     1       7.364  -4.697  24.298  0.00  0.00    +0.113 A 
ATOM     10  C   UNK     1       6.166  -5.203  24.891  0.00  0.00    +0.010 A 
ATOM     11  C   UNK     1       5.910  -5.213  26.286  0.00  0.00    +0.010 A 
ATOM     12  C   UNK     1       4.743  -5.753  26.817  0.00  0.00    +0.002 A 
ATOM     13  C   UNK     1       3.788  -6.290  25.966  0.00  0.00    +0.024 A 
BRANCH   4  15
ATOM     14  C   UNK     1       1.963  -5.835  23.186  0.00  0.00    +0.129 C 
ATOM     15  N   UNK     1       2.924  -6.796  23.730  0.00  0.00    -0.336 N 
ATOM     16  C   UNK     1       2.369  -8.098  24.113  0.00  0.00    +0.129 C 
ENDBRANCH   4  15
ENDBRANCH   1   9
BRANCH   1  17
ATOM     17  N   UNK     1       9.794  -3.502  24.124  0.00  0.00    -0.190 NA
ATOM     18  H   UNK     1       9.829  -4.075  23.284  0.00  0.00    +0.148 HD
BRANCH  17  19
ATOM     19  C   UNK     1       9.875  -2.041  23.996  0.00  0.00    +0.106 C 
BRANCH  19  20
ATOM     20  C   UNK     1      10.234  -1.637  22.563  0.00  0.00    +0.017 C 
BRANCH  20  21
ATOM     21  C   UNK     1       9.115  -0.827  21.907  0.00  0.00    +0.003 C 
BRANCH  21  22
ATOM     22  C   UNK     1       9.553   0.581  21.486  0.00  0.00    +0.030 C 
BRANCH  22  23
ATOM     23  C   UNK     1       9.140   1.665  22.497  0.00  0.00    +0.161 C 
BRANCH  23  24
ATOM     24  N   UNK     1       8.570   2.859  21.809  0.00  0.00    -0.318 NA
ATOM     25  H   UNK     1       8.530   3.623  22.490  0.00  0.00    +0.119 HD
ATOM     26  H   UNK     1       9.256   3.177  21.115  0.00  0.00    +0.119 HD
ENDBRANCH  23  24
BRANCH  23  27
ATOM     27  C   UNK     1      10.355   2.117  23.324  0.00  0.00    +0.322 C 
ATOM     28  O   UNK     1      10.884   1.470  24.213  0.00  0.00    -0.249 OA
BRANCH  27  29
ATOM     29  O   UNK     1      10.810   3.329  22.900  0.00  0.00    -0.480 OA
ATOM     30  H   UNK     1      11.195   3.176  22.001  0.00  0.00    +0.295 HD
ENDBRANCH  27  29
ENDBRANCH  23  27
ENDBRANCH  22  23
ENDBRANCH  21  22
ENDBRANCH  20  21
ENDBRANCH  19  20
ENDBRANCH  17  19
ENDBRANCH   1  17
TORSDOF 11
ENDMDL
MODEL 8
REMARK VINA RESULT:      -6.0      3.678      8.795
REMARK  Name = 
REMARK  13 active torsions:
REMARK  status: ('A' for Active; 'I' for Inactive)
REMARK    1  A    between atoms: C_1  and  N_2
REMARK    2  A    between atoms: N_2  and  C_3
REMARK    3  A    between atoms: N_2  and  C_4
REMARK    4  A    between atoms: C_13  and  S_14
REMARK    5  A    between atoms: S_14  and  N_17
REMARK    6  A    between atoms: N_17  and  C_18
REMARK    7  A    between atoms: C_18  and  C_19
REMARK    8  A    between atoms: C_19  and  C_20
REMARK    9  A    between atoms: C_20  and  C_21
REMARK   10  A    between atoms: C_21  and  C_22
REMARK   11  A    between atoms: C_22  and  N_24
REMARK   12  A    between atoms: C_22  and  C_25
REMARK   13  A    between atoms: C_25  and  O_26
REMARK                            x       y       z     vdW  Elec       q    Type
REMARK                         _______ _______ _______ _____ _____    ______ ____
ROOT
ATOM      1  S   UNK     1       9.156  -2.031  23.528  0.00  0.00    +0.059 S 
ATOM      2  O   UNK     1       8.871  -1.532  22.199  0.00  0.00    -0.153 OA
ATOM      3  O   UNK     1      10.283  -2.905  23.774  0.00  0.00    -0.153 OA
ENDROOT
BRANCH   1   9
ATOM      4  C   UNK     1       5.102  -5.457  23.409  0.00  0.00    +0.037 A 
ATOM      5  C   UNK     1       5.808  -4.381  24.046  0.00  0.00    +0.005 A 
ATOM      6  C   UNK     1       5.331  -3.780  25.236  0.00  0.00    +0.010 A 
ATOM      7  C   UNK     1       5.966  -2.709  25.855  0.00  0.00    +0.003 A 
ATOM      8  C   UNK     1       7.138  -2.212  25.321  0.00  0.00    +0.029 A 
ATOM      9  C   UNK     1       7.680  -2.802  24.175  0.00  0.00    +0.113 A 
ATOM     10  C   UNK     1       7.047  -3.904  23.523  0.00  0.00    +0.010 A 
ATOM     11  C   UNK     1       7.575  -4.569  22.386  0.00  0.00    +0.010 A 
ATOM     12  C   UNK     1       6.899  -5.613  21.764  0.00  0.00    +0.002 A 
ATOM     13  C   UNK     1       5.677  -6.035  22.266  0.00  0.00    +0.024 A 
BRANCH   4  15
ATOM     14  C   UNK     1       3.925  -7.196  24.690  0.00  0.00    +0.129 C 
ATOM     15  N   UNK     1       3.876  -5.949  23.925  0.00  0.00    -0.336 N 
ATOM     16  C   UNK     1       2.703  -5.784  23.060  0.00  0.00    +0.129 C 
ENDBRANCH   4  15
ENDBRANCH   1   9
BRANCH   1  17
ATOM     17  N   UNK     1       9.351  -0.694  24.528  0.00  0.00    -0.190 NA
ATOM     18  H   UNK     1      10.172  -0.786  25.123  0.00  0.00    +0.148 HD
BRANCH  17  19
ATOM     19  C   UNK     1       8.992   0.633  24.009  0.00  0.00    +0.106 C 
BRANCH  19  20
ATOM     20  C   UNK     1       9.983   1.696  24.490  0.00  0.00    +0.017 C 
BRANCH  20  21
ATOM     21  C   UNK     1      10.133   2.830  23.474  0.00  0.00    +0.003 C 
BRANCH  21  22
ATOM     22  C   UNK     1      11.586   3.278  23.276  0.00  0.00    +0.030 C 
BRANCH  22  23
ATOM     23  C   UNK     1      11.784   4.787  23.502  0.00  0.00    +0.161 C 
BRANCH  23  24
ATOM     24  N   UNK     1      10.603   5.565  23.028  0.00  0.00    -0.318 NA
ATOM     25  H   UNK     1       9.830   5.384  23.675  0.00  0.00    +0.119 HD
ATOM     26  H   UNK     1      10.811   6.561  23.159  0.00  0.00    +0.119 HD
ENDBRANCH  23  24
BRANCH  23  27
ATOM     27  C   UNK     1      13.026   5.284  22.743  0.00  0.00    +0.322 C 
ATOM     28  O   UNK     1      13.010   5.969  21.734  0.00  0.00    -0.249 OA
BRANCH  27  29
ATOM     29  O   UNK     1      14.170   4.903  23.378  0.00  0.00    -0.480 OA
ATOM     30  H   UNK     1      14.807   5.653  23.267  0.00  0.00    +0.295 HD
ENDBRANCH  27  29
ENDBRANCH  23  27
ENDBRANCH  22  23
ENDBRANCH  21  22
ENDBRANCH  20  21
ENDBRANCH  19  20
ENDBRANCH  17  19
ENDBRANCH   1  17
TORSDOF 11
ENDMDL
MODEL 9
REMARK VINA RESULT:      -5.9      2.471      3.301
REMARK  Name = 
REMARK  13 active torsions:
REMARK  status: ('A' for Active; 'I' for Inactive)
REMARK    1  A    between atoms: C_1  and  N_2
REMARK    2  A    between atoms: N_2  and  C_3
REMARK    3  A    between atoms: N_2  and  C_4
REMARK    4  A    between atoms: C_13  and  S_14
REMARK    5  A    between atoms: S_14  and  N_17
REMARK    6  A    between atoms: N_17  and  C_18
REMARK    7  A    between atoms: C_18  and  C_19
REMARK    8  A    between atoms: C_19  and  C_20
REMARK    9  A    between atoms: C_20  and  C_21
REMARK   10  A    between atoms: C_21  and  C_22
REMARK   11  A    between atoms: C_22  and  N_24
REMARK   12  A    between atoms: C_22  and  C_25
REMARK   13  A    between atoms: C_25  and  O_26
REMARK                            x       y       z     vdW  Elec       q    Type
REMARK                         _______ _______ _______ _____ _____    ______ ____
ROOT
ATOM      1  S   UNK     1       7.756  -4.210  23.494  0.00  0.00    +0.059 S 
ATOM      2  O   UNK     1       9.072  -4.369  24.075  0.00  0.00    -0.153 OA
ATOM      3  O   UNK     1       7.487  -4.610  22.129  0.00  0.00    -0.153 OA
ENDROOT
BRANCH   1   9
ATOM      4  C   UNK     1       8.137   1.034  22.757  0.00  0.00    +0.037 A 
ATOM      5  C   UNK     1       7.490  -0.097  23.359  0.00  0.00    +0.005 A 
ATOM      6  C   UNK     1       6.406   0.057  24.257  0.00  0.00    +0.010 A 
ATOM      7  C   UNK     1       5.784  -1.014  24.891  0.00  0.00    +0.003 A 
ATOM      8  C   UNK     1       6.207  -2.301  24.623  0.00  0.00    +0.029 A 
ATOM      9  C   UNK     1       7.241  -2.513  23.706  0.00  0.00    +0.113 A 
ATOM     10  C   UNK     1       7.892  -1.429  23.041  0.00  0.00    +0.010 A 
ATOM     11  C   UNK     1       8.914  -1.588  22.070  0.00  0.00    +0.010 A 
ATOM     12  C   UNK     1       9.544  -0.498  21.479  0.00  0.00    +0.002 A 
ATOM     13  C   UNK     1       9.164   0.789  21.833  0.00  0.00    +0.024 A 
BRANCH   4  15
ATOM     14  C   UNK     1       7.071   3.115  21.993  0.00  0.00    +0.129 C 
ATOM     15  N   UNK     1       7.740   2.363  23.055  0.00  0.00    -0.336 N 
ATOM     16  C   UNK     1       8.663   3.135  23.893  0.00  0.00    +0.129 C 
ENDBRANCH   4  15
ENDBRANCH   1   9
BRANCH   1  17
ATOM     17  N   UNK     1       6.677  -5.055  24.469  0.00  0.00    -0.190 NA
ATOM     18  H   UNK     1       6.466  -4.546  25.324  0.00  0.00    +0.148 HD
BRANCH  17  19
ATOM     19  C   UNK     1       5.616  -5.843  23.826  0.00  0.00    +0.106 C 
BRANCH  19  20
ATOM     20  C   UNK     1       4.488  -6.149  24.814  0.00  0.00    +0.017 C 
BRANCH  20  21
ATOM     21  C   UNK     1       5.031  -6.594  26.173  0.00  0.00    +0.003 C 
BRANCH  21  22
ATOM     22  C   UNK     1       4.994  -5.487  27.233  0.00  0.00    +0.030 C 
BRANCH  22  23
ATOM     23  C   UNK     1       6.134  -5.602  28.260  0.00  0.00    +0.161 C 
BRANCH  23  24
ATOM     24  N   UNK     1       7.440  -5.874  27.592  0.00  0.00    -0.318 NA
ATOM     25  H   UNK     1       7.370  -6.785  27.129  0.00  0.00    +0.119 HD
ATOM     26  H   UNK     1       7.540  -5.206  26.818  0.00  0.00    +0.119 HD
ENDBRANCH  23  24
BRANCH  23  27
ATOM     27  C   UNK     1       5.851  -6.745  29.250  0.00  0.00    +0.322 C 
ATOM     28  O   UNK     1       4.773  -6.973  29.774  0.00  0.00    -0.249 OA
BRANCH  27  29
ATOM     29  O   UNK     1       6.957  -7.517  29.433  0.00  0.00    -0.480 OA
ATOM     30  H   UNK     1       6.970  -7.752  30.395  0.00  0.00    +0.295 HD
ENDBRANCH  27  29
ENDBRANCH  23  27
ENDBRANCH  22  23
ENDBRANCH  21  22
ENDBRANCH  20  21
ENDBRANCH  19  20
ENDBRANCH  17  19
ENDBRANCH   1  17
TORSDOF 11
ENDMDL
