MODEL 1
REMARK VINA RESULT:      -8.5      0.000      0.000
REMARK  Name = 
REMARK  7 active torsions:
REMARK  status: ('A' for Active; 'I' for Inactive)
REMARK    1  A    between atoms: C_1  and  O_2
REMARK    2  A    between atoms: O_2  and  C_3
REMARK    3  A    between atoms: C_3  and  C_5
REMARK    4  A    between atoms: C_11  and  C_13
REMARK    5  A    between atoms: C_16  and  N_17
REMARK    6  A    between atoms: N_17  and  C_18
REMARK    7  A    between atoms: C_18  and  C_19
REMARK                            x       y       z     vdW  Elec       q    Type
REMARK                         _______ _______ _______ _____ _____    ______ ____
ROOT
ATOM      1  N   UNL     1       9.703  -2.302  23.268  0.00  0.00    -0.338 N 
ATOM      2  H   UNL     1      10.182  -2.792  22.508  0.00  0.00    +0.146 HD
ENDROOT
BRANCH   1   6
ATOM      3  C   UNL     1      10.262   1.880  23.431  0.00  0.00    +0.037 A 
ATOM      4  C   UNL     1      10.478   1.079  24.551  0.00  0.00    +0.015 A 
ATOM      5  C   UNL     1      10.255  -0.300  24.487  0.00  0.00    +0.023 A 
ATOM      6  C   UNL     1       9.972  -0.929  23.272  0.00  0.00    +0.027 A 
ATOM      7  C   UNL     1       9.876  -0.134  22.125  0.00  0.00    +0.023 A 
ATOM      8  C   UNL     1      10.019   1.256  22.201  0.00  0.00    +0.015 A 
BRANCH   3  13
ATOM      9  C   UNL     1       6.668   5.733  22.903  0.00  0.00    +0.101 C 
ATOM     10  C   UNL     1       6.616   4.209  22.826  0.00  0.00    +0.033 C 
ATOM     11  C   UNL     1       7.706   3.537  23.649  0.00  0.00    +0.109 C 
ATOM     12  N   UNL     1       9.042   4.094  23.429  0.00  0.00    -0.297 N 
ATOM     13  C   UNL     1      10.250   3.372  23.464  0.00  0.00    +0.247 C 
ATOM     14  O   UNL     1      11.347   3.932  23.434  0.00  0.00    -0.270 OA
ATOM     15  C   UNL     1       9.129   5.554  23.481  0.00  0.00    +0.109 C 
ATOM     16  C   UNL     1       8.083   6.215  22.584  0.00  0.00    +0.033 C 
BRANCH   9  17
ATOM     17  C   UNL     1       6.184   6.234  24.253  0.00  0.00    +0.310 C 
ATOM     18  O   UNL     1       6.725   7.108  24.911  0.00  0.00    -0.251 OA
BRANCH  17  20
ATOM     19  C   UNL     1       4.550   5.956  25.900  0.00  0.00    +0.280 C 
ATOM     20  O   UNL     1       5.079   5.538  24.641  0.00  0.00    -0.468 OA
ENDBRANCH  17  20
ENDBRANCH   9  17
ENDBRANCH   3  13
ENDBRANCH   1   6
BRANCH   1  21
ATOM     21  C   UNL     1       8.294  -2.696  23.298  0.00  0.00    +0.158 C 
BRANCH  21  22
ATOM     22  C   UNL     1       8.027  -3.606  24.477  0.00  0.00    +0.077 A 
ATOM     23  C   UNL     1       8.814  -3.533  25.611  0.00  0.00    +0.138 A 
ATOM     24  N   UNL     1       8.560  -4.259  26.726  0.00  0.00    -0.232 NA
ATOM     25  C   UNL     1       7.497  -5.072  26.721  0.00  0.00    +0.185 A 
ATOM     26  N   UNL     1       7.243  -5.753  27.835  0.00  0.00    -0.193 NA
ATOM     27  C   UNL     1       6.175  -6.536  27.848  0.00  0.00    +0.216 A 
ATOM     28  N   UNL     1       5.353  -6.727  26.818  0.00  0.00    -0.198 NA
ATOM     29  C   UNL     1       5.626  -6.028  25.703  0.00  0.00    +0.149 A 
ATOM     30  N   UNL     1       4.779  -6.284  24.610  0.00  0.00    -0.341 N 
ATOM     31  H   UNL     1       4.538  -5.427  24.122  0.00  0.00    +0.144 HD
ATOM     32  H   UNL     1       3.981  -6.829  24.922  0.00  0.00    +0.144 HD
ATOM     33  N   UNL     1       5.908  -7.231  29.009  0.00  0.00    -0.327 N 
ATOM     34  H   UNL     1       5.372  -8.064  28.812  0.00  0.00    +0.145 HD
ATOM     35  H   UNL     1       6.752  -7.338  29.557  0.00  0.00    +0.145 HD
ATOM     36  C   UNL     1       6.700  -5.157  25.573  0.00  0.00    +0.148 A 
ATOM     37  N   UNL     1       6.946  -4.422  24.443  0.00  0.00    -0.242 NA
ENDBRANCH  21  22
ENDBRANCH   1  21
TORSDOF 6
ENDMDL
MODEL 2
REMARK VINA RESULT:      -8.5      0.939      1.754
REMARK  Name = 
REMARK  7 active torsions:
REMARK  status: ('A' for Active; 'I' for Inactive)
REMARK    1  A    between atoms: C_1  and  O_2
REMARK    2  A    between atoms: O_2  and  C_3
REMARK    3  A    between atoms: C_3  and  C_5
REMARK    4  A    between atoms: C_11  and  C_13
REMARK    5  A    between atoms: C_16  and  N_17
REMARK    6  A    between atoms: N_17  and  C_18
REMARK    7  A    between atoms: C_18  and  C_19
REMARK                            x       y       z     vdW  Elec       q    Type
REMARK                         _______ _______ _______ _____ _____    ______ ____
ROOT
ATOM      1  N   UNL     1       9.349  -2.218  22.672  0.00  0.00    -0.338 N 
ATOM      2  H   UNL     1       9.992  -2.759  22.089  0.00  0.00    +0.146 HD
ENDROOT
BRANCH   1   6
ATOM      3  C   UNL     1      10.314   1.850  23.268  0.00  0.00    +0.037 A 
ATOM      4  C   UNL     1      10.533   0.902  24.267  0.00  0.00    +0.015 A 
ATOM      5  C   UNL     1      10.175  -0.434  24.063  0.00  0.00    +0.023 A 
ATOM      6  C   UNL     1       9.748  -0.884  22.811  0.00  0.00    +0.027 A 
ATOM      7  C   UNL     1       9.646   0.050  21.775  0.00  0.00    +0.023 A 
ATOM      8  C   UNL     1       9.926   1.403  21.998  0.00  0.00    +0.015 A 
BRANCH   3  13
ATOM      9  C   UNL     1       7.089   6.048  23.369  0.00  0.00    +0.101 C 
ATOM     10  C   UNL     1       6.888   4.555  23.119  0.00  0.00    +0.033 C 
ATOM     11  C   UNL     1       7.940   3.693  23.804  0.00  0.00    +0.109 C 
ATOM     12  N   UNL     1       9.313   4.149  23.582  0.00  0.00    -0.297 N 
ATOM     13  C   UNL     1      10.447   3.322  23.473  0.00  0.00    +0.247 C 
ATOM     14  O   UNL     1      11.591   3.779  23.452  0.00  0.00    -0.270 OA
ATOM     15  C   UNL     1       9.542   5.578  23.797  0.00  0.00    +0.109 C 
ATOM     16  C   UNL     1       8.530   6.434  23.036  0.00  0.00    +0.033 C 
BRANCH   9  17
ATOM     17  C   UNL     1       6.709   6.426  24.790  0.00  0.00    +0.310 C 
ATOM     18  O   UNL     1       7.390   7.108  25.540  0.00  0.00    -0.251 OA
BRANCH  17  20
ATOM     19  C   UNL     1       5.493   5.285  26.428  0.00  0.00    +0.280 C 
ATOM     20  O   UNL     1       5.515   5.861  25.121  0.00  0.00    -0.468 OA
ENDBRANCH  17  20
ENDBRANCH   9  17
ENDBRANCH   3  13
ENDBRANCH   1   6
BRANCH   1  21
ATOM     21  C   UNL     1       7.972  -2.451  22.236  0.00  0.00    +0.158 C 
BRANCH  21  22
ATOM     22  C   UNL     1       7.226  -3.271  23.266  0.00  0.00    +0.077 A 
ATOM     23  C   UNL     1       5.890  -3.576  23.087  0.00  0.00    +0.138 A 
ATOM     24  N   UNL     1       5.203  -4.382  23.931  0.00  0.00    -0.232 NA
ATOM     25  C   UNL     1       5.857  -4.906  24.974  0.00  0.00    +0.185 A 
ATOM     26  N   UNL     1       5.176  -5.721  25.775  0.00  0.00    -0.193 NA
ATOM     27  C   UNL     1       5.825  -6.268  26.793  0.00  0.00    +0.216 A 
ATOM     28  N   UNL     1       7.099  -6.035  27.102  0.00  0.00    -0.198 NA
ATOM     29  C   UNL     1       7.768  -5.211  26.279  0.00  0.00    +0.149 A 
ATOM     30  N   UNL     1       9.096  -4.936  26.653  0.00  0.00    -0.341 N 
ATOM     31  H   UNL     1       9.714  -4.935  25.847  0.00  0.00    +0.144 HD
ATOM     32  H   UNL     1       9.375  -5.569  27.396  0.00  0.00    +0.144 HD
ATOM     33  N   UNL     1       5.119  -7.123  27.613  0.00  0.00    -0.327 N 
ATOM     34  H   UNL     1       5.530  -7.154  28.535  0.00  0.00    +0.145 HD
ATOM     35  H   UNL     1       4.127  -6.930  27.552  0.00  0.00    +0.145 HD
ATOM     36  C   UNL     1       7.208  -4.596  25.167  0.00  0.00    +0.148 A 
ATOM     37  N   UNL     1       7.912  -3.786  24.315  0.00  0.00    -0.242 NA
ENDBRANCH  21  22
ENDBRANCH   1  21
TORSDOF 6
ENDMDL
MODEL 3
REMARK VINA RESULT:      -8.4      1.201      2.378
REMARK  Name = 
REMARK  7 active torsions:
REMARK  status: ('A' for Active; 'I' for Inactive)
REMARK    1  A    between atoms: C_1  and  O_2
REMARK    2  A    between atoms: O_2  and  C_3
REMARK    3  A    between atoms: C_3  and  C_5
REMARK    4  A    between atoms: C_11  and  C_13
REMARK    5  A    between atoms: C_16  and  N_17
REMARK    6  A    between atoms: N_17  and  C_18
REMARK    7  A    between atoms: C_18  and  C_19
REMARK                            x       y       z     vdW  Elec       q    Type
REMARK                         _______ _______ _______ _____ _____    ______ ____
ROOT
ATOM      1  N   UNL     1       9.985  -2.076  22.980  0.00  0.00    -0.338 N 
ATOM      2  H   UNL     1       9.487  -2.362  22.133  0.00  0.00    +0.146 HD
ENDROOT
BRANCH   1   6
ATOM      3  C   UNL     1      10.267   2.120  23.360  0.00  0.00    +0.037 A 
ATOM      4  C   UNL     1      10.580   1.276  24.425  0.00  0.00    +0.015 A 
ATOM      5  C   UNL     1      10.448  -0.109  24.290  0.00  0.00    +0.023 A 
ATOM      6  C   UNL     1      10.162  -0.690  23.052  0.00  0.00    +0.027 A 
ATOM      7  C   UNL     1       9.969   0.157  21.956  0.00  0.00    +0.023 A 
ATOM      8  C   UNL     1      10.020   1.549  22.106  0.00  0.00    +0.015 A 
BRANCH   3  13
ATOM      9  C   UNL     1       6.491   5.779  22.738  0.00  0.00    +0.101 C 
ATOM     10  C   UNL     1       6.543   4.262  22.568  0.00  0.00    +0.033 C 
ATOM     11  C   UNL     1       7.601   3.605  23.445  0.00  0.00    +0.109 C 
ATOM     12  N   UNL     1       8.911   4.253  23.378  0.00  0.00    -0.297 N 
ATOM     13  C   UNL     1      10.156   3.604  23.478  0.00  0.00    +0.247 C 
ATOM     14  O   UNL     1      11.213   4.228  23.579  0.00  0.00    -0.270 OA
ATOM     15  C   UNL     1       8.899   5.709  23.521  0.00  0.00    +0.109 C 
ATOM     16  C   UNL     1       7.893   6.362  22.574  0.00  0.00    +0.033 C 
BRANCH   9  17
ATOM     17  C   UNL     1       5.861   6.163  24.066  0.00  0.00    +0.310 C 
ATOM     18  O   UNL     1       6.234   7.082  24.778  0.00  0.00    -0.251 OA
BRANCH  17  20
ATOM     19  C   UNL     1       4.721   5.030  25.761  0.00  0.00    +0.280 C 
ATOM     20  O   UNL     1       4.844   5.309  24.367  0.00  0.00    -0.468 OA
ENDBRANCH  17  20
ENDBRANCH   9  17
ENDBRANCH   3  13
ENDBRANCH   1   6
BRANCH   1  21
ATOM     21  C   UNL     1       9.388  -2.725  24.147  0.00  0.00    +0.158 C 
BRANCH  21  22
ATOM     22  C   UNL     1       8.056  -3.342  23.781  0.00  0.00    +0.077 A 
ATOM     23  C   UNL     1       7.473  -3.078  22.556  0.00  0.00    +0.138 A 
ATOM     24  N   UNL     1       6.330  -3.676  22.144  0.00  0.00    -0.232 NA
ATOM     25  C   UNL     1       5.752  -4.563  22.963  0.00  0.00    +0.185 A 
ATOM     26  N   UNL     1       4.648  -5.164  22.530  0.00  0.00    -0.193 NA
ATOM     27  C   UNL     1       4.087  -6.067  23.323  0.00  0.00    +0.216 A 
ATOM     28  N   UNL     1       4.521  -6.392  24.539  0.00  0.00    -0.198 NA
ATOM     29  C   UNL     1       5.639  -5.773  24.956  0.00  0.00    +0.149 A 
ATOM     30  N   UNL     1       6.050  -6.091  26.263  0.00  0.00    -0.341 N 
ATOM     31  H   UNL     1       7.057  -6.205  26.315  0.00  0.00    +0.144 HD
ATOM     32  H   UNL     1       5.518  -6.887  26.600  0.00  0.00    +0.144 HD
ATOM     33  N   UNL     1       2.949  -6.698  22.865  0.00  0.00    -0.327 N 
ATOM     34  H   UNL     1       2.387  -7.025  23.638  0.00  0.00    +0.145 HD
ATOM     35  H   UNL     1       2.491  -6.132  22.163  0.00  0.00    +0.145 HD
ATOM     36  C   UNL     1       6.331  -4.829  24.209  0.00  0.00    +0.148 A 
ATOM     37  N   UNL     1       7.491  -4.233  24.631  0.00  0.00    -0.242 NA
ENDBRANCH  21  22
ENDBRANCH   1  21
TORSDOF 6
ENDMDL
MODEL 4
REMARK VINA RESULT:      -8.1      3.981      8.538
REMARK  Name = 
REMARK  7 active torsions:
REMARK  status: ('A' for Active; 'I' for Inactive)
REMARK    1  A    between atoms: C_1  and  O_2
REMARK    2  A    between atoms: O_2  and  C_3
REMARK    3  A    between atoms: C_3  and  C_5
REMARK    4  A    between atoms: C_11  and  C_13
REMARK    5  A    between atoms: C_16  and  N_17
REMARK    6  A    between atoms: N_17  and  C_18
REMARK    7  A    between atoms: C_18  and  C_19
REMARK                            x       y       z     vdW  Elec       q    Type
REMARK                         _______ _______ _______ _____ _____    ______ ____
ROOT
ATOM      1  N   UNL     1      10.187   3.568  22.946  0.00  0.00    -0.338 N 
ATOM      2  H   UNL     1      11.131   3.945  22.833  0.00  0.00    +0.146 HD
ENDROOT
BRANCH   1   6
ATOM      3  C   UNL     1       9.856  -0.639  23.110  0.00  0.00    +0.037 A 
ATOM      4  C   UNL     1       9.799   0.043  21.895  0.00  0.00    +0.015 A 
ATOM      5  C   UNL     1       9.877   1.438  21.864  0.00  0.00    +0.023 A 
ATOM      6  C   UNL     1      10.175   2.170  23.017  0.00  0.00    +0.027 A 
ATOM      7  C   UNL     1      10.352   1.470  24.214  0.00  0.00    +0.023 A 
ATOM      8  C   UNL     1      10.194   0.080  24.264  0.00  0.00    +0.015 A 
BRANCH   3  13
ATOM      9  C   UNL     1       5.598  -3.618  24.129  0.00  0.00    +0.101 C 
ATOM     10  C   UNL     1       5.845  -2.116  24.014  0.00  0.00    +0.033 C 
ATOM     11  C   UNL     1       7.022  -1.776  23.110  0.00  0.00    +0.109 C 
ATOM     12  N   UNL     1       8.229  -2.553  23.393  0.00  0.00    -0.297 N 
ATOM     13  C   UNL     1       9.553  -2.092  23.265  0.00  0.00    +0.247 C 
ATOM     14  O   UNL     1      10.521  -2.848  23.361  0.00  0.00    -0.270 OA
ATOM     15  C   UNL     1       8.030  -3.997  23.525  0.00  0.00    +0.109 C 
ATOM     16  C   UNL     1       6.901  -4.325  24.502  0.00  0.00    +0.033 C 
BRANCH   9  17
ATOM     17  C   UNL     1       4.989  -4.175  22.854  0.00  0.00    +0.310 C 
ATOM     18  O   UNL     1       5.555  -4.232  21.773  0.00  0.00    -0.251 OA
BRANCH  17  20
ATOM     19  C   UNL     1       3.509  -5.978  22.988  0.00  0.00    +0.280 C 
ATOM     20  O   UNL     1       3.704  -4.567  23.081  0.00  0.00    -0.468 OA
ENDBRANCH  17  20
ENDBRANCH   9  17
ENDBRANCH   3  13
ENDBRANCH   1   6
BRANCH   1  21
ATOM     21  C   UNL     1       9.492   4.287  24.014  0.00  0.00    +0.158 C 
BRANCH  21  22
ATOM     22  C   UNL     1       8.009   4.353  23.725  0.00  0.00    +0.077 A 
ATOM     23  C   UNL     1       7.510   5.273  22.823  0.00  0.00    +0.138 A 
ATOM     24  N   UNL     1       6.205   5.311  22.461  0.00  0.00    -0.232 NA
ATOM     25  C   UNL     1       5.375   4.411  23.000  0.00  0.00    +0.185 A 
ATOM     26  N   UNL     1       4.104   4.441  22.610  0.00  0.00    -0.193 NA
ATOM     27  C   UNL     1       3.282   3.532  23.116  0.00  0.00    +0.216 A 
ATOM     28  N   UNL     1       3.620   2.613  24.017  0.00  0.00    -0.198 NA
ATOM     29  C   UNL     1       4.909   2.598  24.396  0.00  0.00    +0.149 A 
ATOM     30  N   UNL     1       5.233   1.655  25.388  0.00  0.00    -0.341 N 
ATOM     31  H   UNL     1       6.122   1.204  25.191  0.00  0.00    +0.144 HD
ATOM     32  H   UNL     1       4.456   1.014  25.511  0.00  0.00    +0.144 HD
ATOM     33  N   UNL     1       1.967   3.559  22.698  0.00  0.00    -0.327 N 
ATOM     34  H   UNL     1       1.363   3.148  23.396  0.00  0.00    +0.145 HD
ATOM     35  H   UNL     1       1.725   4.481  22.357  0.00  0.00    +0.145 HD
ATOM     36  C   UNL     1       5.871   3.480  23.920  0.00  0.00    +0.148 A 
ATOM     37  N   UNL     1       7.190   3.431  24.288  0.00  0.00    -0.242 NA
ENDBRANCH  21  22
ENDBRANCH   1  21
TORSDOF 6
ENDMDL
MODEL 5
REMARK VINA RESULT:      -8.0      4.260     10.280
REMARK  Name = 
REMARK  7 active torsions:
REMARK  status: ('A' for Active; 'I' for Inactive)
REMARK    1  A    between atoms: C_1  and  O_2
REMARK    2  A    between atoms: O_2  and  C_3
REMARK    3  A    between atoms: C_3  and  C_5
REMARK    4  A    between atoms: C_11  and  C_13
REMARK    5  A    between atoms: C_16  and  N_17
REMARK    6  A    between atoms: N_17  and  C_18
REMARK    7  A    between atoms: C_18  and  C_19
REMARK                            x       y       z     vdW  Elec       q    Type
REMARK                         _______ _______ _______ _____ _____    ______ ____
ROOT
ATOM      1  N   UNL     1       9.983  -0.501  24.019  0.00  0.00    -0.338 N 
ATOM      2  H   UNL     1      10.915  -0.684  23.638  0.00  0.00    +0.146 HD
ENDROOT
BRANCH   1   6
ATOM      3  C   UNL     1       8.183  -3.887  25.788  0.00  0.00    +0.037 A 
ATOM      4  C   UNL     1       9.058  -4.015  24.710  0.00  0.00    +0.015 A 
ATOM      5  C   UNL     1       9.618  -2.880  24.117  0.00  0.00    +0.023 A 
ATOM      6  C   UNL     1       9.450  -1.613  24.681  0.00  0.00    +0.027 A 
ATOM      7  C   UNL     1       8.669  -1.505  25.837  0.00  0.00    +0.023 A 
ATOM      8  C   UNL     1       8.041  -2.629  26.386  0.00  0.00    +0.015 A 
BRANCH   3  13
ATOM      9  C   UNL     1       3.230  -5.682  25.255  0.00  0.00    +0.101 C 
ATOM     10  C   UNL     1       4.001  -4.495  24.682  0.00  0.00    +0.033 C 
ATOM     11  C   UNL     1       5.501  -4.744  24.606  0.00  0.00    +0.109 C 
ATOM     12  N   UNL     1       6.075  -5.280  25.842  0.00  0.00    -0.297 N 
ATOM     13  C   UNL     1       7.365  -5.009  26.335  0.00  0.00    +0.247 C 
ATOM     14  O   UNL     1       7.842  -5.622  27.291  0.00  0.00    -0.270 OA
ATOM     15  C   UNL     1       5.354  -6.410  26.429  0.00  0.00    +0.109 C 
ATOM     16  C   UNL     1       3.862  -6.114  26.578  0.00  0.00    +0.033 C 
BRANCH   9  17
ATOM     17  C   UNL     1       3.154  -6.824  24.256  0.00  0.00    +0.310 C 
ATOM     18  O   UNL     1       3.468  -7.980  24.489  0.00  0.00    -0.251 OA
BRANCH  17  20
ATOM     19  C   UNL     1       1.605  -7.082  22.526  0.00  0.00    +0.280 C 
ATOM     20  O   UNL     1       2.722  -6.363  23.050  0.00  0.00    -0.468 OA
ENDBRANCH  17  20
ENDBRANCH   9  17
ENDBRANCH   3  13
ENDBRANCH   1   6
BRANCH   1  21
ATOM     21  C   UNL     1       9.991   0.762  24.757  0.00  0.00    +0.158 C 
BRANCH  21  22
ATOM     22  C   UNL     1       9.304   1.844  23.952  0.00  0.00    +0.077 A 
ATOM     23  C   UNL     1       8.231   1.539  23.137  0.00  0.00    +0.138 A 
ATOM     24  N   UNL     1       7.526   2.483  22.469  0.00  0.00    -0.232 NA
ATOM     25  C   UNL     1       7.888   3.763  22.618  0.00  0.00    +0.185 A 
ATOM     26  N   UNL     1       7.165   4.680  21.981  0.00  0.00    -0.193 NA
ATOM     27  C   UNL     1       7.498   5.952  22.148  0.00  0.00    +0.216 A 
ATOM     28  N   UNL     1       8.527   6.384  22.873  0.00  0.00    -0.198 NA
ATOM     29  C   UNL     1       9.243   5.441  23.510  0.00  0.00    +0.149 A 
ATOM     30  N   UNL     1      10.357   5.914  24.227  0.00  0.00    -0.341 N 
ATOM     31  H   UNL     1      10.446   5.442  25.122  0.00  0.00    +0.144 HD
ATOM     32  H   UNL     1      10.314   6.926  24.288  0.00  0.00    +0.144 HD
ATOM     33  N   UNL     1       6.738   6.901  21.496  0.00  0.00    -0.327 N 
ATOM     34  H   UNL     1       7.276   7.742  21.339  0.00  0.00    +0.145 HD
ATOM     35  H   UNL     1       6.272   6.490  20.697  0.00  0.00    +0.145 HD
ATOM     36  C   UNL     1       8.979   4.080  23.435  0.00  0.00    +0.148 A 
ATOM     37  N   UNL     1       9.694   3.132  24.119  0.00  0.00    -0.242 NA
ENDBRANCH  21  22
ENDBRANCH   1  21
TORSDOF 6
ENDMDL
MODEL 6
REMARK VINA RESULT:      -7.7      4.469      9.951
REMARK  Name = 
REMARK  7 active torsions:
REMARK  status: ('A' for Active; 'I' for Inactive)
REMARK    1  A    between atoms: C_1  and  O_2
REMARK    2  A    between atoms: O_2  and  C_3
REMARK    3  A    between atoms: C_3  and  C_5
REMARK    4  A    between atoms: C_11  and  C_13
REMARK    5  A    between atoms: C_16  and  N_17
REMARK    6  A    between atoms: N_17  and  C_18
REMARK    7  A    between atoms: C_18  and  C_19
REMARK                            x       y       z     vdW  Elec       q    Type
REMARK                         _______ _______ _______ _____ _____    ______ ____
ROOT
ATOM      1  N   UNL     1       9.729  -1.113  24.022  0.00  0.00    -0.338 N 
ATOM      2  H   UNL     1      10.473  -1.417  23.390  0.00  0.00    +0.146 HD
ENDROOT
BRANCH   1   6
ATOM      3  C   UNL     1       7.776  -4.370  25.867  0.00  0.00    +0.037 A 
ATOM      4  C   UNL     1       8.671  -4.567  24.816  0.00  0.00    +0.015 A 
ATOM      5  C   UNL     1       9.282  -3.473  24.196  0.00  0.00    +0.023 A 
ATOM      6  C   UNL     1       9.143  -2.181  24.710  0.00  0.00    +0.027 A 
ATOM      7  C   UNL     1       8.340  -2.005  25.841  0.00  0.00    +0.023 A 
ATOM      8  C   UNL     1       7.661  -3.087  26.416  0.00  0.00    +0.015 A 
BRANCH   3  13
ATOM      9  C   UNL     1       2.804  -6.074  25.217  0.00  0.00    +0.101 C 
ATOM     10  C   UNL     1       3.628  -4.936  24.619  0.00  0.00    +0.033 C 
ATOM     11  C   UNL     1       5.123  -5.223  24.618  0.00  0.00    +0.109 C 
ATOM     12  N   UNL     1       5.632  -5.710  25.901  0.00  0.00    -0.297 N 
ATOM     13  C   UNL     1       6.908  -5.445  26.434  0.00  0.00    +0.247 C 
ATOM     14  O   UNL     1       7.330  -6.020  27.438  0.00  0.00    -0.270 OA
ATOM     15  C   UNL     1       4.860  -6.792  26.513  0.00  0.00    +0.109 C 
ATOM     16  C   UNL     1       3.372  -6.454  26.584  0.00  0.00    +0.033 C 
BRANCH   9  17
ATOM     17  C   UNL     1       2.741  -7.263  24.273  0.00  0.00    +0.310 C 
ATOM     18  O   UNL     1       2.953  -8.422  24.591  0.00  0.00    -0.251 OA
BRANCH  17  20
ATOM     19  C   UNL     1       1.284  -7.452  22.456  0.00  0.00    +0.280 C 
ATOM     20  O   UNL     1       2.450  -6.843  23.010  0.00  0.00    -0.468 OA
ENDBRANCH  17  20
ENDBRANCH   9  17
ENDBRANCH   3  13
ENDBRANCH   1   6
BRANCH   1  21
ATOM     21  C   UNL     1      10.197   0.013  24.830  0.00  0.00    +0.158 C 
BRANCH  21  22
ATOM     22  C   UNL     1       9.560   1.301  24.356  0.00  0.00    +0.077 A 
ATOM     23  C   UNL     1      10.341   2.401  24.055  0.00  0.00    +0.138 A 
ATOM     24  N   UNL     1       9.829   3.545  23.540  0.00  0.00    -0.232 NA
ATOM     25  C   UNL     1       8.511   3.598  23.310  0.00  0.00    +0.185 A 
ATOM     26  N   UNL     1       8.030   4.716  22.774  0.00  0.00    -0.193 NA
ATOM     27  C   UNL     1       6.731   4.765  22.515  0.00  0.00    +0.216 A 
ATOM     28  N   UNL     1       5.860   3.795  22.785  0.00  0.00    -0.198 NA
ATOM     29  C   UNL     1       6.368   2.673  23.324  0.00  0.00    +0.149 A 
ATOM     30  N   UNL     1       5.424   1.683  23.651  0.00  0.00    -0.341 N 
ATOM     31  H   UNL     1       5.762   0.757  23.406  0.00  0.00    +0.144 HD
ATOM     32  H   UNL     1       4.526   1.924  23.243  0.00  0.00    +0.144 HD
ATOM     33  N   UNL     1       6.237   5.921  21.947  0.00  0.00    -0.327 N 
ATOM     34  H   UNL     1       5.257   6.034  22.163  0.00  0.00    +0.145 HD
ATOM     35  H   UNL     1       6.851   6.700  22.146  0.00  0.00    +0.145 HD
ATOM     36  C   UNL     1       7.713   2.491  23.619  0.00  0.00    +0.148 A 
ATOM     37  N   UNL     1       8.223   1.329  24.135  0.00  0.00    -0.242 NA
ENDBRANCH  21  22
ENDBRANCH   1  21
TORSDOF 6
ENDMDL
MODEL 7
REMARK VINA RESULT:      -7.7      1.469      1.655
REMARK  Name = 
REMARK  7 active torsions:
REMARK  status: ('A' for Active; 'I' for Inactive)
REMARK    1  A    between atoms: C_1  and  O_2
REMARK    2  A    between atoms: O_2  and  C_3
REMARK    3  A    between atoms: C_3  and  C_5
REMARK    4  A    between atoms: C_11  and  C_13
REMARK    5  A    between atoms: C_16  and  N_17
REMARK    6  A    between atoms: N_17  and  C_18
REMARK    7  A    between atoms: C_18  and  C_19
REMARK                            x       y       z     vdW  Elec       q    Type
REMARK                         _______ _______ _______ _____ _____    ______ ____
ROOT
ATOM      1  N   UNL     1       9.241  -2.330  23.285  0.00  0.00    -0.338 N 
ATOM      2  H   UNL     1       8.225  -2.440  23.346  0.00  0.00    +0.146 HD
ENDROOT
BRANCH   1   6
ATOM      3  C   UNL     1      10.267   1.763  23.431  0.00  0.00    +0.037 A 
ATOM      4  C   UNL     1      10.879   0.835  24.274  0.00  0.00    +0.015 A 
ATOM      5  C   UNL     1      10.501  -0.510  24.234  0.00  0.00    +0.023 A 
ATOM      6  C   UNL     1       9.632  -0.987  23.249  0.00  0.00    +0.027 A 
ATOM      7  C   UNL     1       9.114  -0.071  22.327  0.00  0.00    +0.023 A 
ATOM      8  C   UNL     1       9.427   1.291  22.415  0.00  0.00    +0.015 A 
BRANCH   3  13
ATOM      9  C   UNL     1       7.418   5.838  25.253  0.00  0.00    +0.101 C 
ATOM     10  C   UNL     1       7.169   4.337  25.123  0.00  0.00    +0.033 C 
ATOM     11  C   UNL     1       8.454   3.519  25.149  0.00  0.00    +0.109 C 
ATOM     12  N   UNL     1       9.495   4.025  24.253  0.00  0.00    -0.297 N 
ATOM     13  C   UNL     1      10.435   3.241  23.559  0.00  0.00    +0.247 C 
ATOM     14  O   UNL     1      11.385   3.741  22.954  0.00  0.00    -0.270 OA
ATOM     15  C   UNL     1       9.752   5.464  24.338  0.00  0.00    +0.109 C 
ATOM     16  C   UNL     1       8.462   6.275  24.226  0.00  0.00    +0.033 C 
BRANCH   9  17
ATOM     17  C   UNL     1       7.818   6.209  26.670  0.00  0.00    +0.310 C 
ATOM     18  O   UNL     1       8.933   6.571  27.012  0.00  0.00    -0.251 OA
BRANCH  17  20
ATOM     19  C   UNL     1       5.780   7.075  27.415  0.00  0.00    +0.280 C 
ATOM     20  O   UNL     1       6.762   6.044  27.514  0.00  0.00    -0.468 OA
ENDBRANCH  17  20
ENDBRANCH   9  17
ENDBRANCH   3  13
ENDBRANCH   1   6
BRANCH   1  21
ATOM     21  C   UNL     1       9.890  -3.178  24.285  0.00  0.00    +0.158 C 
BRANCH  21  22
ATOM     22  C   UNL     1       8.869  -4.061  24.968  0.00  0.00    +0.077 A 
ATOM     23  C   UNL     1       8.952  -4.309  26.325  0.00  0.00    +0.138 A 
ATOM     24  N   UNL     1       8.013  -5.015  27.000  0.00  0.00    -0.232 NA
ATOM     25  C   UNL     1       6.962  -5.481  26.315  0.00  0.00    +0.185 A 
ATOM     26  N   UNL     1       6.033  -6.144  26.998  0.00  0.00    -0.193 NA
ATOM     27  C   UNL     1       4.974  -6.581  26.332  0.00  0.00    +0.216 A 
ATOM     28  N   UNL     1       4.783  -6.444  25.022  0.00  0.00    -0.198 NA
ATOM     29  C   UNL     1       5.732  -5.768  24.351  0.00  0.00    +0.149 A 
ATOM     30  N   UNL     1       5.538  -5.681  22.961  0.00  0.00    -0.341 N 
ATOM     31  H   UNL     1       5.771  -4.755  22.615  0.00  0.00    +0.144 HD
ATOM     32  H   UNL     1       4.600  -5.993  22.731  0.00  0.00    +0.144 HD
ATOM     33  N   UNL     1       4.007  -7.258  27.047  0.00  0.00    -0.327 N 
ATOM     34  H   UNL     1       3.489  -7.881  26.444  0.00  0.00    +0.145 HD
ATOM     35  H   UNL     1       4.403  -7.649  27.892  0.00  0.00    +0.145 HD
ATOM     36  C   UNL     1       6.874  -5.240  24.939  0.00  0.00    +0.148 A 
ATOM     37  N   UNL     1       7.816  -4.522  24.250  0.00  0.00    -0.242 NA
ENDBRANCH  21  22
ENDBRANCH   1  21
TORSDOF 6
ENDMDL
MODEL 8
REMARK VINA RESULT:      -7.6      1.871      3.022
REMARK  Name = 
REMARK  7 active torsions:
REMARK  status: ('A' for Active; 'I' for Inactive)
REMARK    1  A    between atoms: C_1  and  O_2
REMARK    2  A    between atoms: O_2  and  C_3
REMARK    3  A    between atoms: C_3  and  C_5
REMARK    4  A    between atoms: C_11  and  C_13
REMARK    5  A    between atoms: C_16  and  N_17
REMARK    6  A    between atoms: N_17  and  C_18
REMARK    7  A    between atoms: C_18  and  C_19
REMARK                            x       y       z     vdW  Elec       q    Type
REMARK                         _______ _______ _______ _____ _____    ______ ____
ROOT
ATOM      1  N   UNL     1      10.589  -0.463  23.032  0.00  0.00    -0.338 N 
ATOM      2  H   UNL     1      11.581  -0.427  22.781  0.00  0.00    +0.146 HD
ENDROOT
BRANCH   1   6
ATOM      3  C   UNL     1       8.562   3.241  23.116  0.00  0.00    +0.037 A 
ATOM      4  C   UNL     1       9.432   2.870  24.141  0.00  0.00    +0.015 A 
ATOM      5  C   UNL     1      10.067   1.625  24.112  0.00  0.00    +0.023 A 
ATOM      6  C   UNL     1       9.981   0.796  22.991  0.00  0.00    +0.027 A 
ATOM      7  C   UNL     1       9.204   1.228  21.911  0.00  0.00    +0.023 A 
ATOM      8  C   UNL     1       8.501   2.437  21.970  0.00  0.00    +0.015 A 
BRANCH   3  13
ATOM      9  C   UNL     1       3.399   4.184  23.810  0.00  0.00    +0.101 C 
ATOM     10  C   UNL     1       4.250   2.919  23.732  0.00  0.00    +0.033 C 
ATOM     11  C   UNL     1       5.694   3.149  24.157  0.00  0.00    +0.109 C 
ATOM     12  N   UNL     1       6.314   4.318  23.533  0.00  0.00    -0.297 N 
ATOM     13  C   UNL     1       7.670   4.436  23.172  0.00  0.00    +0.247 C 
ATOM     14  O   UNL     1       8.159   5.505  22.803  0.00  0.00    -0.270 OA
ATOM     15  C   UNL     1       5.521   5.547  23.574  0.00  0.00    +0.109 C 
ATOM     16  C   UNL     1       4.099   5.320  23.064  0.00  0.00    +0.033 C 
BRANCH   9  17
ATOM     17  C   UNL     1       3.087   4.550  25.251  0.00  0.00    +0.310 C 
ATOM     18  O   UNL     1       3.237   3.810  26.210  0.00  0.00    -0.251 OA
BRANCH  17  20
ATOM     19  C   UNL     1       1.162   5.853  25.495  0.00  0.00    +0.280 C 
ATOM     20  O   UNL     1       2.578   5.812  25.314  0.00  0.00    -0.468 OA
ENDBRANCH  17  20
ENDBRANCH   9  17
ENDBRANCH   3  13
ENDBRANCH   1   6
BRANCH   1  21
ATOM     21  C   UNL     1       9.931  -1.536  22.287  0.00  0.00    +0.158 C 
BRANCH  21  22
ATOM     22  C   UNL     1       8.992  -2.305  23.191  0.00  0.00    +0.077 A 
ATOM     23  C   UNL     1       7.632  -2.063  23.159  0.00  0.00    +0.138 A 
ATOM     24  N   UNL     1       6.742  -2.786  23.879  0.00  0.00    -0.232 NA
ATOM     25  C   UNL     1       7.210  -3.779  24.645  0.00  0.00    +0.185 A 
ATOM     26  N   UNL     1       6.319  -4.500  25.321  0.00  0.00    -0.193 NA
ATOM     27  C   UNL     1       6.772  -5.504  26.057  0.00  0.00    +0.216 A 
ATOM     28  N   UNL     1       8.055  -5.826  26.207  0.00  0.00    -0.198 NA
ATOM     29  C   UNL     1       8.937  -5.087  25.513  0.00  0.00    +0.149 A 
ATOM     30  N   UNL     1      10.290  -5.409  25.726  0.00  0.00    -0.341 N 
ATOM     31  H   UNL     1      10.814  -5.391  24.856  0.00  0.00    +0.144 HD
ATOM     32  H   UNL     1      10.352  -6.283  26.238  0.00  0.00    +0.144 HD
ATOM     33  N   UNL     1       5.845  -6.258  26.747  0.00  0.00    -0.327 N 
ATOM     34  H   UNL     1       6.267  -6.692  27.555  0.00  0.00    +0.145 HD
ATOM     35  H   UNL     1       4.997  -5.724  26.894  0.00  0.00    +0.145 HD
ATOM     36  C   UNL     1       8.586  -4.025  24.689  0.00  0.00    +0.148 A 
ATOM     37  N   UNL     1       9.493  -3.303  23.959  0.00  0.00    -0.242 NA
ENDBRANCH  21  22
ENDBRANCH   1  21
TORSDOF 6
ENDMDL
MODEL 9
REMARK VINA RESULT:      -7.5      2.177      4.279
REMARK  Name = 
REMARK  7 active torsions:
REMARK  status: ('A' for Active; 'I' for Inactive)
REMARK    1  A    between atoms: C_1  and  O_2
REMARK    2  A    between atoms: O_2  and  C_3
REMARK    3  A    between atoms: C_3  and  C_5
REMARK    4  A    between atoms: C_11  and  C_13
REMARK    5  A    between atoms: C_16  and  N_17
REMARK    6  A    between atoms: N_17  and  C_18
REMARK    7  A    between atoms: C_18  and  C_19
REMARK                            x       y       z     vdW  Elec       q    Type
REMARK                         _______ _______ _______ _____ _____    ______ ____
ROOT
ATOM      1  N   UNL     1       4.953  -4.982  22.286  0.00  0.00    -0.338 N 
ATOM      2  H   UNL     1       3.958  -4.773  22.405  0.00  0.00    +0.146 HD
ENDROOT
BRANCH   1   6
ATOM      3  C   UNL     1       7.565  -2.016  23.773  0.00  0.00    +0.037 A 
ATOM      4  C   UNL     1       8.007  -2.978  22.865  0.00  0.00    +0.015 A 
ATOM      5  C   UNL     1       7.136  -3.971  22.410  0.00  0.00    +0.023 A 
ATOM      6  C   UNL     1       5.774  -3.934  22.719  0.00  0.00    +0.027 A 
ATOM      7  C   UNL     1       5.311  -2.895  23.533  0.00  0.00    +0.023 A 
ATOM      8  C   UNL     1       6.196  -1.945  24.056  0.00  0.00    +0.015 A 
BRANCH   3  13
ATOM      9  C   UNL     1       9.760   2.703  22.799  0.00  0.00    +0.101 C 
ATOM     10  C   UNL     1       8.859   1.762  22.003  0.00  0.00    +0.033 C 
ATOM     11  C   UNL     1       7.997   0.875  22.891  0.00  0.00    +0.109 C 
ATOM     12  N   UNL     1       8.740   0.214  23.965  0.00  0.00    -0.297 N 
ATOM     13  C   UNL     1       8.469  -1.065  24.486  0.00  0.00    +0.247 C 
ATOM     14  O   UNL     1       9.028  -1.492  25.498  0.00  0.00    -0.270 OA
ATOM     15  C   UNL     1       9.627   1.082  24.742  0.00  0.00    +0.109 C 
ATOM     16  C   UNL     1      10.545   1.904  23.839  0.00  0.00    +0.033 C 
BRANCH   9  17
ATOM     17  C   UNL     1       8.960   3.832  23.428  0.00  0.00    +0.310 C 
ATOM     18  O   UNL     1       9.258   4.411  24.461  0.00  0.00    -0.251 OA
BRANCH  17  20
ATOM     19  C   UNL     1       7.596   5.466  22.465  0.00  0.00    +0.280 C 
ATOM     20  O   UNL     1       7.840   4.078  22.693  0.00  0.00    -0.468 OA
ENDBRANCH  17  20
ENDBRANCH   9  17
ENDBRANCH   3  13
ENDBRANCH   1   6
BRANCH   1  21
ATOM     21  C   UNL     1       5.246  -6.311  22.820  0.00  0.00    +0.158 C 
BRANCH  21  22
ATOM     22  C   UNL     1       5.028  -6.336  24.317  0.00  0.00    +0.077 A 
ATOM     23  C   UNL     1       3.804  -6.708  24.842  0.00  0.00    +0.138 A 
ATOM     24  N   UNL     1       3.585  -6.835  26.172  0.00  0.00    -0.232 NA
ATOM     25  C   UNL     1       4.606  -6.594  27.005  0.00  0.00    +0.185 A 
ATOM     26  N   UNL     1       4.383  -6.755  28.306  0.00  0.00    -0.193 NA
ATOM     27  C   UNL     1       5.397  -6.549  29.134  0.00  0.00    +0.216 A 
ATOM     28  N   UNL     1       6.615  -6.155  28.770  0.00  0.00    -0.198 NA
ATOM     29  C   UNL     1       6.819  -6.001  27.450  0.00  0.00    +0.149 A 
ATOM     30  N   UNL     1       8.095  -5.533  27.090  0.00  0.00    -0.341 N 
ATOM     31  H   UNL     1       8.448  -6.018  26.271  0.00  0.00    +0.144 HD
ATOM     32  H   UNL     1       8.709  -5.570  27.898  0.00  0.00    +0.144 HD
ATOM     33  N   UNL     1       5.165  -6.729  30.482  0.00  0.00    -0.327 N 
ATOM     34  H   UNL     1       5.811  -6.180  31.032  0.00  0.00    +0.145 HD
ATOM     35  H   UNL     1       4.179  -6.631  30.686  0.00  0.00    +0.145 HD
ATOM     36  C   UNL     1       5.846  -6.210  26.482  0.00  0.00    +0.148 A 
ATOM     37  N   UNL     1       6.077  -6.085  25.137  0.00  0.00    -0.242 NA
ENDBRANCH  21  22
ENDBRANCH   1  21
TORSDOF 6
ENDMDL
