MODEL 1
REMARK VINA RESULT:      -7.4      0.000      0.000
REMARK  Name = 
REMARK  4 active torsions:
REMARK  status: ('A' for Active; 'I' for Inactive)
REMARK    1  A    between atoms: C_1  and  C_2
REMARK    2  A    between atoms: C_7  and  C_20
REMARK    3  A    between atoms: C_8  and  C_10
REMARK    4  A    between atoms: C_22  and  C_23
REMARK                            x       y       z     vdW  Elec       q    Type
REMARK                         _______ _______ _______ _____ _____    ______ ____
ROOT
ATOM      1  C   UNL     1       2.348   5.496  22.244  0.00  0.00    +0.109 C 
ATOM      2  C   UNL     1       3.651   4.945  22.754  0.00  0.00    +0.216 C 
ATOM      3  N   UNL     1       4.755   5.618  22.282  0.00  0.00    -0.256 N 
ATOM      4  H   UNL     1       4.678   6.589  22.007  0.00  0.00    +0.158 HD
ATOM      5  C   UNL     1       6.017   5.204  22.621  0.00  0.00    +0.200 A 
ATOM      6  N   UNL     1       6.375   3.896  22.791  0.00  0.00    -0.325 N 
ATOM      7  H   UNL     1       5.740   3.120  22.668  0.00  0.00    +0.169 HD
ATOM      8  C   UNL     1       7.731   3.828  23.049  0.00  0.00    +0.077 A 
ATOM      9  C   UNL     1       8.066   5.171  23.231  0.00  0.00    +0.117 A 
ATOM     10  N   UNL     1       7.039   5.998  22.799  0.00  0.00    -0.212 NA
ATOM     11  O   UNL     1       3.685   3.960  23.488  0.00  0.00    -0.276 OA
ENDROOT
BRANCH   8  12
ATOM     12  C   UNL     1       8.480   2.562  23.058  0.00  0.00    +0.003 A 
ATOM     13  C   UNL     1       8.301   1.614  24.074  0.00  0.00    +0.040 A 
ATOM     14  C   UNL     1       8.870   0.344  24.012  0.00  0.00    +0.090 A 
ATOM     15  C   UNL     1       9.701   0.009  22.918  0.00  0.00    +0.089 A 
ATOM     16  N   UNL     1      10.253  -1.214  22.798  0.00  0.00    -0.252 NA
ATOM     17  C   UNL     1       9.947  -2.103  23.766  0.00  0.00    +0.131 A 
ATOM     18  C   UNL     1       9.132  -1.782  24.831  0.00  0.00    +0.131 A 
ATOM     19  C   UNL     1       9.919   0.956  21.931  0.00  0.00    +0.030 A 
ATOM     20  N   UNL     1       8.589  -0.553  24.979  0.00  0.00    -0.252 NA
ATOM     21  C   UNL     1       9.304   2.208  21.979  0.00  0.00    +0.012 A 
ENDBRANCH   8  12
BRANCH   9  22
ATOM     22  C   UNL     1       9.278   5.725  23.818  0.00  0.00    +0.092 A 
ATOM     23  C   UNL     1       9.210   6.499  24.972  0.00  0.00    +0.033 A 
ATOM     24  C   UNL     1      10.392   6.889  25.598  0.00  0.00    +0.042 A 
ATOM     25  C   UNL     1      11.601   6.506  25.041  0.00  0.00    +0.144 A 
ATOM     26  F   UNL     1      12.750   6.865  25.634  0.00  0.00    -0.204 F 
ATOM     27  C   UNL     1      11.610   5.757  23.872  0.00  0.00    +0.074 A 
ATOM     28  C   UNL     1      12.909   5.382  23.225  0.00  0.00    +0.068 C 
ATOM     29  N   UNL     1      10.465   5.351  23.258  0.00  0.00    -0.247 NA
ENDBRANCH   9  22
TORSDOF 2
ENDMDL
MODEL 2
REMARK VINA RESULT:      -7.3      2.020      3.058
REMARK  Name = 
REMARK  4 active torsions:
REMARK  status: ('A' for Active; 'I' for Inactive)
REMARK    1  A    between atoms: C_1  and  C_2
REMARK    2  A    between atoms: C_7  and  C_20
REMARK    3  A    between atoms: C_8  and  C_10
REMARK    4  A    between atoms: C_22  and  C_23
REMARK                            x       y       z     vdW  Elec       q    Type
REMARK                         _______ _______ _______ _____ _____    ______ ____
ROOT
ATOM      1  C   UNL     1       1.733   4.089  22.120  0.00  0.00    +0.109 C 
ATOM      2  C   UNL     1       2.936   3.486  22.792  0.00  0.00    +0.216 C 
ATOM      3  N   UNL     1       4.081   3.548  22.030  0.00  0.00    -0.256 N 
ATOM      4  H   UNL     1       4.189   4.276  21.336  0.00  0.00    +0.158 HD
ATOM      5  C   UNL     1       5.250   2.998  22.489  0.00  0.00    +0.200 A 
ATOM      6  N   UNL     1       5.318   1.858  23.240  0.00  0.00    -0.325 N 
ATOM      7  H   UNL     1       4.509   1.316  23.512  0.00  0.00    +0.169 HD
ATOM      8  C   UNL     1       6.645   1.542  23.463  0.00  0.00    +0.077 A 
ATOM      9  C   UNL     1       7.304   2.677  22.988  0.00  0.00    +0.117 A 
ATOM     10  N   UNL     1       6.442   3.474  22.247  0.00  0.00    -0.212 NA
ATOM     11  O   UNL     1       2.853   2.960  23.900  0.00  0.00    -0.276 OA
ENDROOT
BRANCH   8  12
ATOM     12  C   UNL     1       7.073   0.259  24.041  0.00  0.00    +0.003 A 
ATOM     13  C   UNL     1       6.911  -0.947  23.346  0.00  0.00    +0.040 A 
ATOM     14  C   UNL     1       7.460  -2.144  23.800  0.00  0.00    +0.090 A 
ATOM     15  C   UNL     1       8.160  -2.164  25.029  0.00  0.00    +0.089 A 
ATOM     16  N   UNL     1       8.732  -3.290  25.498  0.00  0.00    -0.252 NA
ATOM     17  C   UNL     1       8.618  -4.386  24.718  0.00  0.00    +0.131 A 
ATOM     18  C   UNL     1       7.942  -4.368  23.516  0.00  0.00    +0.131 A 
ATOM     19  C   UNL     1       8.286  -0.985  25.744  0.00  0.00    +0.030 A 
ATOM     20  N   UNL     1       7.343  -3.253  23.041  0.00  0.00    -0.252 NA
ATOM     21  C   UNL     1       7.775   0.218  25.255  0.00  0.00    +0.012 A 
ENDBRANCH   8  12
BRANCH   9  22
ATOM     22  C   UNL     1       8.686   3.076  23.214  0.00  0.00    +0.092 A 
ATOM     23  C   UNL     1       9.728   2.216  22.884  0.00  0.00    +0.033 A 
ATOM     24  C   UNL     1      11.041   2.676  22.967  0.00  0.00    +0.042 A 
ATOM     25  C   UNL     1      11.267   3.976  23.391  0.00  0.00    +0.144 A 
ATOM     26  F   UNL     1      12.523   4.441  23.469  0.00  0.00    -0.204 F 
ATOM     27  C   UNL     1      10.190   4.782  23.734  0.00  0.00    +0.074 A 
ATOM     28  C   UNL     1      10.419   6.171  24.247  0.00  0.00    +0.068 C 
ATOM     29  N   UNL     1       8.901   4.354  23.640  0.00  0.00    -0.247 NA
ENDBRANCH   9  22
TORSDOF 2
ENDMDL
MODEL 3
REMARK VINA RESULT:      -7.2      4.172      5.808
REMARK  Name = 
REMARK  4 active torsions:
REMARK  status: ('A' for Active; 'I' for Inactive)
REMARK    1  A    between atoms: C_1  and  C_2
REMARK    2  A    between atoms: C_7  and  C_20
REMARK    3  A    between atoms: C_8  and  C_10
REMARK    4  A    between atoms: C_22  and  C_23
REMARK                            x       y       z     vdW  Elec       q    Type
REMARK                         _______ _______ _______ _____ _____    ______ ____
ROOT
ATOM      1  C   UNL     1       2.570   1.623  28.916  0.00  0.00    +0.109 C 
ATOM      2  C   UNL     1       3.629   0.898  28.132  0.00  0.00    +0.216 C 
ATOM      3  N   UNL     1       3.810   1.395  26.861  0.00  0.00    -0.256 N 
ATOM      4  H   UNL     1       3.588   2.361  26.659  0.00  0.00    +0.158 HD
ATOM      5  C   UNL     1       4.709   0.809  26.009  0.00  0.00    +0.200 A 
ATOM      6  N   UNL     1       4.960  -0.534  25.964  0.00  0.00    -0.325 N 
ATOM      7  H   UNL     1       4.494  -1.212  26.550  0.00  0.00    +0.169 HD
ATOM      8  C   UNL     1       5.856  -0.793  24.944  0.00  0.00    +0.077 A 
ATOM      9  C   UNL     1       6.256   0.491  24.568  0.00  0.00    +0.117 A 
ATOM     10  N   UNL     1       5.417   1.450  25.117  0.00  0.00    -0.212 NA
ATOM     11  O   UNL     1       4.226  -0.068  28.604  0.00  0.00    -0.276 OA
ENDROOT
BRANCH   8  12
ATOM     12  C   UNL     1       6.165  -2.154  24.479  0.00  0.00    +0.003 A 
ATOM     13  C   UNL     1       5.694  -2.630  23.248  0.00  0.00    +0.040 A 
ATOM     14  C   UNL     1       6.114  -3.847  22.714  0.00  0.00    +0.090 A 
ATOM     15  C   UNL     1       7.001  -4.660  23.457  0.00  0.00    +0.089 A 
ATOM     16  N   UNL     1       7.456  -5.833  22.974  0.00  0.00    -0.252 NA
ATOM     17  C   UNL     1       7.036  -6.171  21.737  0.00  0.00    +0.131 A 
ATOM     18  C   UNL     1       6.176  -5.377  21.008  0.00  0.00    +0.131 A 
ATOM     19  C   UNL     1       7.435  -4.217  24.695  0.00  0.00    +0.030 A 
ATOM     20  N   UNL     1       5.692  -4.209  21.486  0.00  0.00    -0.252 NA
ATOM     21  C   UNL     1       7.048  -2.973  25.196  0.00  0.00    +0.012 A 
ENDBRANCH   8  12
BRANCH   9  22
ATOM     22  C   UNL     1       7.399   0.874  23.752  0.00  0.00    +0.092 A 
ATOM     23  C   UNL     1       7.207   1.487  22.517  0.00  0.00    +0.033 A 
ATOM     24  C   UNL     1       8.310   1.981  21.825  0.00  0.00    +0.042 A 
ATOM     25  C   UNL     1       9.570   1.832  22.383  0.00  0.00    +0.144 A 
ATOM     26  F   UNL     1      10.644   2.309  21.735  0.00  0.00    -0.204 F 
ATOM     27  C   UNL     1       9.706   1.188  23.605  0.00  0.00    +0.074 A 
ATOM     28  C   UNL     1      11.066   0.969  24.196  0.00  0.00    +0.068 C 
ATOM     29  N   UNL     1       8.637   0.717  24.303  0.00  0.00    -0.247 NA
ENDBRANCH   9  22
TORSDOF 2
ENDMDL
MODEL 4
REMARK VINA RESULT:      -7.0      4.165      7.083
REMARK  Name = 
REMARK  4 active torsions:
REMARK  status: ('A' for Active; 'I' for Inactive)
REMARK    1  A    between atoms: C_1  and  C_2
REMARK    2  A    between atoms: C_7  and  C_20
REMARK    3  A    between atoms: C_8  and  C_10
REMARK    4  A    between atoms: C_22  and  C_23
REMARK                            x       y       z     vdW  Elec       q    Type
REMARK                         _______ _______ _______ _____ _____    ______ ____
ROOT
ATOM      1  C   UNL     1       6.101  -5.983  21.093  0.00  0.00    +0.109 C 
ATOM      2  C   UNL     1       6.080  -4.711  21.895  0.00  0.00    +0.216 C 
ATOM      3  N   UNL     1       7.317  -4.344  22.376  0.00  0.00    -0.256 N 
ATOM      4  H   UNL     1       8.155  -4.635  21.892  0.00  0.00    +0.158 HD
ATOM      5  C   UNL     1       7.451  -3.230  23.165  0.00  0.00    +0.200 A 
ATOM      6  N   UNL     1       6.517  -2.817  24.073  0.00  0.00    -0.325 N 
ATOM      7  H   UNL     1       5.650  -3.306  24.249  0.00  0.00    +0.169 HD
ATOM      8  C   UNL     1       7.001  -1.713  24.749  0.00  0.00    +0.077 A 
ATOM      9  C   UNL     1       8.152  -1.403  24.023  0.00  0.00    +0.117 A 
ATOM     10  N   UNL     1       8.492  -2.442  23.169  0.00  0.00    -0.212 NA
ATOM     11  O   UNL     1       5.031  -4.109  22.111  0.00  0.00    -0.276 OA
ENDROOT
BRANCH   8  12
ATOM     12  C   UNL     1       6.347  -1.158  25.944  0.00  0.00    +0.003 A 
ATOM     13  C   UNL     1       7.064  -0.413  26.890  0.00  0.00    +0.040 A 
ATOM     14  C   UNL     1       6.434   0.261  27.934  0.00  0.00    +0.090 A 
ATOM     15  C   UNL     1       5.032   0.151  28.085  0.00  0.00    +0.089 A 
ATOM     16  N   UNL     1       4.374   0.804  29.062  0.00  0.00    -0.252 NA
ATOM     17  C   UNL     1       5.124   1.584  29.868  0.00  0.00    +0.131 A 
ATOM     18  C   UNL     1       6.490   1.698  29.720  0.00  0.00    +0.131 A 
ATOM     19  C   UNL     1       4.322  -0.621  27.181  0.00  0.00    +0.030 A 
ATOM     20  N   UNL     1       7.170   1.033  28.760  0.00  0.00    -0.252 NA
ATOM     21  C   UNL     1       4.957  -1.250  26.110  0.00  0.00    +0.012 A 
ENDBRANCH   8  12
BRANCH   9  22
ATOM     22  C   UNL     1       8.934  -0.175  24.058  0.00  0.00    +0.092 A 
ATOM     23  C   UNL     1      10.253  -0.194  24.502  0.00  0.00    +0.033 A 
ATOM     24  C   UNL     1      11.026   0.958  24.383  0.00  0.00    +0.042 A 
ATOM     25  C   UNL     1      10.451   2.096  23.840  0.00  0.00    +0.144 A 
ATOM     26  F   UNL     1      11.182   3.213  23.709  0.00  0.00    -0.204 F 
ATOM     27  C   UNL     1       9.122   2.067  23.439  0.00  0.00    +0.074 A 
ATOM     28  C   UNL     1       8.468   3.303  22.901  0.00  0.00    +0.068 C 
ATOM     29  N   UNL     1       8.358   0.944  23.530  0.00  0.00    -0.247 NA
ENDBRANCH   9  22
TORSDOF 2
ENDMDL
MODEL 5
REMARK VINA RESULT:      -6.9      3.339      7.123
REMARK  Name = 
REMARK  4 active torsions:
REMARK  status: ('A' for Active; 'I' for Inactive)
REMARK    1  A    between atoms: C_1  and  C_2
REMARK    2  A    between atoms: C_7  and  C_20
REMARK    3  A    between atoms: C_8  and  C_10
REMARK    4  A    between atoms: C_22  and  C_23
REMARK                            x       y       z     vdW  Elec       q    Type
REMARK                         _______ _______ _______ _____ _____    ______ ____
ROOT
ATOM      1  C   UNL     1      13.065   5.671  22.723  0.00  0.00    +0.109 C 
ATOM      2  C   UNL     1      11.876   5.005  23.359  0.00  0.00    +0.216 C 
ATOM      3  N   UNL     1      11.655   3.724  22.906  0.00  0.00    -0.256 N 
ATOM      4  H   UNL     1      12.423   3.174  22.546  0.00  0.00    +0.158 HD
ATOM      5  C   UNL     1      10.580   3.004  23.360  0.00  0.00    +0.200 A 
ATOM      6  N   UNL     1       9.363   3.550  23.661  0.00  0.00    -0.325 N 
ATOM      7  H   UNL     1       9.149   4.533  23.563  0.00  0.00    +0.169 HD
ATOM      8  C   UNL     1       8.488   2.539  24.011  0.00  0.00    +0.077 A 
ATOM      9  C   UNL     1       9.335   1.433  24.102  0.00  0.00    +0.117 A 
ATOM     10  N   UNL     1      10.571   1.710  23.536  0.00  0.00    -0.212 NA
ATOM     11  O   UNL     1      11.172   5.597  24.174  0.00  0.00    -0.276 OA
ENDROOT
BRANCH   8  12
ATOM     12  C   UNL     1       7.042   2.755  24.174  0.00  0.00    +0.003 A 
ATOM     13  C   UNL     1       6.227   3.093  23.085  0.00  0.00    +0.040 A 
ATOM     14  C   UNL     1       4.838   3.135  23.185  0.00  0.00    +0.090 A 
ATOM     15  C   UNL     1       4.224   2.884  24.434  0.00  0.00    +0.089 A 
ATOM     16  N   UNL     1       2.885   2.888  24.577  0.00  0.00    -0.252 NA
ATOM     17  C   UNL     1       2.167   3.119  23.458  0.00  0.00    +0.131 A 
ATOM     18  C   UNL     1       2.762   3.358  22.237  0.00  0.00    +0.131 A 
ATOM     19  C   UNL     1       5.026   2.594  25.525  0.00  0.00    +0.030 A 
ATOM     20  N   UNL     1       4.105   3.381  22.080  0.00  0.00    -0.252 NA
ATOM     21  C   UNL     1       6.414   2.505  25.402  0.00  0.00    +0.012 A 
ENDBRANCH   8  12
BRANCH   9  22
ATOM     22  C   UNL     1       9.065   0.141  24.717  0.00  0.00    +0.092 A 
ATOM     23  C   UNL     1       8.912   0.038  26.096  0.00  0.00    +0.033 A 
ATOM     24  C   UNL     1       8.505  -1.176  26.645  0.00  0.00    +0.042 A 
ATOM     25  C   UNL     1       8.280  -2.250  25.799  0.00  0.00    +0.144 A 
ATOM     26  F   UNL     1       7.878  -3.425  26.308  0.00  0.00    -0.204 F 
ATOM     27  C   UNL     1       8.475  -2.098  24.433  0.00  0.00    +0.074 A 
ATOM     28  C   UNL     1       8.290  -3.263  23.509  0.00  0.00    +0.068 C 
ATOM     29  N   UNL     1       8.853  -0.914  23.878  0.00  0.00    -0.247 NA
ENDBRANCH   9  22
TORSDOF 2
ENDMDL
MODEL 6
REMARK VINA RESULT:      -6.9      3.354      5.557
REMARK  Name = 
REMARK  4 active torsions:
REMARK  status: ('A' for Active; 'I' for Inactive)
REMARK    1  A    between atoms: C_1  and  C_2
REMARK    2  A    between atoms: C_7  and  C_20
REMARK    3  A    between atoms: C_8  and  C_10
REMARK    4  A    between atoms: C_22  and  C_23
REMARK                            x       y       z     vdW  Elec       q    Type
REMARK                         _______ _______ _______ _____ _____    ______ ____
ROOT
ATOM      1  C   UNL     1      13.837   6.668  22.235  0.00  0.00    +0.109 C 
ATOM      2  C   UNL     1      12.833   5.547  22.212  0.00  0.00    +0.216 C 
ATOM      3  N   UNL     1      11.875   5.647  23.195  0.00  0.00    -0.256 N 
ATOM      4  H   UNL     1      11.629   6.552  23.574  0.00  0.00    +0.158 HD
ATOM      5  C   UNL     1      10.918   4.675  23.331  0.00  0.00    +0.200 A 
ATOM      6  N   UNL     1      11.138   3.345  23.104  0.00  0.00    -0.325 N 
ATOM      7  H   UNL     1      12.032   2.963  22.827  0.00  0.00    +0.169 HD
ATOM      8  C   UNL     1       9.990   2.638  23.408  0.00  0.00    +0.077 A 
ATOM      9  C   UNL     1       9.057   3.658  23.605  0.00  0.00    +0.117 A 
ATOM     10  N   UNL     1       9.688   4.889  23.718  0.00  0.00    -0.212 NA
ATOM     11  O   UNL     1      12.920   4.628  21.400  0.00  0.00    -0.276 OA
ENDROOT
BRANCH   8  12
ATOM     12  C   UNL     1       9.954   1.170  23.491  0.00  0.00    +0.003 A 
ATOM     13  C   UNL     1       9.553   0.514  24.663  0.00  0.00    +0.040 A 
ATOM     14  C   UNL     1       9.351  -0.864  24.708  0.00  0.00    +0.090 A 
ATOM     15  C   UNL     1       9.608  -1.641  23.555  0.00  0.00    +0.089 A 
ATOM     16  N   UNL     1       9.403  -2.973  23.540  0.00  0.00    -0.252 NA
ATOM     17  C   UNL     1       8.917  -3.513  24.677  0.00  0.00    +0.131 A 
ATOM     18  C   UNL     1       8.659  -2.758  25.801  0.00  0.00    +0.131 A 
ATOM     19  C   UNL     1      10.048  -1.005  22.406  0.00  0.00    +0.030 A 
ATOM     20  N   UNL     1       8.880  -1.425  25.841  0.00  0.00    -0.252 NA
ATOM     21  C   UNL     1      10.199   0.381  22.358  0.00  0.00    +0.012 A 
ENDBRANCH   8  12
BRANCH   9  22
ATOM     22  C   UNL     1       7.606   3.552  23.660  0.00  0.00    +0.092 A 
ATOM     23  C   UNL     1       6.854   3.583  22.490  0.00  0.00    +0.033 A 
ATOM     24  C   UNL     1       5.486   3.328  22.556  0.00  0.00    +0.042 A 
ATOM     25  C   UNL     1       4.913   3.066  23.790  0.00  0.00    +0.144 A 
ATOM     26  F   UNL     1       3.599   2.810  23.872  0.00  0.00    -0.204 F 
ATOM     27  C   UNL     1       5.707   3.076  24.929  0.00  0.00    +0.074 A 
ATOM     28  C   UNL     1       5.095   2.850  26.278  0.00  0.00    +0.068 C 
ATOM     29  N   UNL     1       7.048   3.304  24.881  0.00  0.00    -0.247 NA
ENDBRANCH   9  22
TORSDOF 2
ENDMDL
MODEL 7
REMARK VINA RESULT:      -6.7      3.442      7.013
REMARK  Name = 
REMARK  4 active torsions:
REMARK  status: ('A' for Active; 'I' for Inactive)
REMARK    1  A    between atoms: C_1  and  C_2
REMARK    2  A    between atoms: C_7  and  C_20
REMARK    3  A    between atoms: C_8  and  C_10
REMARK    4  A    between atoms: C_22  and  C_23
REMARK                            x       y       z     vdW  Elec       q    Type
REMARK                         _______ _______ _______ _____ _____    ______ ____
ROOT
ATOM      1  C   UNL     1      12.738   5.905  23.201  0.00  0.00    +0.109 C 
ATOM      2  C   UNL     1      11.530   5.128  23.649  0.00  0.00    +0.216 C 
ATOM      3  N   UNL     1      11.481   3.847  23.147  0.00  0.00    -0.256 N 
ATOM      4  H   UNL     1      12.336   3.371  22.892  0.00  0.00    +0.158 HD
ATOM      5  C   UNL     1      10.417   3.032  23.430  0.00  0.00    +0.200 A 
ATOM      6  N   UNL     1       9.129   3.470  23.563  0.00  0.00    -0.325 N 
ATOM      7  H   UNL     1       8.850   4.435  23.452  0.00  0.00    +0.169 HD
ATOM      8  C   UNL     1       8.300   2.383  23.767  0.00  0.00    +0.077 A 
ATOM      9  C   UNL     1       9.214   1.346  23.959  0.00  0.00    +0.117 A 
ATOM     10  N   UNL     1      10.491   1.736  23.581  0.00  0.00    -0.212 NA
ATOM     11  O   UNL     1      10.671   5.639  24.365  0.00  0.00    -0.276 OA
ENDROOT
BRANCH   8  12
ATOM     12  C   UNL     1       6.833   2.479  23.725  0.00  0.00    +0.003 A 
ATOM     13  C   UNL     1       6.054   2.266  24.871  0.00  0.00    +0.040 A 
ATOM     14  C   UNL     1       4.683   2.517  24.892  0.00  0.00    +0.090 A 
ATOM     15  C   UNL     1       4.039   2.948  23.709  0.00  0.00    +0.089 A 
ATOM     16  N   UNL     1       2.722   3.229  23.685  0.00  0.00    -0.252 NA
ATOM     17  C   UNL     1       2.063   3.099  24.856  0.00  0.00    +0.131 A 
ATOM     18  C   UNL     1       2.689   2.684  26.012  0.00  0.00    +0.131 A 
ATOM     19  C   UNL     1       4.794   3.118  22.561  0.00  0.00    +0.030 A 
ATOM     20  N   UNL     1       4.005   2.376  26.049  0.00  0.00    -0.252 NA
ATOM     21  C   UNL     1       6.175   2.911  22.565  0.00  0.00    +0.012 A 
ENDBRANCH   8  12
BRANCH   9  22
ATOM     22  C   UNL     1       8.968   0.019  24.507  0.00  0.00    +0.092 A 
ATOM     23  C   UNL     1       8.973  -0.184  25.884  0.00  0.00    +0.033 A 
ATOM     24  C   UNL     1       8.586  -1.424  26.388  0.00  0.00    +0.042 A 
ATOM     25  C   UNL     1       8.221  -2.423  25.499  0.00  0.00    +0.144 A 
ATOM     26  F   UNL     1       7.837  -3.620  25.966  0.00  0.00    -0.204 F 
ATOM     27  C   UNL     1       8.261  -2.173  24.134  0.00  0.00    +0.074 A 
ATOM     28  C   UNL     1       7.924  -3.258  23.158  0.00  0.00    +0.068 C 
ATOM     29  N   UNL     1       8.618  -0.962  23.626  0.00  0.00    -0.247 NA
ENDBRANCH   9  22
TORSDOF 2
ENDMDL
MODEL 8
REMARK VINA RESULT:      -6.5      6.223      9.081
REMARK  Name = 
REMARK  4 active torsions:
REMARK  status: ('A' for Active; 'I' for Inactive)
REMARK    1  A    between atoms: C_1  and  C_2
REMARK    2  A    between atoms: C_7  and  C_20
REMARK    3  A    between atoms: C_8  and  C_10
REMARK    4  A    between atoms: C_22  and  C_23
REMARK                            x       y       z     vdW  Elec       q    Type
REMARK                         _______ _______ _______ _____ _____    ______ ____
ROOT
ATOM      1  C   UNL     1       1.284  -8.562  23.782  0.00  0.00    +0.109 C 
ATOM      2  C   UNL     1       2.393  -7.652  24.232  0.00  0.00    +0.216 C 
ATOM      3  N   UNL     1       2.054  -6.317  24.205  0.00  0.00    -0.256 N 
ATOM      4  H   UNL     1       1.087  -6.038  24.300  0.00  0.00    +0.158 HD
ATOM      5  C   UNL     1       2.976  -5.361  24.545  0.00  0.00    +0.200 A 
ATOM      6  N   UNL     1       4.312  -5.452  24.269  0.00  0.00    -0.325 N 
ATOM      7  H   UNL     1       4.732  -6.230  23.779  0.00  0.00    +0.169 HD
ATOM      8  C   UNL     1       4.937  -4.288  24.675  0.00  0.00    +0.077 A 
ATOM      9  C   UNL     1       3.925  -3.641  25.386  0.00  0.00    +0.117 A 
ATOM     10  N   UNL     1       2.695  -4.236  25.147  0.00  0.00    -0.212 NA
ATOM     11  O   UNL     1       3.495  -8.094  24.548  0.00  0.00    -0.276 OA
ENDROOT
BRANCH   8  12
ATOM     12  C   UNL     1       6.329  -3.965  24.323  0.00  0.00    +0.003 A 
ATOM     13  C   UNL     1       6.631  -3.056  23.300  0.00  0.00    +0.040 A 
ATOM     14  C   UNL     1       7.929  -2.609  23.065  0.00  0.00    +0.090 A 
ATOM     15  C   UNL     1       8.991  -3.126  23.843  0.00  0.00    +0.089 A 
ATOM     16  N   UNL     1      10.260  -2.707  23.672  0.00  0.00    -0.252 NA
ATOM     17  C   UNL     1      10.453  -1.753  22.737  0.00  0.00    +0.131 A 
ATOM     18  C   UNL     1       9.418  -1.243  21.981  0.00  0.00    +0.131 A 
ATOM     19  C   UNL     1       8.706  -4.058  24.826  0.00  0.00    +0.030 A 
ATOM     20  N   UNL     1       8.143  -1.668  22.123  0.00  0.00    -0.252 NA
ATOM     21  C   UNL     1       7.395  -4.461  25.086  0.00  0.00    +0.012 A 
ENDBRANCH   8  12
BRANCH   9  22
ATOM     22  C   UNL     1       4.048  -2.515  26.302  0.00  0.00    +0.092 A 
ATOM     23  C   UNL     1       3.920  -2.709  27.674  0.00  0.00    +0.033 A 
ATOM     24  C   UNL     1       4.191  -1.650  28.537  0.00  0.00    +0.042 A 
ATOM     25  C   UNL     1       4.566  -0.429  28.000  0.00  0.00    +0.144 A 
ATOM     26  F   UNL     1       4.840   0.600  28.816  0.00  0.00    -0.204 F 
ATOM     27  C   UNL     1       4.650  -0.284  26.622  0.00  0.00    +0.074 A 
ATOM     28  C   UNL     1       4.999   1.044  26.022  0.00  0.00    +0.068 C 
ATOM     29  N   UNL     1       4.408  -1.314  25.765  0.00  0.00    -0.247 NA
ENDBRANCH   9  22
TORSDOF 2
ENDMDL
MODEL 9
REMARK VINA RESULT:      -6.5      4.645      7.335
REMARK  Name = 
REMARK  4 active torsions:
REMARK  status: ('A' for Active; 'I' for Inactive)
REMARK    1  A    between atoms: C_1  and  C_2
REMARK    2  A    between atoms: C_7  and  C_20
REMARK    3  A    between atoms: C_8  and  C_10
REMARK    4  A    between atoms: C_22  and  C_23
REMARK                            x       y       z     vdW  Elec       q    Type
REMARK                         _______ _______ _______ _____ _____    ______ ____
ROOT
ATOM      1  C   UNL     1      11.263   3.526  23.165  0.00  0.00    +0.109 C 
ATOM      2  C   UNL     1      10.208   2.457  23.231  0.00  0.00    +0.216 C 
ATOM      3  N   UNL     1       9.820   2.145  24.515  0.00  0.00    -0.256 N 
ATOM      4  H   UNL     1       9.904   2.833  25.251  0.00  0.00    +0.158 HD
ATOM      5  C   UNL     1       8.898   1.156  24.740  0.00  0.00    +0.200 A 
ATOM      6  N   UNL     1       8.798   0.016  23.992  0.00  0.00    -0.325 N 
ATOM      7  H   UNL     1       9.406  -0.200  23.214  0.00  0.00    +0.169 HD
ATOM      8  C   UNL     1       7.822  -0.798  24.536  0.00  0.00    +0.077 A 
ATOM      9  C   UNL     1       7.235   0.039  25.487  0.00  0.00    +0.117 A 
ATOM     10  N   UNL     1       8.020   1.162  25.707  0.00  0.00    -0.212 NA
ATOM     11  O   UNL     1       9.786   1.910  22.214  0.00  0.00    -0.276 OA
ENDROOT
BRANCH   8  12
ATOM     12  C   UNL     1       7.616  -2.191  24.112  0.00  0.00    +0.003 A 
ATOM     13  C   UNL     1       6.795  -2.509  23.021  0.00  0.00    +0.040 A 
ATOM     14  C   UNL     1       6.722  -3.800  22.501  0.00  0.00    +0.090 A 
ATOM     15  C   UNL     1       7.454  -4.840  23.119  0.00  0.00    +0.089 A 
ATOM     16  N   UNL     1       7.437  -6.098  22.639  0.00  0.00    -0.252 NA
ATOM     17  C   UNL     1       6.704  -6.300  21.524  0.00  0.00    +0.131 A 
ATOM     18  C   UNL     1       5.994  -5.287  20.915  0.00  0.00    +0.131 A 
ATOM     19  C   UNL     1       8.233  -4.542  24.225  0.00  0.00    +0.030 A 
ATOM     20  N   UNL     1       5.981  -4.024  21.397  0.00  0.00    -0.252 NA
ATOM     21  C   UNL     1       8.338  -3.236  24.707  0.00  0.00    +0.012 A 
ENDBRANCH   8  12
BRANCH   9  22
ATOM     22  C   UNL     1       5.966  -0.137  26.180  0.00  0.00    +0.092 A 
ATOM     23  C   UNL     1       5.734  -1.277  26.942  0.00  0.00    +0.033 A 
ATOM     24  C   UNL     1       4.578  -1.353  27.716  0.00  0.00    +0.042 A 
ATOM     25  C   UNL     1       3.686  -0.293  27.689  0.00  0.00    +0.144 A 
ATOM     26  F   UNL     1       2.571  -0.343  28.434  0.00  0.00    -0.204 F 
ATOM     27  C   UNL     1       3.955   0.809  26.888  0.00  0.00    +0.074 A 
ATOM     28  C   UNL     1       2.975   1.939  26.804  0.00  0.00    +0.068 C 
ATOM     29  N   UNL     1       5.089   0.907  26.142  0.00  0.00    -0.247 NA
ENDBRANCH   9  22
TORSDOF 2
ENDMDL
