MODEL 1
REMARK VINA RESULT:       4.3      0.000      0.000
REMARK  Name = 
REMARK  48 active torsions:
REMARK  status: ('A' for Active; 'I' for Inactive)
REMARK    1  A    between atoms: C_1  and  C_2
REMARK    2  A    between atoms: C_2  and  C_3
REMARK    3  A    between atoms: C_2  and  C_4
REMARK    4  A    between atoms: C_4  and  C_5
REMARK    5  A    between atoms: C_5  and  N_7
REMARK    6  A    between atoms: C_5  and  C_99
REMARK    7  A    between atoms: C_8  and  C_10
REMARK    8  A    between atoms: C_10  and  C_12
REMARK    9  A    between atoms: C_10  and  N_23
REMARK   10  A    between atoms: C_12  and  C_13
REMARK   11  A    between atoms: C_16  and  N_17
REMARK   12  A    between atoms: C_24  and  C_26
REMARK   13  A    between atoms: C_26  and  C_28
REMARK   14  A    between atoms: C_26  and  N_47
REMARK   15  A    between atoms: C_28  and  C_29
REMARK   16  A    between atoms: C_32  and  N_33
REMARK   17  A    between atoms: C_34  and  C_36
REMARK   18  A    between atoms: C_48  and  CA_50
REMARK   19  A    between atoms: CA_50  and  C_52
REMARK   20  A    between atoms: CA_50  and  N_54
REMARK   21  A    between atoms: C_52  and  O_53
REMARK   22  A    between atoms: C_55  and  CA_57
REMARK   23  A    between atoms: CA_57  and  C_59
REMARK   24  A    between atoms: CA_57  and  N_66
REMARK   25  A    between atoms: C_59  and  C_60
REMARK   26  A    between atoms: C_67  and  CA_69
REMARK   27  A    between atoms: CA_69  and  C_71
REMARK   28  A    between atoms: CA_69  and  N_79
REMARK   29  A    between atoms: C_71  and  C_72
REMARK   30  A    between atoms: C_80  and  CA_82
REMARK   31  A    between atoms: CA_82  and  C_84
REMARK   32  A    between atoms: CA_82  and  N_95
REMARK   33  A    between atoms: C_84  and  C_85
REMARK   34  A    between atoms: C_96  and  C_97
REMARK   35  A    between atoms: N_101  and  C_102
REMARK   36  A    between atoms: C_102  and  C_104
REMARK   37  A    between atoms: C_102  and  C_112
REMARK   38  A    between atoms: C_104  and  C_105
REMARK   39  A    between atoms: C_105  and  C_106
REMARK   40  A    between atoms: C_106  and  C_107
REMARK   41  A    between atoms: C_107  and  N_108
REMARK   42  A    between atoms: N_108  and  C_109
REMARK   43  A    between atoms: C_109  and  C_110
REMARK   44  A    between atoms: C_109  and  C_111
REMARK   45  A    between atoms: C_118  and  C_119
REMARK   46  A    between atoms: N_121  and  C_122
REMARK   47  A    between atoms: C_122  and  C_124
REMARK   48  A    between atoms: C_122  and  C_125
REMARK                            x       y       z     vdW  Elec       q    Type
REMARK                         _______ _______ _______ _____ _____    ______ ____
ROOT
ATOM      1  C   UNL     1       8.762  -4.855  24.372  0.00  0.00    +0.163 C 
ENDROOT
BRANCH   1   2
ATOM      2  N   UNL     1       8.677  -5.199  25.874  0.00  0.00    -0.302 N 
ATOM      3  H   UNL     1       8.764  -6.219  25.965  0.00  0.00    +0.150 HD
ATOM      4  C   UNL     1       7.553  -4.944  26.551  0.00  0.00    +0.236 C 
ATOM      5  O   UNL     1       6.558  -4.755  25.880  0.00  0.00    -0.274 OA
BRANCH   4   6
ATOM      6  CA  UNL     1       7.339  -4.903  28.045  0.00  0.00    +0.184 C 
BRANCH   6   7
ATOM      7  N   UNL     1       6.668  -3.611  28.243  0.00  0.00    -0.301 N 
ATOM      8  H   UNL     1       6.055  -3.625  29.053  0.00  0.00    +0.150 HD
ATOM      9  C   UNL     1       6.979  -2.452  27.597  0.00  0.00    +0.234 C 
ATOM     10  O   UNL     1       7.641  -2.449  26.560  0.00  0.00    -0.274 OA
BRANCH   9  11
ATOM     11  CA  UNL     1       6.541  -1.109  28.245  0.00  0.00    +0.163 C 
BRANCH  11  12
ATOM     12  N   UNL     1       4.973  -1.132  28.431  0.00  0.00    -0.302 N 
ATOM     13  H   UNL     1       4.518  -1.730  27.760  0.00  0.00    +0.150 HD
ATOM     14  C   UNL     1       4.062  -0.132  28.845  0.00  0.00    +0.234 C 
ATOM     15  O   UNL     1       4.401   1.036  29.059  0.00  0.00    -0.274 OA
BRANCH  14  16
ATOM     16  CA  UNL     1       2.476  -0.521  29.172  0.00  0.00    +0.163 C 
BRANCH  16  17
ATOM     17  N   UNL     1       1.506   0.590  29.015  0.00  0.00    -0.302 N 
ATOM     18  H   UNL     1       0.750   0.401  28.370  0.00  0.00    +0.150 HD
ATOM     19  C   UNL     1       1.620   1.803  29.635  0.00  0.00    +0.234 C 
ATOM     20  O   UNL     1       2.501   1.935  30.479  0.00  0.00    -0.274 OA
BRANCH  19  21
ATOM     21  CA  UNL     1       0.566   2.960  29.351  0.00  0.00    +0.163 C 
BRANCH  21  22
ATOM     22  N   UNL     1       0.516   3.076  27.688  0.00  0.00    -0.304 N 
ATOM     23  H   UNL     1      -0.403   2.686  27.630  0.00  0.00    +0.149 HD
ATOM     24  C   UNL     1       1.113   3.770  26.426  0.00  0.00    +0.211 C 
ATOM     25  O   UNL     1       1.964   4.642  26.377  0.00  0.00    -0.276 OA
ATOM     26  C   UNL     1       0.949   3.343  24.892  0.00  0.00    +0.109 C 
ENDBRANCH  21  22
BRANCH  21  27
ATOM     27  C   UNL     1       1.096   4.261  30.083  0.00  0.00    +0.067 C 
BRANCH  27  28
ATOM     28  C   UNL     1       2.405   4.898  29.621  0.00  0.00    -0.045 A 
ATOM     29  C   UNL     1       3.075   5.895  30.335  0.00  0.00    +0.004 A 
ATOM     30  C   UNL     1       4.438   6.112  30.113  0.00  0.00    +0.009 A 
ATOM     31  C   UNL     1       5.142   5.288  29.224  0.00  0.00    -0.018 A 
ATOM     32  C   UNL     1       4.424   4.417  28.378  0.00  0.00    -0.018 A 
ATOM     33  C   UNL     1       5.106   3.537  27.532  0.00  0.00    +0.008 A 
ATOM     34  C   UNL     1       6.488   3.404  27.640  0.00  0.00    +0.001 A 
ATOM     35  C   UNL     1       7.204   4.247  28.488  0.00  0.00    +0.001 A 
ATOM     36  C   UNL     1       6.542   5.230  29.226  0.00  0.00    +0.008 A 
ATOM     37  C   UNL     1       3.040   4.320  28.510  0.00  0.00    +0.012 A 
ENDBRANCH  27  28
ENDBRANCH  21  27
ENDBRANCH  19  21
ENDBRANCH  16  17
BRANCH  16  38
ATOM     38  C   UNL     1       2.022  -1.343  30.412  0.00  0.00    +0.067 C 
BRANCH  38  39
ATOM     39  C   UNL     1       2.398  -2.809  30.442  0.00  0.00    -0.045 A 
ATOM     40  C   UNL     1       1.414  -3.794  30.469  0.00  0.00    +0.005 A 
ATOM     41  C   UNL     1       1.739  -5.124  30.215  0.00  0.00    +0.020 A 
ATOM     42  C   UNL     1       3.046  -5.473  29.888  0.00  0.00    +0.041 A 
ATOM     43 CL   UNL     1       3.412  -7.082  29.418  0.00  0.00    -0.084 Cl
ATOM     44  C   UNL     1       4.054  -4.521  29.942  0.00  0.00    +0.020 A 
ATOM     45  C   UNL     1       3.742  -3.227  30.359  0.00  0.00    +0.005 A 
ENDBRANCH  38  39
ENDBRANCH  16  38
ENDBRANCH  14  16
ENDBRANCH  11  12
BRANCH  11  46
ATOM     46  C   UNL     1       7.357   0.185  27.554  0.00  0.00    +0.068 C 
BRANCH  46  47
ATOM     47  C   UNL     1       8.432   0.305  26.445  0.00  0.00    -0.027 A 
ATOM     48  C   UNL     1       9.772  -0.063  26.589  0.00  0.00    +0.006 A 
ATOM     49  C   UNL     1      10.730   0.322  25.636  0.00  0.00    +0.020 A 
ATOM     50  C   UNL     1      10.347   1.039  24.509  0.00  0.00    +0.111 A 
ATOM     51  N   UNL     1       9.056   1.341  24.269  0.00  0.00    -0.263 NA
ATOM     52  C   UNL     1       8.134   0.972  25.214  0.00  0.00    +0.114 A 
ENDBRANCH  46  47
ENDBRANCH  11  46
ENDBRANCH   9  11
ENDBRANCH   6   7
BRANCH   6  53
ATOM     53  C   UNL     1       6.795  -6.190  28.600  0.00  0.00    +0.187 C 
BRANCH  53  54
ATOM     54  O   UNL     1       6.498  -6.017  29.994  0.00  0.00    -0.393 OA
ATOM     55  H   UNL     1       6.033  -6.826  30.285  0.00  0.00    +0.209 HD
ENDBRANCH  53  54
ENDBRANCH   6  53
ENDBRANCH   4   6
ENDBRANCH   1   2
BRANCH   1  58
ATOM     56  N   UNL     1       6.685  -3.450  24.817  0.00  0.00    -0.302 N 
ATOM     57  H   UNL     1       6.402  -4.177  25.450  0.00  0.00    +0.150 HD
ATOM     58  C   UNL     1       7.938  -3.595  24.271  0.00  0.00    +0.234 C 
ATOM     59  O   UNL     1       8.581  -2.729  23.704  0.00  0.00    -0.274 OA
BRANCH  56  60
ATOM     60  C   UNL     1       5.539  -2.465  24.538  0.00  0.00    +0.163 C 
BRANCH  60  63
ATOM     61  N   UNL     1       4.902   0.213  24.014  0.00  0.00    -0.302 N 
ATOM     62  H   UNL     1       4.416  -0.146  23.204  0.00  0.00    +0.150 HD
ATOM     63  C   UNL     1       5.136  -0.881  24.933  0.00  0.00    +0.234 C 
ATOM     64  O   UNL     1       4.856  -0.792  26.140  0.00  0.00    -0.274 OA
BRANCH  61  65
ATOM     65  C   UNL     1       5.702   1.752  23.616  0.00  0.00    +0.159 C 
BRANCH  65  66
ATOM     66  C   UNL     1       5.315   3.621  23.725  0.00  0.00    +0.234 C 
ATOM     67  N   UNL     1       4.136   4.258  23.059  0.00  0.00    -0.302 N 
ATOM     68  H   UNL     1       3.599   3.756  22.367  0.00  0.00    +0.150 HD
ATOM     69  O   UNL     1       6.057   4.355  24.381  0.00  0.00    -0.274 OA
BRANCH  67  70
ATOM     70  C   UNL     1       3.774   5.624  22.574  0.00  0.00    +0.159 C 
BRANCH  70  71
ATOM     71  C   UNL     1       2.734   5.676  21.360  0.00  0.00    +0.237 C 
ATOM     72  N   UNL     1       2.545   4.530  20.627  0.00  0.00    -0.288 N 
ATOM     73  C   UNL     1       1.438   4.449  19.675  0.00  0.00    +0.162 C 
ATOM     74  C   UNL     1       1.169   2.984  19.339  0.00  0.00    +0.033 C 
ATOM     75  C   UNL     1       1.802   2.269  20.483  0.00  0.00    +0.021 C 
ATOM     76  C   UNL     1       2.480   3.296  21.327  0.00  0.00    +0.109 C 
ATOM     77  O   UNL     1       2.237   6.781  21.163  0.00  0.00    -0.274 OA
BRANCH  73  78
ATOM     78  C   UNL     1       1.315   5.410  18.504  0.00  0.00    +0.234 C 
ATOM     79  N   UNL     1       1.088   4.710  17.348  0.00  0.00    -0.303 N 
ATOM     80  H   UNL     1       1.106   3.688  17.436  0.00  0.00    +0.149 HD
ATOM     81  O   UNL     1       1.506   6.615  18.589  0.00  0.00    -0.274 OA
BRANCH  79  82
ATOM     82  C   UNL     1       1.179   5.200  15.993  0.00  0.00    +0.156 C 
ATOM     83  C   UNL     1       0.449   4.342  14.978  0.00  0.00    +0.038 C 
BRANCH  82  84
ATOM     84  C   UNL     1       2.681   5.307  15.665  0.00  0.00    +0.231 C 
ATOM     85  O   UNL     1       3.420   4.332  15.570  0.00  0.00    -0.274 OA
ATOM     86  N   UNL     1       3.170   6.569  15.453  0.00  0.00    -0.328 N 
ATOM     87  H   UNL     1       4.120   6.608  15.110  0.00  0.00    +0.145 HD
ATOM     88  H   UNL     1       2.533   7.272  15.085  0.00  0.00    +0.145 HD
ENDBRANCH  82  84
ENDBRANCH  79  82
ENDBRANCH  73  78
ENDBRANCH  70  71
BRANCH  70  89
ATOM     89  C   UNL     1       5.050   6.763  22.649  0.00  0.00    +0.032 C 
BRANCH  89  90
ATOM     90  C   UNL     1       6.631   6.762  23.219  0.00  0.00    +0.003 C 
BRANCH  90  91
ATOM     91  C   UNL     1       8.063   5.906  22.506  0.00  0.00    +0.015 C 
BRANCH  91  92
ATOM     92  C   UNL     1       9.530   5.563  23.277  0.00  0.00    +0.081 C 
BRANCH  92  93
ATOM     93  N   UNL     1       9.797   5.495  24.752  0.00  0.00    -0.314 NA
ATOM     94  H   UNL     1      10.706   5.046  24.891  0.00  0.00    +0.122 HD
BRANCH  93  95
ATOM     95  C   UNL     1       9.940   6.857  25.423  0.00  0.00    +0.047 C 
ATOM     96  C   UNL     1      11.419   7.107  25.735  0.00  0.00    +0.023 C 
ATOM     97  C   UNL     1       9.159   7.102  26.715  0.00  0.00    +0.023 C 
ENDBRANCH  93  95
ENDBRANCH  92  93
ENDBRANCH  91  92
ENDBRANCH  90  91
ENDBRANCH  89  90
ENDBRANCH  70  89
ENDBRANCH  67  70
ENDBRANCH  65  66
BRANCH  65  98
ATOM     98  C   UNL     1       6.503   1.590  22.341  0.00  0.00    +0.034 C 
BRANCH  98 100
ATOM     99  C   UNL     1       6.487  -0.644  20.890  0.00  0.00    +0.007 C 
ATOM    100  C   UNL     1       7.080   0.205  22.014  0.00  0.00    -0.015 C 
ATOM    101  C   UNL     1       8.533   0.479  21.663  0.00  0.00    +0.007 C 
ENDBRANCH  98 100
ENDBRANCH  65  98
ENDBRANCH  61  65
ENDBRANCH  60  63
BRANCH  60 102
ATOM    102  C   UNL     1       5.094  -2.640  23.065  0.00  0.00    +0.067 C 
BRANCH 102 103
ATOM    103  C   UNL     1       4.235  -3.835  22.715  0.00  0.00    -0.045 A 
ATOM    104  C   UNL     1       3.029  -4.008  23.387  0.00  0.00    +0.005 A 
ATOM    105  C   UNL     1       2.283  -5.167  23.193  0.00  0.00    +0.023 A 
ATOM    106  C   UNL     1       2.650  -6.108  22.225  0.00  0.00    +0.035 A 
ATOM    107  C   UNL     1       3.780  -5.879  21.454  0.00  0.00    +0.023 A 
ATOM    108  C   UNL     1       4.604  -4.798  21.762  0.00  0.00    +0.005 A 
BRANCH 106 109
ATOM    109  N   UNL     1       1.856  -7.258  22.133  0.00  0.00    -0.270 N 
ATOM    110  H   UNL     1       2.086  -8.006  22.766  0.00  0.00    +0.156 HD
ATOM    111  C   UNL     1       0.924  -7.563  21.182  0.00  0.00    +0.301 C 
ATOM    112  O   UNL     1       0.519  -6.873  20.259  0.00  0.00    -0.253 OA
ATOM    113  N   UNL     1       0.452  -8.834  21.342  0.00  0.00    -0.313 N 
ATOM    114  H   UNL     1      -0.303  -9.062  20.709  0.00  0.00    +0.146 HD
ATOM    115  H   UNL     1       0.360  -9.201  22.276  0.00  0.00    +0.146 HD
ENDBRANCH 106 109
ENDBRANCH 102 103
ENDBRANCH  60 102
ENDBRANCH  56  60
ENDBRANCH   1  58
BRANCH   1 116
ATOM    116  C   UNL     1       8.290  -5.924  23.430  0.00  0.00    +0.067 C 
BRANCH 116 117
ATOM    117  C   UNL     1       6.888  -6.297  23.750  0.00  0.00    -0.045 A 
ATOM    118  C   UNL     1       5.928  -6.373  22.751  0.00  0.00    +0.005 A 
ATOM    119  C   UNL     1       4.627  -6.763  23.081  0.00  0.00    +0.023 A 
ATOM    120  C   UNL     1       4.271  -7.093  24.431  0.00  0.00    +0.033 A 
ATOM    121  C   UNL     1       5.242  -7.011  25.424  0.00  0.00    +0.023 A 
ATOM    122  C   UNL     1       6.441  -6.559  25.057  0.00  0.00    +0.005 A 
BRANCH 120 123
ATOM    123  N   UNL     1       3.011  -7.502  24.734  0.00  0.00    -0.284 N 
ATOM    124  H   UNL     1       2.320  -6.782  24.639  0.00  0.00    +0.155 HD
ATOM    125  C   UNL     1       2.655  -8.723  25.299  0.00  0.00    +0.238 C 
ATOM    126  O   UNL     1       3.397  -9.620  25.708  0.00  0.00    -0.273 OA
BRANCH 125 127
ATOM    127  C   UNL     1       1.120  -8.927  25.350  0.00  0.00    +0.169 C 
ATOM    128  N   UNL     1       0.448  -7.647  25.499  0.00  0.00    -0.287 N 
ATOM    129  H   UNL     1       0.473  -7.018  24.700  0.00  0.00    +0.151 HD
ATOM    130  C   UNL     1       0.506  -7.034  26.718  0.00  0.00    +0.306 C 
ATOM    131  O   UNL     1       0.641  -5.817  26.783  0.00  0.00    -0.252 OA
ATOM    132  N   UNL     1       0.609  -7.856  27.798  0.00  0.00    -0.240 N 
ATOM    133  H   UNL     1       0.724  -7.407  28.694  0.00  0.00    +0.159 HD
ATOM    134  C   UNL     1       0.837  -9.207  27.774  0.00  0.00    +0.223 C 
ATOM    135  O   UNL     1       1.081  -9.822  28.809  0.00  0.00    -0.275 OA
ATOM    136  C   UNL     1       0.712  -9.892  26.434  0.00  0.00    +0.128 C 
ENDBRANCH 125 127
ENDBRANCH 120 123
ENDBRANCH 116 117
ENDBRANCH   1 116
TORSDOF 42
ENDMDL
