MODEL 1
REMARK VINA RESULT:      -3.8      0.000      0.000
REMARK  Name = 
REMARK  1 active torsions:
REMARK  status: ('A' for Active; 'I' for Inactive)
REMARK    1  A    between atoms: N_4  and  O_5
REMARK                            x       y       z     vdW  Elec       q    Type
REMARK                         _______ _______ _______ _____ _____    ______ ____
ROOT
ATOM      1  N   UNL     1      10.981   5.646  23.319  0.00  0.00    -0.287 N 
ATOM      2  H   UNL     1      10.753   5.613  22.332  0.00  0.00    +0.255 HD
ATOM      3  H   UNL     1      10.356   6.263  23.822  0.00  0.00    +0.255 HD
ATOM      4  C   UNL     1      12.291   5.801  23.594  0.00  0.00    +0.404 C 
ATOM      5  N   UNL     1      13.129   5.291  22.647  0.00  0.00    -0.142 N 
ATOM      6  H   UNL     1      12.777   4.481  22.144  0.00  0.00    +0.299 HD
ATOM      7  N   UNL     1      12.731   6.381  24.661  0.00  0.00    -0.128 NA
ATOM      8  H   UNL     1      11.938   6.666  25.239  0.00  0.00    +0.306 HD
ENDROOT
BRANCH   5   9
ATOM      9  O   UNL     1      14.427   5.083  23.147  0.00  0.00    -0.233 OA
ATOM     10  H   UNL     1      14.476   4.099  23.194  0.00  0.00    +0.262 HD
ENDBRANCH   5   9
TORSDOF 1
ENDMDL
MODEL 2
REMARK VINA RESULT:      -3.6      1.614      2.140
REMARK  Name = 
REMARK  1 active torsions:
REMARK  status: ('A' for Active; 'I' for Inactive)
REMARK    1  A    between atoms: N_4  and  O_5
REMARK                            x       y       z     vdW  Elec       q    Type
REMARK                         _______ _______ _______ _____ _____    ______ ____
ROOT
ATOM      1  N   UNL     1      12.565   5.318  21.702  0.00  0.00    -0.287 N 
ATOM      2  H   UNL     1      11.557   5.220  21.645  0.00  0.00    +0.255 HD
ATOM      3  H   UNL     1      13.036   4.659  21.096  0.00  0.00    +0.255 HD
ATOM      4  C   UNL     1      13.056   5.404  22.954  0.00  0.00    +0.404 C 
ATOM      5  N   UNL     1      12.196   5.952  23.860  0.00  0.00    -0.142 N 
ATOM      6  H   UNL     1      11.551   6.642  23.487  0.00  0.00    +0.299 HD
ATOM      7  N   UNL     1      14.241   5.008  23.282  0.00  0.00    -0.128 NA
ATOM      8  H   UNL     1      14.719   4.654  22.452  0.00  0.00    +0.306 HD
ENDROOT
BRANCH   5   9
ATOM      9  O   UNL     1      12.863   6.414  25.008  0.00  0.00    -0.233 OA
ATOM     10  H   UNL     1      12.306   7.182  25.278  0.00  0.00    +0.262 HD
ENDBRANCH   5   9
TORSDOF 1
ENDMDL
MODEL 3
REMARK VINA RESULT:      -3.5      1.526      2.176
REMARK  Name = 
REMARK  1 active torsions:
REMARK  status: ('A' for Active; 'I' for Inactive)
REMARK    1  A    between atoms: N_4  and  O_5
REMARK                            x       y       z     vdW  Elec       q    Type
REMARK                         _______ _______ _______ _____ _____    ______ ____
ROOT
ATOM      1  N   UNL     1      12.664   6.591  24.558  0.00  0.00    -0.287 N 
ATOM      2  H   UNL     1      11.869   7.216  24.493  0.00  0.00    +0.255 HD
ATOM      3  H   UNL     1      13.529   7.104  24.671  0.00  0.00    +0.255 HD
ATOM      4  C   UNL     1      12.691   5.609  23.635  0.00  0.00    +0.404 C 
ATOM      5  N   UNL     1      11.460   5.216  23.196  0.00  0.00    -0.142 N 
ATOM      6  H   UNL     1      10.709   5.296  23.875  0.00  0.00    +0.299 HD
ATOM      7  N   UNL     1      13.781   5.076  23.196  0.00  0.00    -0.128 NA
ATOM      8  H   UNL     1      14.579   5.500  23.671  0.00  0.00    +0.306 HD
ENDROOT
BRANCH   5   9
ATOM      9  O   UNL     1      11.497   3.948  22.590  0.00  0.00    -0.233 OA
ATOM     10  H   UNL     1      12.186   3.483  23.123  0.00  0.00    +0.262 HD
ENDBRANCH   5   9
TORSDOF 1
ENDMDL
MODEL 4
REMARK VINA RESULT:      -3.3     11.534     11.754
REMARK  Name = 
REMARK  1 active torsions:
REMARK  status: ('A' for Active; 'I' for Inactive)
REMARK    1  A    between atoms: N_4  and  O_5
REMARK                            x       y       z     vdW  Elec       q    Type
REMARK                         _______ _______ _______ _____ _____    ______ ____
ROOT
ATOM      1  N   UNL     1       7.858  -5.830  27.184  0.00  0.00    -0.287 N 
ATOM      2  H   UNL     1       7.561  -6.726  26.814  0.00  0.00    +0.255 HD
ATOM      3  H   UNL     1       7.078  -5.314  27.572  0.00  0.00    +0.255 HD
ATOM      4  C   UNL     1       8.673  -5.124  26.377  0.00  0.00    +0.404 C 
ATOM      5  N   UNL     1       9.445  -5.887  25.550  0.00  0.00    -0.142 N 
ATOM      6  H   UNL     1       9.706  -6.799  25.916  0.00  0.00    +0.299 HD
ATOM      7  N   UNL     1       8.732  -3.835  26.376  0.00  0.00    -0.128 NA
ATOM      8  H   UNL     1       8.091  -3.468  27.083  0.00  0.00    +0.306 HD
ENDROOT
BRANCH   5   9
ATOM      9  O   UNL     1      10.552  -5.175  25.056  0.00  0.00    -0.233 OA
ATOM     10  H   UNL     1      10.224  -4.865  24.178  0.00  0.00    +0.262 HD
ENDBRANCH   5   9
TORSDOF 1
ENDMDL
MODEL 5
REMARK VINA RESULT:      -3.2      6.109      6.474
REMARK  Name = 
REMARK  1 active torsions:
REMARK  status: ('A' for Active; 'I' for Inactive)
REMARK    1  A    between atoms: N_4  and  O_5
REMARK                            x       y       z     vdW  Elec       q    Type
REMARK                         _______ _______ _______ _____ _____    ______ ____
ROOT
ATOM      1  N   UNL     1       9.499  -1.198  21.312  0.00  0.00    -0.287 N 
ATOM      2  H   UNL     1       8.652  -1.239  20.756  0.00  0.00    +0.255 HD
ATOM      3  H   UNL     1       9.575  -1.996  21.928  0.00  0.00    +0.255 HD
ATOM      4  C   UNL     1       9.747  -0.002  21.882  0.00  0.00    +0.404 C 
ATOM      5  N   UNL     1       9.250   1.064  21.192  0.00  0.00    -0.142 N 
ATOM      6  H   UNL     1       9.204   0.948  20.183  0.00  0.00    +0.299 HD
ATOM      7  N   UNL     1      10.399   0.138  22.987  0.00  0.00    -0.128 NA
ATOM      8  H   UNL     1      10.697  -0.781  23.321  0.00  0.00    +0.306 HD
ENDROOT
BRANCH   5   9
ATOM      9  O   UNL     1       9.874   2.269  21.560  0.00  0.00    -0.233 OA
ATOM     10  H   UNL     1      10.768   1.961  21.843  0.00  0.00    +0.262 HD
ENDBRANCH   5   9
TORSDOF 1
ENDMDL
MODEL 6
REMARK VINA RESULT:      -3.1     11.940     12.223
REMARK  Name = 
REMARK  1 active torsions:
REMARK  status: ('A' for Active; 'I' for Inactive)
REMARK    1  A    between atoms: N_4  and  O_5
REMARK                            x       y       z     vdW  Elec       q    Type
REMARK                         _______ _______ _______ _____ _____    ______ ____
ROOT
ATOM      1  N   UNL     1       8.466  -4.687  24.250  0.00  0.00    -0.287 N 
ATOM      2  H   UNL     1       7.570  -4.930  23.842  0.00  0.00    +0.255 HD
ATOM      3  H   UNL     1       9.205  -4.710  23.558  0.00  0.00    +0.255 HD
ATOM      4  C   UNL     1       8.747  -5.303  25.414  0.00  0.00    +0.404 C 
ATOM      5  N   UNL     1       7.649  -5.630  26.156  0.00  0.00    -0.142 N 
ATOM      6  H   UNL     1       6.853  -5.007  26.055  0.00  0.00    +0.299 HD
ATOM      7  N   UNL     1       9.947  -5.567  25.809  0.00  0.00    -0.128 NA
ATOM      8  H   UNL     1      10.613  -5.218  25.117  0.00  0.00    +0.306 HD
ENDROOT
BRANCH   5   9
ATOM      9  O   UNL     1       7.974  -5.863  27.504  0.00  0.00    -0.233 OA
ATOM     10  H   UNL     1       7.916  -4.957  27.891  0.00  0.00    +0.262 HD
ENDBRANCH   5   9
TORSDOF 1
ENDMDL
MODEL 7
REMARK VINA RESULT:      -3.1      6.410      6.716
REMARK  Name = 
REMARK  1 active torsions:
REMARK  status: ('A' for Active; 'I' for Inactive)
REMARK    1  A    between atoms: N_4  and  O_5
REMARK                            x       y       z     vdW  Elec       q    Type
REMARK                         _______ _______ _______ _____ _____    ______ ____
ROOT
ATOM      1  N   UNL     1       8.746   1.424  21.161  0.00  0.00    -0.287 N 
ATOM      2  H   UNL     1       8.624   1.354  20.157  0.00  0.00    +0.255 HD
ATOM      3  H   UNL     1       8.917   2.380  21.446  0.00  0.00    +0.255 HD
ATOM      4  C   UNL     1       9.572   0.505  21.697  0.00  0.00    +0.404 C 
ATOM      5  N   UNL     1       9.618  -0.677  21.016  0.00  0.00    -0.142 N 
ATOM      6  H   UNL     1       8.760  -0.937  20.538  0.00  0.00    +0.299 HD
ATOM      7  N   UNL     1      10.267   0.710  22.766  0.00  0.00    -0.128 NA
ATOM      8  H   UNL     1      10.066   1.646  23.124  0.00  0.00    +0.306 HD
ENDROOT
BRANCH   5   9
ATOM      9  O   UNL     1      10.125  -1.722  21.808  0.00  0.00    -0.233 OA
ATOM     10  H   UNL     1       9.681  -1.561  22.674  0.00  0.00    +0.262 HD
ENDBRANCH   5   9
TORSDOF 1
ENDMDL
MODEL 8
REMARK VINA RESULT:      -3.1     11.829     12.045
REMARK  Name = 
REMARK  1 active torsions:
REMARK  status: ('A' for Active; 'I' for Inactive)
REMARK    1  A    between atoms: N_4  and  O_5
REMARK                            x       y       z     vdW  Elec       q    Type
REMARK                         _______ _______ _______ _____ _____    ______ ____
ROOT
ATOM      1  N   UNL     1       8.328  -5.681  26.878  0.00  0.00    -0.287 N 
ATOM      2  H   UNL     1       7.510  -5.135  27.124  0.00  0.00    +0.255 HD
ATOM      3  H   UNL     1       9.015  -5.671  27.620  0.00  0.00    +0.255 HD
ATOM      4  C   UNL     1       8.811  -5.454  25.641  0.00  0.00    +0.404 C 
ATOM      5  N   UNL     1       7.872  -5.059  24.733  0.00  0.00    -0.142 N 
ATOM      6  H   UNL     1       6.937  -5.424  24.887  0.00  0.00    +0.299 HD
ATOM      7  N   UNL     1      10.055  -5.596  25.326  0.00  0.00    -0.128 NA
ATOM      8  H   UNL     1      10.575  -5.918  26.144  0.00  0.00    +0.306 HD
ENDROOT
BRANCH   5   9
ATOM      9  O   UNL     1       8.306  -5.248  23.409  0.00  0.00    -0.233 OA
ATOM     10  H   UNL     1       9.199  -4.827  23.421  0.00  0.00    +0.262 HD
ENDBRANCH   5   9
TORSDOF 1
ENDMDL
MODEL 9
REMARK VINA RESULT:      -3.0      5.232      5.667
REMARK  Name = 
REMARK  1 active torsions:
REMARK  status: ('A' for Active; 'I' for Inactive)
REMARK    1  A    between atoms: N_4  and  O_5
REMARK                            x       y       z     vdW  Elec       q    Type
REMARK                         _______ _______ _______ _____ _____    ______ ____
ROOT
ATOM      1  N   UNL     1       6.960   1.566  22.173  0.00  0.00    -0.287 N 
ATOM      2  H   UNL     1       6.835   0.780  21.546  0.00  0.00    +0.255 HD
ATOM      3  H   UNL     1       6.099   2.085  22.291  0.00  0.00    +0.255 HD
ATOM      4  C   UNL     1       8.056   2.314  21.935  0.00  0.00    +0.404 C 
ATOM      5  N   UNL     1       9.094   1.628  21.375  0.00  0.00    -0.142 N 
ATOM      6  H   UNL     1       9.156   0.646  21.631  0.00  0.00    +0.299 HD
ATOM      7  N   UNL     1       8.132   3.573  22.210  0.00  0.00    -0.128 NA
ATOM      8  H   UNL     1       7.257   3.877  22.641  0.00  0.00    +0.306 HD
ENDROOT
BRANCH   5   9
ATOM      9  O   UNL     1      10.318   2.299  21.538  0.00  0.00    -0.233 OA
ATOM     10  H   UNL     1      10.869   1.903  20.822  0.00  0.00    +0.262 HD
ENDBRANCH   5   9
TORSDOF 1
ENDMDL
