MODEL 1
REMARK VINA RESULT:      -5.3      0.000      0.000
REMARK  Name = 
REMARK  14 active torsions:
REMARK  status: ('A' for Active; 'I' for Inactive)
REMARK    1  A    between atoms: C_2  and  O_3
REMARK    2  A    between atoms: C_4  and  O_6
REMARK    3  A    between atoms: C_7  and  C_9
REMARK    4  A    between atoms: C_9  and  O_10
REMARK    5  A    between atoms: C_12  and  O_14
REMARK    6  A    between atoms: O_14  and  C_15
REMARK    7  A    between atoms: C_15  and  C_16
REMARK    8  A    between atoms: C_16  and  C_17
REMARK    9  A    between atoms: C_17  and  C_18
REMARK   10  A    between atoms: C_18  and  C_19
REMARK   11  A    between atoms: C_19  and  C_20
REMARK   12  A    between atoms: C_20  and  C_21
REMARK   13  A    between atoms: C_21  and  C_22
REMARK   14  A    between atoms: C_23  and  O_25
REMARK                            x       y       z     vdW  Elec       q    Type
REMARK                         _______ _______ _______ _____ _____    ______ ____
ROOT
ATOM      1  C   UNL     1       8.846  -4.349  26.473  0.00  0.00    +0.179 C 
ATOM      2  C   UNL     1       9.412  -4.494  25.065  0.00  0.00    +0.201 C 
ATOM      3  C   UNL     1       8.331  -4.237  24.001  0.00  0.00    +0.282 C 
ATOM      4  O   UNL     1       7.154  -5.022  24.189  0.00  0.00    -0.341 OA
ATOM      5  C   UNL     1       6.652  -5.270  25.508  0.00  0.00    +0.178 C 
ATOM      6  C   UNL     1       7.681  -5.318  26.664  0.00  0.00    +0.177 C 
ENDROOT
BRANCH   1   7
ATOM      7  O   UNL     1       8.387  -3.028  26.788  0.00  0.00    -0.386 OA
ATOM      8  H   UNL     1       8.957  -2.670  27.494  0.00  0.00    +0.210 HD
ENDBRANCH   1   7
BRANCH   2   9
ATOM      9  O   UNL     1       9.953  -5.820  24.898  0.00  0.00    -0.384 OA
ATOM     10  H   UNL     1      10.918  -5.745  24.803  0.00  0.00    +0.210 HD
ENDBRANCH   2   9
BRANCH   6  11
ATOM     11  O   UNL     1       7.069  -5.087  27.944  0.00  0.00    -0.386 OA
ATOM     12  H   UNL     1       6.824  -5.980  28.276  0.00  0.00    +0.210 HD
ENDBRANCH   6  11
BRANCH   3  13
ATOM     13  O   UNL     1       8.072  -2.838  23.844  0.00  0.00    -0.349 OA
BRANCH  13  14
ATOM     14  C   UNL     1       8.736  -2.321  22.685  0.00  0.00    +0.163 C 
BRANCH  14  15
ATOM     15  C   UNL     1      10.065  -1.657  23.045  0.00  0.00    +0.028 C 
BRANCH  15  16
ATOM     16  C   UNL     1       9.972  -0.798  24.303  0.00  0.00    +0.002 C 
BRANCH  16  17
ATOM     17  C   UNL     1      10.769   0.500  24.158  0.00  0.00    +0.000 C 
BRANCH  17  18
ATOM     18  C   UNL     1       9.873   1.639  23.668  0.00  0.00    -0.000 C 
BRANCH  18  19
ATOM     19  C   UNL     1       9.986   1.819  22.155  0.00  0.00    -0.000 C 
BRANCH  19  20
ATOM     20  C   UNL     1       8.693   1.423  21.445  0.00  0.00    -0.003 C 
ATOM     21  C   UNL     1       7.532   1.349  22.423  0.00  0.00    +0.004 C 
ENDBRANCH  19  20
ENDBRANCH  18  19
ENDBRANCH  17  18
ENDBRANCH  16  17
ENDBRANCH  15  16
ENDBRANCH  14  15
ENDBRANCH  13  14
ENDBRANCH   3  13
BRANCH   5  22
ATOM     22  C   UNL     1       5.379  -4.468  25.828  0.00  0.00    +0.190 C 
BRANCH  22  23
ATOM     23  O   UNL     1       5.624  -3.061  25.707  0.00  0.00    -0.392 OA
ATOM     24  H   UNL     1       6.387  -2.862  26.292  0.00  0.00    +0.210 HD
ENDBRANCH  22  23
ENDBRANCH   5  22
TORSDOF 13
ENDMDL
MODEL 2
REMARK VINA RESULT:      -5.3      1.914      2.978
REMARK  Name = 
REMARK  14 active torsions:
REMARK  status: ('A' for Active; 'I' for Inactive)
REMARK    1  A    between atoms: C_2  and  O_3
REMARK    2  A    between atoms: C_4  and  O_6
REMARK    3  A    between atoms: C_7  and  C_9
REMARK    4  A    between atoms: C_9  and  O_10
REMARK    5  A    between atoms: C_12  and  O_14
REMARK    6  A    between atoms: O_14  and  C_15
REMARK    7  A    between atoms: C_15  and  C_16
REMARK    8  A    between atoms: C_16  and  C_17
REMARK    9  A    between atoms: C_17  and  C_18
REMARK   10  A    between atoms: C_18  and  C_19
REMARK   11  A    between atoms: C_19  and  C_20
REMARK   12  A    between atoms: C_20  and  C_21
REMARK   13  A    between atoms: C_21  and  C_22
REMARK   14  A    between atoms: C_23  and  O_25
REMARK                            x       y       z     vdW  Elec       q    Type
REMARK                         _______ _______ _______ _____ _____    ______ ____
ROOT
ATOM      1  C   UNL     1       5.475  -4.782  24.279  0.00  0.00    +0.179 C 
ATOM      2  C   UNL     1       6.834  -4.356  24.823  0.00  0.00    +0.201 C 
ATOM      3  C   UNL     1       7.829  -4.080  23.683  0.00  0.00    +0.282 C 
ATOM      4  O   UNL     1       7.938  -5.157  22.755  0.00  0.00    -0.341 OA
ATOM      5  C   UNL     1       6.776  -5.902  22.371  0.00  0.00    +0.178 C 
ATOM      6  C   UNL     1       5.634  -6.026  23.409  0.00  0.00    +0.177 C 
ENDROOT
BRANCH   1   7
ATOM      7  O   UNL     1       4.811  -3.774  23.505  0.00  0.00    -0.386 OA
ATOM      8  H   UNL     1       5.398  -3.523  22.766  0.00  0.00    +0.210 HD
ENDBRANCH   1   7
BRANCH   2   9
ATOM      9  O   UNL     1       7.354  -5.390  25.683  0.00  0.00    -0.384 OA
ATOM     10  H   UNL     1       8.276  -5.561  25.429  0.00  0.00    +0.210 HD
ENDBRANCH   2   9
BRANCH   6  11
ATOM     11  O   UNL     1       4.375  -6.347  22.794  0.00  0.00    -0.386 OA
ATOM     12  H   UNL     1       3.790  -6.622  23.536  0.00  0.00    +0.210 HD
ENDBRANCH   6  11
BRANCH   3  13
ATOM     13  O   UNL     1       7.583  -2.810  23.068  0.00  0.00    -0.349 OA
BRANCH  13  14
ATOM     14  C   UNL     1       8.806  -2.213  22.620  0.00  0.00    +0.163 C 
BRANCH  14  15
ATOM     15  C   UNL     1       9.830  -2.107  23.749  0.00  0.00    +0.028 C 
BRANCH  15  16
ATOM     16  C   UNL     1       9.548  -0.942  24.693  0.00  0.00    +0.002 C 
BRANCH  16  17
ATOM     17  C   UNL     1      10.556   0.193  24.501  0.00  0.00    +0.000 C 
BRANCH  17  18
ATOM     18  C   UNL     1       9.852   1.551  24.472  0.00  0.00    -0.000 C 
BRANCH  18  19
ATOM     19  C   UNL     1      10.179   2.315  23.190  0.00  0.00    -0.000 C 
BRANCH  19  20
ATOM     20  C   UNL     1       9.988   1.441  21.952  0.00  0.00    -0.003 C 
ATOM     21  C   UNL     1       8.530   1.407  21.526  0.00  0.00    +0.004 C 
ENDBRANCH  19  20
ENDBRANCH  18  19
ENDBRANCH  17  18
ENDBRANCH  16  17
ENDBRANCH  15  16
ENDBRANCH  14  15
ENDBRANCH  13  14
ENDBRANCH   3  13
BRANCH   5  22
ATOM     22  C   UNL     1       6.300  -5.582  20.944  0.00  0.00    +0.190 C 
BRANCH  22  23
ATOM     23  O   UNL     1       5.733  -4.267  20.883  0.00  0.00    -0.392 OA
ATOM     24  H   UNL     1       6.250  -3.713  21.508  0.00  0.00    +0.210 HD
ENDBRANCH  22  23
ENDBRANCH   5  22
TORSDOF 13
ENDMDL
MODEL 3
REMARK VINA RESULT:      -5.2      2.570      6.256
REMARK  Name = 
REMARK  14 active torsions:
REMARK  status: ('A' for Active; 'I' for Inactive)
REMARK    1  A    between atoms: C_2  and  O_3
REMARK    2  A    between atoms: C_4  and  O_6
REMARK    3  A    between atoms: C_7  and  C_9
REMARK    4  A    between atoms: C_9  and  O_10
REMARK    5  A    between atoms: C_12  and  O_14
REMARK    6  A    between atoms: O_14  and  C_15
REMARK    7  A    between atoms: C_15  and  C_16
REMARK    8  A    between atoms: C_16  and  C_17
REMARK    9  A    between atoms: C_17  and  C_18
REMARK   10  A    between atoms: C_18  and  C_19
REMARK   11  A    between atoms: C_19  and  C_20
REMARK   12  A    between atoms: C_20  and  C_21
REMARK   13  A    between atoms: C_21  and  C_22
REMARK   14  A    between atoms: C_23  and  O_25
REMARK                            x       y       z     vdW  Elec       q    Type
REMARK                         _______ _______ _______ _____ _____    ______ ____
ROOT
ATOM      1  C   UNL     1       8.958  -0.066  21.844  0.00  0.00    +0.179 C 
ATOM      2  C   UNL     1       9.411  -1.371  22.487  0.00  0.00    +0.201 C 
ATOM      3  C   UNL     1       9.624  -1.201  24.001  0.00  0.00    +0.282 C 
ATOM      4  O   UNL     1      10.485  -0.114  24.333  0.00  0.00    -0.341 OA
ATOM      5  C   UNL     1      10.421   1.112  23.594  0.00  0.00    +0.178 C 
ATOM      6  C   UNL     1       9.991   1.027  22.109  0.00  0.00    +0.177 C 
ENDROOT
BRANCH   1   7
ATOM      7  O   UNL     1       7.683   0.402  22.301  0.00  0.00    -0.386 OA
ATOM      8  H   UNL     1       7.824   0.922  23.114  0.00  0.00    +0.210 HD
ENDBRANCH   1   7
BRANCH   2   9
ATOM      9  O   UNL     1      10.637  -1.812  21.870  0.00  0.00    -0.384 OA
ATOM     10  H   UNL     1      10.764  -2.752  22.083  0.00  0.00    +0.210 HD
ENDBRANCH   2   9
BRANCH   6  11
ATOM     11  O   UNL     1       9.500   2.284  21.614  0.00  0.00    -0.386 OA
ATOM     12  H   UNL     1       9.074   2.716  22.388  0.00  0.00    +0.210 HD
ENDBRANCH   6  11
BRANCH   3  13
ATOM     13  O   UNL     1       8.378  -1.187  24.707  0.00  0.00    -0.349 OA
BRANCH  13  14
ATOM     14  C   UNL     1       8.565  -1.534  26.085  0.00  0.00    +0.163 C 
BRANCH  14  15
ATOM     15  C   UNL     1       7.765  -2.780  26.467  0.00  0.00    +0.028 C 
BRANCH  15  16
ATOM     16  C   UNL     1       8.629  -4.037  26.533  0.00  0.00    +0.002 C 
BRANCH  16  17
ATOM     17  C   UNL     1       7.858  -5.273  26.067  0.00  0.00    +0.000 C 
BRANCH  17  18
ATOM     18  C   UNL     1       7.046  -4.969  24.807  0.00  0.00    -0.000 C 
BRANCH  18  19
ATOM     19  C   UNL     1       7.913  -5.076  23.553  0.00  0.00    -0.000 C 
BRANCH  19  20
ATOM     20  C   UNL     1       7.148  -4.643  22.304  0.00  0.00    -0.003 C 
ATOM     21  C   UNL     1       6.748  -5.844  21.463  0.00  0.00    +0.004 C 
ENDBRANCH  19  20
ENDBRANCH  18  19
ENDBRANCH  17  18
ENDBRANCH  16  17
ENDBRANCH  15  16
ENDBRANCH  14  15
ENDBRANCH  13  14
ENDBRANCH   3  13
BRANCH   5  22
ATOM     22  C   UNL     1       9.754   2.254  24.380  0.00  0.00    +0.190 C 
BRANCH  22  23
ATOM     23  O   UNL     1       8.364   1.976  24.595  0.00  0.00    -0.392 OA
ATOM     24  H   UNL     1       8.249   1.870  25.564  0.00  0.00    +0.210 HD
ENDBRANCH  22  23
ENDBRANCH   5  22
TORSDOF 13
ENDMDL
MODEL 4
REMARK VINA RESULT:      -5.2      1.352      2.327
REMARK  Name = 
REMARK  14 active torsions:
REMARK  status: ('A' for Active; 'I' for Inactive)
REMARK    1  A    between atoms: C_2  and  O_3
REMARK    2  A    between atoms: C_4  and  O_6
REMARK    3  A    between atoms: C_7  and  C_9
REMARK    4  A    between atoms: C_9  and  O_10
REMARK    5  A    between atoms: C_12  and  O_14
REMARK    6  A    between atoms: O_14  and  C_15
REMARK    7  A    between atoms: C_15  and  C_16
REMARK    8  A    between atoms: C_16  and  C_17
REMARK    9  A    between atoms: C_17  and  C_18
REMARK   10  A    between atoms: C_18  and  C_19
REMARK   11  A    between atoms: C_19  and  C_20
REMARK   12  A    between atoms: C_20  and  C_21
REMARK   13  A    between atoms: C_21  and  C_22
REMARK   14  A    between atoms: C_23  and  O_25
REMARK                            x       y       z     vdW  Elec       q    Type
REMARK                         _______ _______ _______ _____ _____    ______ ____
ROOT
ATOM      1  C   UNL     1       7.169  -3.976  26.425  0.00  0.00    +0.179 C 
ATOM      2  C   UNL     1       8.680  -3.776  26.402  0.00  0.00    +0.201 C 
ATOM      3  C   UNL     1       9.200  -3.628  24.961  0.00  0.00    +0.282 C 
ATOM      4  O   UNL     1       8.787  -4.687  24.099  0.00  0.00    -0.341 OA
ATOM      5  C   UNL     1       7.468  -5.236  24.209  0.00  0.00    +0.178 C 
ATOM      6  C   UNL     1       6.799  -5.208  25.605  0.00  0.00    +0.177 C 
ENDROOT
BRANCH   1   7
ATOM      7  O   UNL     1       6.422  -2.861  25.923  0.00  0.00    -0.386 OA
ATOM      8  H   UNL     1       6.921  -2.046  26.121  0.00  0.00    +0.210 HD
ENDBRANCH   1   7
BRANCH   2   9
ATOM      9  O   UNL     1       9.325  -4.897  27.039  0.00  0.00    -0.384 OA
ATOM     10  H   UNL     1       9.056  -5.707  26.573  0.00  0.00    +0.210 HD
ENDBRANCH   2   9
BRANCH   6  11
ATOM     11  O   UNL     1       5.368  -5.319  25.522  0.00  0.00    -0.386 OA
ATOM     12  H   UNL     1       5.046  -5.171  26.440  0.00  0.00    +0.210 HD
ENDBRANCH   6  11
BRANCH   3  13
ATOM     13  O   UNL     1       8.934  -2.321  24.439  0.00  0.00    -0.349 OA
BRANCH  13  14
ATOM     14  C   UNL     1       9.508  -2.163  23.136  0.00  0.00    +0.163 C 
BRANCH  14  15
ATOM     15  C   UNL     1       8.649  -1.266  22.246  0.00  0.00    +0.028 C 
BRANCH  15  16
ATOM     16  C   UNL     1       9.482  -0.380  21.324  0.00  0.00    +0.002 C 
BRANCH  16  17
ATOM     17  C   UNL     1       9.048   1.085  21.410  0.00  0.00    +0.000 C 
BRANCH  17  18
ATOM     18  C   UNL     1      10.050   1.906  22.223  0.00  0.00    -0.000 C 
BRANCH  18  19
ATOM     19  C   UNL     1       9.427   2.402  23.527  0.00  0.00    -0.000 C 
BRANCH  19  20
ATOM     20  C   UNL     1       9.656   1.415  24.670  0.00  0.00    -0.003 C 
ATOM     21  C   UNL     1      11.021   0.754  24.557  0.00  0.00    +0.004 C 
ENDBRANCH  19  20
ENDBRANCH  18  19
ENDBRANCH  17  18
ENDBRANCH  16  17
ENDBRANCH  15  16
ENDBRANCH  14  15
ENDBRANCH  13  14
ENDBRANCH   3  13
BRANCH   5  22
ATOM     22  C   UNL     1       6.542  -4.813  23.056  0.00  0.00    +0.190 C 
BRANCH  22  23
ATOM     23  O   UNL     1       6.153  -3.440  23.197  0.00  0.00    -0.392 OA
ATOM     24  H   UNL     1       5.196  -3.445  23.417  0.00  0.00    +0.210 HD
ENDBRANCH  22  23
ENDBRANCH   5  22
TORSDOF 13
ENDMDL
MODEL 5
REMARK VINA RESULT:      -5.1      2.692      6.390
REMARK  Name = 
REMARK  14 active torsions:
REMARK  status: ('A' for Active; 'I' for Inactive)
REMARK    1  A    between atoms: C_2  and  O_3
REMARK    2  A    between atoms: C_4  and  O_6
REMARK    3  A    between atoms: C_7  and  C_9
REMARK    4  A    between atoms: C_9  and  O_10
REMARK    5  A    between atoms: C_12  and  O_14
REMARK    6  A    between atoms: O_14  and  C_15
REMARK    7  A    between atoms: C_15  and  C_16
REMARK    8  A    between atoms: C_16  and  C_17
REMARK    9  A    between atoms: C_17  and  C_18
REMARK   10  A    between atoms: C_18  and  C_19
REMARK   11  A    between atoms: C_19  and  C_20
REMARK   12  A    between atoms: C_20  and  C_21
REMARK   13  A    between atoms: C_21  and  C_22
REMARK   14  A    between atoms: C_23  and  O_25
REMARK                            x       y       z     vdW  Elec       q    Type
REMARK                         _______ _______ _______ _____ _____    ______ ____
ROOT
ATOM      1  C   UNL     1       8.765   0.116  21.749  0.00  0.00    +0.179 C 
ATOM      2  C   UNL     1       9.227  -1.247  22.251  0.00  0.00    +0.201 C 
ATOM      3  C   UNL     1       9.582  -1.199  23.747  0.00  0.00    +0.282 C 
ATOM      4  O   UNL     1      10.509  -0.166  24.075  0.00  0.00    -0.341 OA
ATOM      5  C   UNL     1      10.422   1.114  23.436  0.00  0.00    +0.178 C 
ATOM      6  C   UNL     1       9.857   1.154  21.995  0.00  0.00    +0.177 C 
ENDROOT
BRANCH   1   7
ATOM      7  O   UNL     1       7.554   0.585  22.356  0.00  0.00    -0.386 OA
ATOM      8  H   UNL     1       7.744   0.796  23.289  0.00  0.00    +0.210 HD
ENDBRANCH   1   7
BRANCH   2   9
ATOM      9  O   UNL     1      10.375  -1.677  21.492  0.00  0.00    -0.384 OA
ATOM     10  H   UNL     1      10.460  -2.640  21.588  0.00  0.00    +0.210 HD
ENDBRANCH   2   9
BRANCH   6  11
ATOM     11  O   UNL     1       9.369   2.459  21.641  0.00  0.00    -0.386 OA
ATOM     12  H   UNL     1       9.721   2.627  20.738  0.00  0.00    +0.210 HD
ENDBRANCH   6  11
BRANCH   3  13
ATOM     13  O   UNL     1       8.407  -1.202  24.565  0.00  0.00    -0.349 OA
BRANCH  13  14
ATOM     14  C   UNL     1       7.642  -2.396  24.361  0.00  0.00    +0.163 C 
BRANCH  14  15
ATOM     15  C   UNL     1       8.297  -3.606  25.026  0.00  0.00    +0.028 C 
BRANCH  15  16
ATOM     16  C   UNL     1       8.147  -4.883  24.204  0.00  0.00    +0.002 C 
BRANCH  16  17
ATOM     17  C   UNL     1       7.518  -4.601  22.838  0.00  0.00    +0.000 C 
BRANCH  17  18
ATOM     18  C   UNL     1       6.681  -5.790  22.364  0.00  0.00    -0.000 C 
BRANCH  18  19
ATOM     19  C   UNL     1       5.257  -5.717  22.915  0.00  0.00    -0.000 C 
BRANCH  19  20
ATOM     20  C   UNL     1       4.736  -4.282  22.935  0.00  0.00    -0.003 C 
ATOM     21  C   UNL     1       4.155  -3.929  24.294  0.00  0.00    +0.004 C 
ENDBRANCH  19  20
ENDBRANCH  18  19
ENDBRANCH  17  18
ENDBRANCH  16  17
ENDBRANCH  15  16
ENDBRANCH  14  15
ENDBRANCH  13  14
ENDBRANCH   3  13
BRANCH   5  22
ATOM     22  C   UNL     1       9.872   2.212  24.362  0.00  0.00    +0.190 C 
BRANCH  22  23
ATOM     23  O   UNL     1       8.494   1.968  24.673  0.00  0.00    -0.392 OA
ATOM     24  H   UNL     1       7.981   2.683  24.240  0.00  0.00    +0.210 HD
ENDBRANCH  22  23
ENDBRANCH   5  22
TORSDOF 13
ENDMDL
MODEL 6
REMARK VINA RESULT:      -5.0      1.919      3.441
REMARK  Name = 
REMARK  14 active torsions:
REMARK  status: ('A' for Active; 'I' for Inactive)
REMARK    1  A    between atoms: C_2  and  O_3
REMARK    2  A    between atoms: C_4  and  O_6
REMARK    3  A    between atoms: C_7  and  C_9
REMARK    4  A    between atoms: C_9  and  O_10
REMARK    5  A    between atoms: C_12  and  O_14
REMARK    6  A    between atoms: O_14  and  C_15
REMARK    7  A    between atoms: C_15  and  C_16
REMARK    8  A    between atoms: C_16  and  C_17
REMARK    9  A    between atoms: C_17  and  C_18
REMARK   10  A    between atoms: C_18  and  C_19
REMARK   11  A    between atoms: C_19  and  C_20
REMARK   12  A    between atoms: C_20  and  C_21
REMARK   13  A    between atoms: C_21  and  C_22
REMARK   14  A    between atoms: C_23  and  O_25
REMARK                            x       y       z     vdW  Elec       q    Type
REMARK                         _______ _______ _______ _____ _____    ______ ____
ROOT
ATOM      1  C   UNL     1       6.382  -5.429  22.007  0.00  0.00    +0.179 C 
ATOM      2  C   UNL     1       6.603  -3.958  21.676  0.00  0.00    +0.201 C 
ATOM      3  C   UNL     1       6.977  -3.154  22.932  0.00  0.00    +0.282 C 
ATOM      4  O   UNL     1       6.059  -3.328  24.010  0.00  0.00    -0.341 OA
ATOM      5  C   UNL     1       5.482  -4.614  24.269  0.00  0.00    +0.178 C 
ATOM      6  C   UNL     1       5.286  -5.563  23.061  0.00  0.00    +0.177 C 
ENDROOT
BRANCH   1   7
ATOM      7  O   UNL     1       7.552  -6.104  22.489  0.00  0.00    -0.386 OA
ATOM      8  H   UNL     1       7.271  -6.943  22.899  0.00  0.00    +0.210 HD
ENDBRANCH   1   7
BRANCH   2   9
ATOM      9  O   UNL     1       5.405  -3.412  21.088  0.00  0.00    -0.384 OA
ATOM     10  H   UNL     1       5.205  -2.570  21.530  0.00  0.00    +0.210 HD
ENDBRANCH   2   9
BRANCH   6  11
ATOM     11  O   UNL     1       5.172  -6.938  23.465  0.00  0.00    -0.386 OA
ATOM     12  H   UNL     1       5.132  -7.449  22.626  0.00  0.00    +0.210 HD
ENDBRANCH   6  11
BRANCH   3  13
ATOM     13  O   UNL     1       8.345  -3.363  23.300  0.00  0.00    -0.349 OA
BRANCH  13  14
ATOM     14  C   UNL     1       8.999  -2.117  23.572  0.00  0.00    +0.163 C 
BRANCH  14  15
ATOM     15  C   UNL     1       9.943  -1.716  22.439  0.00  0.00    +0.028 C 
BRANCH  15  16
ATOM     16  C   UNL     1       9.292  -0.763  21.440  0.00  0.00    +0.002 C 
BRANCH  16  17
ATOM     17  C   UNL     1       8.870   0.547  22.107  0.00  0.00    +0.000 C 
BRANCH  17  18
ATOM     18  C   UNL     1       9.903   1.647  21.856  0.00  0.00    -0.000 C 
BRANCH  18  19
ATOM     19  C   UNL     1      10.314   2.326  23.162  0.00  0.00    -0.000 C 
BRANCH  19  20
ATOM     20  C   UNL     1       9.900   1.501  24.379  0.00  0.00    -0.003 C 
ATOM     21  C   UNL     1      11.057   0.655  24.886  0.00  0.00    +0.004 C 
ENDBRANCH  19  20
ENDBRANCH  18  19
ENDBRANCH  17  18
ENDBRANCH  16  17
ENDBRANCH  15  16
ENDBRANCH  14  15
ENDBRANCH  13  14
ENDBRANCH   3  13
BRANCH   5  22
ATOM     22  C   UNL     1       6.066  -5.294  25.519  0.00  0.00    +0.190 C 
BRANCH  22  23
ATOM     23  O   UNL     1       7.475  -5.513  25.364  0.00  0.00    -0.392 OA
ATOM     24  H   UNL     1       7.741  -5.036  24.549  0.00  0.00    +0.210 HD
ENDBRANCH  22  23
ENDBRANCH   5  22
TORSDOF 13
ENDMDL
MODEL 7
REMARK VINA RESULT:      -4.9      3.237      6.802
REMARK  Name = 
REMARK  14 active torsions:
REMARK  status: ('A' for Active; 'I' for Inactive)
REMARK    1  A    between atoms: C_2  and  O_3
REMARK    2  A    between atoms: C_4  and  O_6
REMARK    3  A    between atoms: C_7  and  C_9
REMARK    4  A    between atoms: C_9  and  O_10
REMARK    5  A    between atoms: C_12  and  O_14
REMARK    6  A    between atoms: O_14  and  C_15
REMARK    7  A    between atoms: C_15  and  C_16
REMARK    8  A    between atoms: C_16  and  C_17
REMARK    9  A    between atoms: C_17  and  C_18
REMARK   10  A    between atoms: C_18  and  C_19
REMARK   11  A    between atoms: C_19  and  C_20
REMARK   12  A    between atoms: C_20  and  C_21
REMARK   13  A    between atoms: C_21  and  C_22
REMARK   14  A    between atoms: C_23  and  O_25
REMARK                            x       y       z     vdW  Elec       q    Type
REMARK                         _______ _______ _______ _____ _____    ______ ____
ROOT
ATOM      1  C   UNL     1      10.433   2.241  23.115  0.00  0.00    +0.179 C 
ATOM      2  C   UNL     1      10.414   0.816  23.657  0.00  0.00    +0.201 C 
ATOM      3  C   UNL     1       9.034   0.164  23.459  0.00  0.00    +0.282 C 
ATOM      4  O   UNL     1       7.959   0.948  23.974  0.00  0.00    -0.341 OA
ATOM      5  C   UNL     1       7.975   2.375  23.840  0.00  0.00    +0.178 C 
ATOM      6  C   UNL     1       9.356   3.072  23.807  0.00  0.00    +0.177 C 
ENDROOT
BRANCH   1   7
ATOM      7  O   UNL     1      10.230   2.333  21.699  0.00  0.00    -0.386 OA
ATOM      8  H   UNL     1       9.342   2.705  21.543  0.00  0.00    +0.210 HD
ENDBRANCH   1   7
BRANCH   2   9
ATOM      9  O   UNL     1      10.749   0.830  25.059  0.00  0.00    -0.384 OA
ATOM     10  H   UNL     1      10.527   1.706  25.417  0.00  0.00    +0.210 HD
ENDBRANCH   2   9
BRANCH   6  11
ATOM     11  O   UNL     1       9.292   4.375  23.204  0.00  0.00    -0.386 OA
ATOM     12  H   UNL     1       8.976   4.973  23.918  0.00  0.00    +0.210 HD
ENDBRANCH   6  11
BRANCH   3  13
ATOM     13  O   UNL     1       8.843  -0.258  22.104  0.00  0.00    -0.349 OA
BRANCH  13  14
ATOM     14  C   UNL     1       9.213  -1.632  21.939  0.00  0.00    +0.163 C 
BRANCH  14  15
ATOM     15  C   UNL     1       8.549  -2.525  22.987  0.00  0.00    +0.028 C 
BRANCH  15  16
ATOM     16  C   UNL     1       7.181  -3.037  22.544  0.00  0.00    +0.002 C 
BRANCH  16  17
ATOM     17  C   UNL     1       7.159  -4.563  22.440  0.00  0.00    +0.000 C 
BRANCH  17  18
ATOM     18  C   UNL     1       7.742  -5.206  23.700  0.00  0.00    -0.000 C 
BRANCH  18  19
ATOM     19  C   UNL     1       6.722  -5.214  24.838  0.00  0.00    -0.000 C 
BRANCH  19  20
ATOM     20  C   UNL     1       7.400  -5.076  26.200  0.00  0.00    -0.003 C 
ATOM     21  C   UNL     1       7.693  -3.619  26.520  0.00  0.00    +0.004 C 
ENDBRANCH  19  20
ENDBRANCH  18  19
ENDBRANCH  17  18
ENDBRANCH  16  17
ENDBRANCH  15  16
ENDBRANCH  14  15
ENDBRANCH  13  14
ENDBRANCH   3  13
BRANCH   5  22
ATOM     22  C   UNL     1       6.981   2.890  22.784  0.00  0.00    +0.190 C 
BRANCH  22  23
ATOM     23  O   UNL     1       7.362   2.450  21.474  0.00  0.00    -0.392 OA
ATOM     24  H   UNL     1       8.329   2.282  21.508  0.00  0.00    +0.210 HD
ENDBRANCH  22  23
ENDBRANCH   5  22
TORSDOF 13
ENDMDL
MODEL 8
REMARK VINA RESULT:      -4.9      1.304      2.172
REMARK  Name = 
REMARK  14 active torsions:
REMARK  status: ('A' for Active; 'I' for Inactive)
REMARK    1  A    between atoms: C_2  and  O_3
REMARK    2  A    between atoms: C_4  and  O_6
REMARK    3  A    between atoms: C_7  and  C_9
REMARK    4  A    between atoms: C_9  and  O_10
REMARK    5  A    between atoms: C_12  and  O_14
REMARK    6  A    between atoms: O_14  and  C_15
REMARK    7  A    between atoms: C_15  and  C_16
REMARK    8  A    between atoms: C_16  and  C_17
REMARK    9  A    between atoms: C_17  and  C_18
REMARK   10  A    between atoms: C_18  and  C_19
REMARK   11  A    between atoms: C_19  and  C_20
REMARK   12  A    between atoms: C_20  and  C_21
REMARK   13  A    between atoms: C_21  and  C_22
REMARK   14  A    between atoms: C_23  and  O_25
REMARK                            x       y       z     vdW  Elec       q    Type
REMARK                         _______ _______ _______ _____ _____    ______ ____
ROOT
ATOM      1  C   UNL     1       6.534  -4.399  25.843  0.00  0.00    +0.179 C 
ATOM      2  C   UNL     1       7.972  -4.519  26.332  0.00  0.00    +0.201 C 
ATOM      3  C   UNL     1       8.972  -4.223  25.201  0.00  0.00    +0.282 C 
ATOM      4  O   UNL     1       8.740  -4.995  24.024  0.00  0.00    -0.341 OA
ATOM      5  C   UNL     1       7.402  -5.266  23.588  0.00  0.00    +0.178 C 
ATOM      6  C   UNL     1       6.303  -5.354  24.675  0.00  0.00    +0.177 C 
ENDROOT
BRANCH   1   7
ATOM      7  O   UNL     1       6.166  -3.079  25.422  0.00  0.00    -0.386 OA
ATOM      8  H   UNL     1       6.982  -2.554  25.321  0.00  0.00    +0.210 HD
ENDBRANCH   1   7
BRANCH   2   9
ATOM      9  O   UNL     1       8.197  -5.848  26.844  0.00  0.00    -0.384 OA
ATOM     10  H   UNL     1       8.515  -5.772  27.759  0.00  0.00    +0.210 HD
ENDBRANCH   2   9
BRANCH   6  11
ATOM     11  O   UNL     1       4.988  -5.145  24.134  0.00  0.00    -0.386 OA
ATOM     12  H   UNL     1       4.483  -4.703  24.853  0.00  0.00    +0.210 HD
ENDBRANCH   6  11
BRANCH   3  13
ATOM     13  O   UNL     1       9.084  -2.816  24.955  0.00  0.00    -0.349 OA
BRANCH  13  14
ATOM     14  C   UNL     1       9.983  -2.555  23.871  0.00  0.00    +0.163 C 
BRANCH  14  15
ATOM     15  C   UNL     1       9.660  -1.233  23.176  0.00  0.00    +0.028 C 
BRANCH  15  16
ATOM     16  C   UNL     1      10.628  -0.116  23.555  0.00  0.00    +0.002 C 
BRANCH  16  17
ATOM     17  C   UNL     1      10.035   0.803  24.625  0.00  0.00    +0.000 C 
BRANCH  17  18
ATOM     18  C   UNL     1       9.661   2.163  24.034  0.00  0.00    -0.000 C 
BRANCH  18  19
ATOM     19  C   UNL     1       9.831   2.170  22.515  0.00  0.00    -0.000 C 
BRANCH  19  20
ATOM     20  C   UNL     1       8.483   2.104  21.799  0.00  0.00    -0.003 C 
ATOM     21  C   UNL     1       7.566   3.227  22.253  0.00  0.00    +0.004 C 
ENDBRANCH  19  20
ENDBRANCH  18  19
ENDBRANCH  17  18
ENDBRANCH  16  17
ENDBRANCH  15  16
ENDBRANCH  14  15
ENDBRANCH  13  14
ENDBRANCH   3  13
BRANCH   5  22
ATOM     22  C   UNL     1       6.998  -4.454  22.346  0.00  0.00    +0.190 C 
BRANCH  22  23
ATOM     23  O   UNL     1       6.728  -3.091  22.698  0.00  0.00    -0.392 OA
ATOM     24  H   UNL     1       5.764  -3.037  22.878  0.00  0.00    +0.210 HD
ENDBRANCH  22  23
ENDBRANCH   5  22
TORSDOF 13
ENDMDL
MODEL 9
REMARK VINA RESULT:      -4.9      2.775      6.379
REMARK  Name = 
REMARK  14 active torsions:
REMARK  status: ('A' for Active; 'I' for Inactive)
REMARK    1  A    between atoms: C_2  and  O_3
REMARK    2  A    between atoms: C_4  and  O_6
REMARK    3  A    between atoms: C_7  and  C_9
REMARK    4  A    between atoms: C_9  and  O_10
REMARK    5  A    between atoms: C_12  and  O_14
REMARK    6  A    between atoms: O_14  and  C_15
REMARK    7  A    between atoms: C_15  and  C_16
REMARK    8  A    between atoms: C_16  and  C_17
REMARK    9  A    between atoms: C_17  and  C_18
REMARK   10  A    between atoms: C_18  and  C_19
REMARK   11  A    between atoms: C_19  and  C_20
REMARK   12  A    between atoms: C_20  and  C_21
REMARK   13  A    between atoms: C_21  and  C_22
REMARK   14  A    between atoms: C_23  and  O_25
REMARK                            x       y       z     vdW  Elec       q    Type
REMARK                         _______ _______ _______ _____ _____    ______ ____
ROOT
ATOM      1  C   UNL     1       9.517   0.556  21.411  0.00  0.00    +0.179 C 
ATOM      2  C   UNL     1       9.275  -0.912  21.743  0.00  0.00    +0.201 C 
ATOM      3  C   UNL     1       8.478  -1.063  23.051  0.00  0.00    +0.282 C 
ATOM      4  O   UNL     1       9.050  -0.352  24.147  0.00  0.00    -0.341 OA
ATOM      5  C   UNL     1       9.636   0.940  23.946  0.00  0.00    +0.178 C 
ATOM      6  C   UNL     1      10.261   1.230  22.560  0.00  0.00    +0.177 C 
ENDROOT
BRANCH   1   7
ATOM      7  O   UNL     1       8.321   1.303  21.150  0.00  0.00    -0.386 OA
ATOM      8  H   UNL     1       8.567   2.242  21.047  0.00  0.00    +0.210 HD
ENDBRANCH   1   7
BRANCH   2   9
ATOM      9  O   UNL     1      10.540  -1.593  21.864  0.00  0.00    -0.384 OA
ATOM     10  H   UNL     1      10.506  -2.396  21.318  0.00  0.00    +0.210 HD
ENDBRANCH   2   9
BRANCH   6  11
ATOM     11  O   UNL     1      10.372   2.640  22.300  0.00  0.00    -0.386 OA
ATOM     12  H   UNL     1      10.650   3.037  23.155  0.00  0.00    +0.210 HD
ENDBRANCH   6  11
BRANCH   3  13
ATOM     13  O   UNL     1       7.086  -0.792  22.850  0.00  0.00    -0.349 OA
BRANCH  13  14
ATOM     14  C   UNL     1       6.276  -1.835  23.403  0.00  0.00    +0.163 C 
BRANCH  14  15
ATOM     15  C   UNL     1       5.819  -2.824  22.330  0.00  0.00    +0.028 C 
BRANCH  15  16
ATOM     16  C   UNL     1       5.643  -4.240  22.871  0.00  0.00    +0.002 C 
BRANCH  16  17
ATOM     17  C   UNL     1       6.920  -4.746  23.545  0.00  0.00    +0.000 C 
BRANCH  17  18
ATOM     18  C   UNL     1       6.626  -5.264  24.954  0.00  0.00    -0.000 C 
BRANCH  18  19
ATOM     19  C   UNL     1       7.871  -5.197  25.837  0.00  0.00    -0.000 C 
BRANCH  19  20
ATOM     20  C   UNL     1       8.652  -3.904  25.611  0.00  0.00    -0.003 C 
ATOM     21  C   UNL     1       8.107  -2.778  26.475  0.00  0.00    +0.004 C 
ENDBRANCH  19  20
ENDBRANCH  18  19
ENDBRANCH  17  18
ENDBRANCH  16  17
ENDBRANCH  15  16
ENDBRANCH  14  15
ENDBRANCH  13  14
ENDBRANCH   3  13
BRANCH   5  22
ATOM     22  C   UNL     1       8.772   2.085  24.502  0.00  0.00    +0.190 C 
BRANCH  22  23
ATOM     23  O   UNL     1       7.565   2.223  23.740  0.00  0.00    -0.392 OA
ATOM     24  H   UNL     1       7.720   2.954  23.104  0.00  0.00    +0.210 HD
ENDBRANCH  22  23
ENDBRANCH   5  22
TORSDOF 13
ENDMDL
