MODEL 1
REMARK VINA RESULT:      -7.2      0.000      0.000
REMARK  Name = 
REMARK  2 active torsions:
REMARK  status: ('A' for Active; 'I' for Inactive)
REMARK    1  A    between atoms: N_1  and  C_2
REMARK    2  A    between atoms: N_16  and  C_17
REMARK                            x       y       z     vdW  Elec       q    Type
REMARK                         _______ _______ _______ _____ _____    ______ ____
ROOT
ATOM      1  N   UNL     1       9.367   0.803  25.240  0.00  0.00    -0.283 N 
ATOM      2  H   UNL     1      10.308   1.164  25.327  0.00  0.00    +0.155 HD
ATOM      3  C   UNL     1       8.538   1.701  24.617  0.00  0.00    +0.224 A 
ATOM      4  N   UNL     1       9.153   2.906  24.332  0.00  0.00    -0.181 NA
ATOM      5  C   UNL     1       8.507   3.855  23.715  0.00  0.00    +0.225 A 
ATOM      6  N   UNL     1       9.018   5.099  23.387  0.00  0.00    -0.283 N 
ATOM      7  H   UNL     1       8.400   5.692  22.837  0.00  0.00    +0.155 HD
ATOM      8  N   UNL     1       7.183   3.594  23.345  0.00  0.00    -0.183 N 
ATOM      9  C   UNL     1       6.588   2.413  23.670  0.00  0.00    +0.163 A 
ATOM     10  C   UNL     1       5.292   2.513  23.228  0.00  0.00    +0.070 A 
ATOM     11  C   UNL     1       5.216   3.793  22.639  0.00  0.00    +0.137 A 
ATOM     12  N   UNL     1       6.374   4.468  22.699  0.00  0.00    -0.170 NA
ATOM     13  N   UNL     1       7.289   1.454  24.311  0.00  0.00    -0.195 NA
ENDROOT
BRANCH   6  14
ATOM     14  C   UNL     1      10.092   5.760  24.015  0.00  0.00    +0.034 A 
ATOM     15  C   UNL     1      11.395   5.580  23.526  0.00  0.00    +0.023 A 
ATOM     16  C   UNL     1      12.494   6.163  24.169  0.00  0.00    +0.002 A 
ATOM     17  C   UNL     1      12.313   6.920  25.321  0.00  0.00    +0.000 A 
ATOM     18  C   UNL     1      11.033   7.107  25.826  0.00  0.00    +0.002 A 
ATOM     19  C   UNL     1       9.940   6.531  25.176  0.00  0.00    +0.023 A 
ENDBRANCH   6  14
BRANCH   1  20
ATOM     20  C   UNL     1       9.284  -0.600  25.188  0.00  0.00    +0.034 A 
ATOM     21  C   UNL     1       8.662  -1.374  26.175  0.00  0.00    +0.023 A 
ATOM     22  C   UNL     1       8.523  -2.756  26.037  0.00  0.00    +0.002 A 
ATOM     23  C   UNL     1       9.037  -3.397  24.918  0.00  0.00    +0.000 A 
ATOM     24  C   UNL     1       9.718  -2.660  23.953  0.00  0.00    +0.002 A 
ATOM     25  C   UNL     1       9.850  -1.275  24.093  0.00  0.00    +0.023 A 
ENDBRANCH   1  20
TORSDOF 2
ENDMDL
MODEL 2
REMARK VINA RESULT:      -6.7      4.900      7.219
REMARK  Name = 
REMARK  2 active torsions:
REMARK  status: ('A' for Active; 'I' for Inactive)
REMARK    1  A    between atoms: N_1  and  C_2
REMARK    2  A    between atoms: N_16  and  C_17
REMARK                            x       y       z     vdW  Elec       q    Type
REMARK                         _______ _______ _______ _____ _____    ______ ____
ROOT
ATOM      1  N   UNL     1       6.379  -3.613  26.663  0.00  0.00    -0.283 N 
ATOM      2  H   UNL     1       7.076  -2.930  26.931  0.00  0.00    +0.155 HD
ATOM      3  C   UNL     1       6.497  -3.962  25.341  0.00  0.00    +0.224 A 
ATOM      4  N   UNL     1       7.474  -3.247  24.673  0.00  0.00    -0.181 NA
ATOM      5  C   UNL     1       7.728  -3.481  23.416  0.00  0.00    +0.225 A 
ATOM      6  N   UNL     1       8.674  -2.823  22.648  0.00  0.00    -0.283 N 
ATOM      7  H   UNL     1       8.795  -3.185  21.704  0.00  0.00    +0.155 HD
ATOM      8  N   UNL     1       6.986  -4.488  22.788  0.00  0.00    -0.183 N 
ATOM      9  C   UNL     1       6.005  -5.152  23.458  0.00  0.00    +0.163 A 
ATOM     10  C   UNL     1       5.441  -6.006  22.544  0.00  0.00    +0.070 A 
ATOM     11  C   UNL     1       6.168  -5.785  21.355  0.00  0.00    +0.137 A 
ATOM     12  N   UNL     1       7.126  -4.857  21.492  0.00  0.00    -0.170 NA
ATOM     13  N   UNL     1       5.769  -4.881  24.759  0.00  0.00    -0.195 NA
ENDROOT
BRANCH   6  14
ATOM     14  C   UNL     1       9.195  -1.535  22.875  0.00  0.00    +0.034 A 
ATOM     15  C   UNL     1       9.174  -0.588  21.839  0.00  0.00    +0.023 A 
ATOM     16  C   UNL     1       9.749   0.678  22.006  0.00  0.00    +0.002 A 
ATOM     17  C   UNL     1      10.371   1.013  23.204  0.00  0.00    +0.000 A 
ATOM     18  C   UNL     1      10.408   0.091  24.241  0.00  0.00    +0.002 A 
ATOM     19  C   UNL     1       9.826  -1.167  24.071  0.00  0.00    +0.023 A 
ENDBRANCH   6  14
BRANCH   1  20
ATOM     20  C   UNL     1       5.931  -4.431  27.716  0.00  0.00    +0.034 A 
ATOM     21  C   UNL     1       6.534  -5.646  28.059  0.00  0.00    +0.023 A 
ATOM     22  C   UNL     1       6.113  -6.381  29.169  0.00  0.00    +0.002 A 
ATOM     23  C   UNL     1       5.050  -5.927  29.939  0.00  0.00    +0.000 A 
ATOM     24  C   UNL     1       4.390  -4.756  29.581  0.00  0.00    +0.002 A 
ATOM     25  C   UNL     1       4.820  -4.020  28.472  0.00  0.00    +0.023 A 
ENDBRANCH   1  20
TORSDOF 2
ENDMDL
MODEL 3
REMARK VINA RESULT:      -6.6      5.096      9.744
REMARK  Name = 
REMARK  2 active torsions:
REMARK  status: ('A' for Active; 'I' for Inactive)
REMARK    1  A    between atoms: N_1  and  C_2
REMARK    2  A    between atoms: N_16  and  C_17
REMARK                            x       y       z     vdW  Elec       q    Type
REMARK                         _______ _______ _______ _____ _____    ______ ____
ROOT
ATOM      1  N   UNL     1       6.408  -1.199  23.213  0.00  0.00    -0.283 N 
ATOM      2  H   UNL     1       5.601  -1.286  22.610  0.00  0.00    +0.155 HD
ATOM      3  C   UNL     1       6.546  -2.292  24.030  0.00  0.00    +0.224 A 
ATOM      4  N   UNL     1       5.518  -3.207  23.899  0.00  0.00    -0.181 NA
ATOM      5  C   UNL     1       5.518  -4.314  24.587  0.00  0.00    +0.225 A 
ATOM      6  N   UNL     1       4.539  -5.293  24.541  0.00  0.00    -0.283 N 
ATOM      7  H   UNL     1       4.736  -6.129  25.087  0.00  0.00    +0.155 HD
ATOM      8  N   UNL     1       6.602  -4.537  25.443  0.00  0.00    -0.183 N 
ATOM      9  C   UNL     1       7.584  -3.604  25.582  0.00  0.00    +0.163 A 
ATOM     10  C   UNL     1       8.440  -4.102  26.533  0.00  0.00    +0.070 A 
ATOM     11  C   UNL     1       7.886  -5.349  26.892  0.00  0.00    +0.137 A 
ATOM     12  N   UNL     1       6.757  -5.633  26.224  0.00  0.00    -0.170 NA
ATOM     13  N   UNL     1       7.549  -2.468  24.853  0.00  0.00    -0.195 NA
ENDROOT
BRANCH   6  14
ATOM     14  C   UNL     1       3.196  -5.123  24.154  0.00  0.00    +0.034 A 
ATOM     15  C   UNL     1       2.371  -4.252  24.881  0.00  0.00    +0.023 A 
ATOM     16  C   UNL     1       1.013  -4.115  24.569  0.00  0.00    +0.002 A 
ATOM     17  C   UNL     1       0.451  -4.859  23.536  0.00  0.00    +0.000 A 
ATOM     18  C   UNL     1       1.247  -5.732  22.808  0.00  0.00    +0.002 A 
ATOM     19  C   UNL     1       2.603  -5.858  23.118  0.00  0.00    +0.023 A 
ENDBRANCH   6  14
BRANCH   1  20
ATOM     20  C   UNL     1       7.440  -0.397  22.693  0.00  0.00    +0.034 A 
ATOM     21  C   UNL     1       8.630  -0.915  22.171  0.00  0.00    +0.023 A 
ATOM     22  C   UNL     1       9.588  -0.088  21.582  0.00  0.00    +0.002 A 
ATOM     23  C   UNL     1       9.386   1.286  21.536  0.00  0.00    +0.000 A 
ATOM     24  C   UNL     1       8.241   1.833  22.108  0.00  0.00    +0.002 A 
ATOM     25  C   UNL     1       7.282   0.999  22.691  0.00  0.00    +0.023 A 
ENDBRANCH   1  20
TORSDOF 2
ENDMDL
MODEL 4
REMARK VINA RESULT:      -6.4      4.470      9.112
REMARK  Name = 
REMARK  2 active torsions:
REMARK  status: ('A' for Active; 'I' for Inactive)
REMARK    1  A    between atoms: N_1  and  C_2
REMARK    2  A    between atoms: N_16  and  C_17
REMARK                            x       y       z     vdW  Elec       q    Type
REMARK                         _______ _______ _______ _____ _____    ______ ____
ROOT
ATOM      1  N   UNL     1       7.986  -1.567  24.416  0.00  0.00    -0.283 N 
ATOM      2  H   UNL     1       7.641  -1.282  25.323  0.00  0.00    +0.155 HD
ATOM      3  C   UNL     1       7.438  -2.761  24.020  0.00  0.00    +0.224 A 
ATOM      4  N   UNL     1       6.617  -3.329  24.976  0.00  0.00    -0.181 NA
ATOM      5  C   UNL     1       5.998  -4.452  24.740  0.00  0.00    +0.225 A 
ATOM      6  N   UNL     1       5.162  -5.113  25.624  0.00  0.00    -0.283 N 
ATOM      7  H   UNL     1       4.699  -5.939  25.249  0.00  0.00    +0.155 HD
ATOM      8  N   UNL     1       6.189  -5.039  23.485  0.00  0.00    -0.183 N 
ATOM      9  C   UNL     1       7.032  -4.478  22.574  0.00  0.00    +0.163 A 
ATOM     10  C   UNL     1       7.040  -5.331  21.499  0.00  0.00    +0.070 A 
ATOM     11  C   UNL     1       6.156  -6.369  21.862  0.00  0.00    +0.137 A 
ATOM     12  N   UNL     1       5.620  -6.200  23.080  0.00  0.00    -0.170 NA
ATOM     13  N   UNL     1       7.657  -3.315  22.855  0.00  0.00    -0.195 NA
ENDROOT
BRANCH   6  14
ATOM     14  C   UNL     1       5.165  -5.005  27.028  0.00  0.00    +0.034 A 
ATOM     15  C   UNL     1       5.910  -5.917  27.791  0.00  0.00    +0.023 A 
ATOM     16  C   UNL     1       5.878  -5.884  29.190  0.00  0.00    +0.002 A 
ATOM     17  C   UNL     1       5.088  -4.951  29.853  0.00  0.00    +0.000 A 
ATOM     18  C   UNL     1       4.338  -4.043  29.119  0.00  0.00    +0.002 A 
ATOM     19  C   UNL     1       4.380  -4.074  27.724  0.00  0.00    +0.023 A 
ENDBRANCH   6  14
BRANCH   1  20
ATOM     20  C   UNL     1       8.387  -0.505  23.586  0.00  0.00    +0.034 A 
ATOM     21  C   UNL     1       9.718  -0.269  23.224  0.00  0.00    +0.023 A 
ATOM     22  C   UNL     1      10.060   0.742  22.324  0.00  0.00    +0.002 A 
ATOM     23  C   UNL     1       9.073   1.563  21.795  0.00  0.00    +0.000 A 
ATOM     24  C   UNL     1       7.749   1.392  22.189  0.00  0.00    +0.002 A 
ATOM     25  C   UNL     1       7.412   0.374  23.086  0.00  0.00    +0.023 A 
ENDBRANCH   1  20
TORSDOF 2
ENDMDL
MODEL 5
REMARK VINA RESULT:      -6.3      2.193      4.660
REMARK  Name = 
REMARK  2 active torsions:
REMARK  status: ('A' for Active; 'I' for Inactive)
REMARK    1  A    between atoms: N_1  and  C_2
REMARK    2  A    between atoms: N_16  and  C_17
REMARK                            x       y       z     vdW  Elec       q    Type
REMARK                         _______ _______ _______ _____ _____    ______ ____
ROOT
ATOM      1  N   UNL     1       8.557   1.721  22.897  0.00  0.00    -0.283 N 
ATOM      2  H   UNL     1       7.567   1.856  23.060  0.00  0.00    +0.155 HD
ATOM      3  C   UNL     1       9.272   2.862  23.160  0.00  0.00    +0.224 A 
ATOM      4  N   UNL     1       8.476   3.939  23.502  0.00  0.00    -0.181 NA
ATOM      5  C   UNL     1       9.006   5.089  23.809  0.00  0.00    +0.225 A 
ATOM      6  N   UNL     1       8.308   6.233  24.156  0.00  0.00    -0.283 N 
ATOM      7  H   UNL     1       8.883   7.024  24.441  0.00  0.00    +0.155 HD
ATOM      8  N   UNL     1      10.403   5.177  23.791  0.00  0.00    -0.183 N 
ATOM      9  C   UNL     1      11.163   4.112  23.415  0.00  0.00    +0.163 A 
ATOM     10  C   UNL     1      12.463   4.553  23.442  0.00  0.00    +0.070 A 
ATOM     11  C   UNL     1      12.373   5.897  23.860  0.00  0.00    +0.137 A 
ATOM     12  N   UNL     1      11.111   6.294  24.084  0.00  0.00    -0.170 NA
ATOM     13  N   UNL     1      10.577   2.936  23.103  0.00  0.00    -0.195 NA
ENDROOT
BRANCH   6  14
ATOM     14  C   UNL     1       6.977   6.543  23.818  0.00  0.00    +0.034 A 
ATOM     15  C   UNL     1       5.975   6.453  24.797  0.00  0.00    +0.023 A 
ATOM     16  C   UNL     1       4.631   6.683  24.478  0.00  0.00    +0.002 A 
ATOM     17  C   UNL     1       4.262   6.989  23.172  0.00  0.00    +0.000 A 
ATOM     18  C   UNL     1       5.235   7.077  22.186  0.00  0.00    +0.002 A 
ATOM     19  C   UNL     1       6.575   6.856  22.511  0.00  0.00    +0.023 A 
ENDBRANCH   6  14
BRANCH   1  20
ATOM     20  C   UNL     1       8.996   0.393  23.053  0.00  0.00    +0.034 A 
ATOM     21  C   UNL     1       9.596  -0.345  22.027  0.00  0.00    +0.023 A 
ATOM     22  C   UNL     1      10.100  -1.628  22.251  0.00  0.00    +0.002 A 
ATOM     23  C   UNL     1       9.981  -2.210  23.506  0.00  0.00    +0.000 A 
ATOM     24  C   UNL     1       9.330  -1.523  24.526  0.00  0.00    +0.002 A 
ATOM     25  C   UNL     1       8.832  -0.237  24.298  0.00  0.00    +0.023 A 
ENDBRANCH   1  20
TORSDOF 2
ENDMDL
MODEL 6
REMARK VINA RESULT:      -6.3      3.507      5.428
REMARK  Name = 
REMARK  2 active torsions:
REMARK  status: ('A' for Active; 'I' for Inactive)
REMARK    1  A    between atoms: N_1  and  C_2
REMARK    2  A    between atoms: N_16  and  C_17
REMARK                            x       y       z     vdW  Elec       q    Type
REMARK                         _______ _______ _______ _____ _____    ______ ____
ROOT
ATOM      1  N   UNL     1       6.509  -2.237  23.706  0.00  0.00    -0.283 N 
ATOM      2  H   UNL     1       6.064  -2.321  24.610  0.00  0.00    +0.155 HD
ATOM      3  C   UNL     1       7.307  -1.123  23.637  0.00  0.00    +0.224 A 
ATOM      4  N   UNL     1       7.252  -0.341  24.775  0.00  0.00    -0.181 NA
ATOM      5  C   UNL     1       7.975   0.739  24.878  0.00  0.00    +0.225 A 
ATOM      6  N   UNL     1       7.994   1.598  25.963  0.00  0.00    -0.283 N 
ATOM      7  H   UNL     1       8.675   2.353  25.908  0.00  0.00    +0.155 HD
ATOM      8  N   UNL     1       8.810   1.056  23.801  0.00  0.00    -0.183 N 
ATOM      9  C   UNL     1       8.818   0.289  22.676  0.00  0.00    +0.163 A 
ATOM     10  C   UNL     1       9.681   0.911  21.807  0.00  0.00    +0.070 A 
ATOM     11  C   UNL     1      10.148   2.038  22.515  0.00  0.00    +0.137 A 
ATOM     12  N   UNL     1       9.625   2.137  23.746  0.00  0.00    -0.170 NA
ATOM     13  N   UNL     1       8.054  -0.821  22.606  0.00  0.00    -0.195 NA
ENDROOT
BRANCH   6  14
ATOM     14  C   UNL     1       6.974   1.771  26.918  0.00  0.00    +0.034 A 
ATOM     15  C   UNL     1       7.038   1.071  28.133  0.00  0.00    +0.023 A 
ATOM     16  C   UNL     1       6.005   1.162  29.074  0.00  0.00    +0.002 A 
ATOM     17  C   UNL     1       4.882   1.939  28.811  0.00  0.00    +0.000 A 
ATOM     18  C   UNL     1       4.795   2.636  27.614  0.00  0.00    +0.002 A 
ATOM     19  C   UNL     1       5.831   2.548  26.682  0.00  0.00    +0.023 A 
ENDBRANCH   6  14
BRANCH   1  20
ATOM     20  C   UNL     1       6.706  -3.460  23.039  0.00  0.00    +0.034 A 
ATOM     21  C   UNL     1       7.586  -4.451  23.489  0.00  0.00    +0.023 A 
ATOM     22  C   UNL     1       7.682  -5.686  22.847  0.00  0.00    +0.002 A 
ATOM     23  C   UNL     1       6.920  -5.941  21.714  0.00  0.00    +0.000 A 
ATOM     24  C   UNL     1       6.086  -4.949  21.207  0.00  0.00    +0.002 A 
ATOM     25  C   UNL     1       5.989  -3.715  21.858  0.00  0.00    +0.023 A 
ENDBRANCH   1  20
TORSDOF 2
ENDMDL
MODEL 7
REMARK VINA RESULT:      -6.1      4.698      7.470
REMARK  Name = 
REMARK  2 active torsions:
REMARK  status: ('A' for Active; 'I' for Inactive)
REMARK    1  A    between atoms: N_1  and  C_2
REMARK    2  A    between atoms: N_16  and  C_17
REMARK                            x       y       z     vdW  Elec       q    Type
REMARK                         _______ _______ _______ _____ _____    ______ ____
ROOT
ATOM      1  N   UNL     1       4.554  -3.891  23.305  0.00  0.00    -0.283 N 
ATOM      2  H   UNL     1       4.267  -2.957  23.043  0.00  0.00    +0.155 HD
ATOM      3  C   UNL     1       5.849  -3.913  23.756  0.00  0.00    +0.224 A 
ATOM      4  N   UNL     1       6.478  -2.685  23.672  0.00  0.00    -0.181 NA
ATOM      5  C   UNL     1       7.704  -2.535  24.088  0.00  0.00    +0.225 A 
ATOM      6  N   UNL     1       8.433  -1.358  24.044  0.00  0.00    -0.283 N 
ATOM      7  H   UNL     1       9.351  -1.399  24.483  0.00  0.00    +0.155 HD
ATOM      8  N   UNL     1       8.340  -3.657  24.631  0.00  0.00    -0.183 N 
ATOM      9  C   UNL     1       7.711  -4.864  24.669  0.00  0.00    +0.163 A 
ATOM     10  C   UNL     1       8.626  -5.745  25.189  0.00  0.00    +0.070 A 
ATOM     11  C   UNL     1       9.771  -4.960  25.443  0.00  0.00    +0.137 A 
ATOM     12  N   UNL     1       9.608  -3.671  25.109  0.00  0.00    -0.170 NA
ATOM     13  N   UNL     1       6.441  -4.981  24.227  0.00  0.00    -0.195 NA
ENDROOT
BRANCH   6  14
ATOM     14  C   UNL     1       8.224  -0.270  23.175  0.00  0.00    +0.034 A 
ATOM     15  C   UNL     1       9.164   0.003  22.170  0.00  0.00    +0.023 A 
ATOM     16  C   UNL     1       9.026   1.120  21.336  0.00  0.00    +0.002 A 
ATOM     17  C   UNL     1       7.955   1.992  21.503  0.00  0.00    +0.000 A 
ATOM     18  C   UNL     1       7.016   1.745  22.494  0.00  0.00    +0.002 A 
ATOM     19  C   UNL     1       7.154   0.626  23.318  0.00  0.00    +0.023 A 
ENDBRANCH   6  14
BRANCH   1  20
ATOM     20  C   UNL     1       3.501  -4.730  23.715  0.00  0.00    +0.034 A 
ATOM     21  C   UNL     1       2.650  -4.431  24.785  0.00  0.00    +0.023 A 
ATOM     22  C   UNL     1       1.562  -5.247  25.100  0.00  0.00    +0.002 A 
ATOM     23  C   UNL     1       1.326  -6.402  24.366  0.00  0.00    +0.000 A 
ATOM     24  C   UNL     1       2.195  -6.756  23.338  0.00  0.00    +0.002 A 
ATOM     25  C   UNL     1       3.280  -5.932  23.024  0.00  0.00    +0.023 A 
ENDBRANCH   1  20
TORSDOF 2
ENDMDL
MODEL 8
REMARK VINA RESULT:      -6.1      2.703      6.985
REMARK  Name = 
REMARK  2 active torsions:
REMARK  status: ('A' for Active; 'I' for Inactive)
REMARK    1  A    between atoms: N_1  and  C_2
REMARK    2  A    between atoms: N_16  and  C_17
REMARK                            x       y       z     vdW  Elec       q    Type
REMARK                         _______ _______ _______ _____ _____    ______ ____
ROOT
ATOM      1  N   UNL     1       6.978   4.217  25.176  0.00  0.00    -0.283 N 
ATOM      2  H   UNL     1       6.568   3.374  24.796  0.00  0.00    +0.155 HD
ATOM      3  C   UNL     1       8.264   4.397  24.733  0.00  0.00    +0.224 A 
ATOM      4  N   UNL     1       8.722   3.355  23.948  0.00  0.00    -0.181 NA
ATOM      5  C   UNL     1       9.916   3.389  23.426  0.00  0.00    +0.225 A 
ATOM      6  N   UNL     1      10.480   2.402  22.635  0.00  0.00    -0.283 N 
ATOM      7  H   UNL     1      11.394   2.626  22.247  0.00  0.00    +0.155 HD
ATOM      8  N   UNL     1      10.696   4.522  23.682  0.00  0.00    -0.183 N 
ATOM      9  C   UNL     1      10.236   5.518  24.488  0.00  0.00    +0.163 A 
ATOM     10  C   UNL     1      11.261   6.427  24.581  0.00  0.00    +0.070 A 
ATOM     11  C   UNL     1      12.289   5.886  23.780  0.00  0.00    +0.137 A 
ATOM     12  N   UNL     1      11.954   4.716  23.215  0.00  0.00    -0.170 NA
ATOM     13  N   UNL     1       8.994   5.447  25.012  0.00  0.00    -0.195 NA
ENDROOT
BRANCH   6  14
ATOM     14  C   UNL     1      10.127   1.039  22.610  0.00  0.00    +0.034 A 
ATOM     15  C   UNL     1      10.480   0.213  23.689  0.00  0.00    +0.023 A 
ATOM     16  C   UNL     1      10.210  -1.160  23.665  0.00  0.00    +0.002 A 
ATOM     17  C   UNL     1       9.599  -1.737  22.557  0.00  0.00    +0.000 A 
ATOM     18  C   UNL     1       9.246  -0.941  21.476  0.00  0.00    +0.002 A 
ATOM     19  C   UNL     1       9.510   0.430  21.508  0.00  0.00    +0.023 A 
ENDBRANCH   6  14
BRANCH   1  20
ATOM     20  C   UNL     1       6.048   5.221  25.499  0.00  0.00    +0.034 A 
ATOM     21  C   UNL     1       5.393   6.004  24.541  0.00  0.00    +0.023 A 
ATOM     22  C   UNL     1       4.410   6.927  24.902  0.00  0.00    +0.002 A 
ATOM     23  C   UNL     1       4.087   7.108  26.241  0.00  0.00    +0.000 A 
ATOM     24  C   UNL     1       4.769   6.390  27.218  0.00  0.00    +0.002 A 
ATOM     25  C   UNL     1       5.749   5.463  26.850  0.00  0.00    +0.023 A 
ENDBRANCH   1  20
TORSDOF 2
ENDMDL
MODEL 9
REMARK VINA RESULT:      -6.0      3.363      5.426
REMARK  Name = 
REMARK  2 active torsions:
REMARK  status: ('A' for Active; 'I' for Inactive)
REMARK    1  A    between atoms: N_1  and  C_2
REMARK    2  A    between atoms: N_16  and  C_17
REMARK                            x       y       z     vdW  Elec       q    Type
REMARK                         _______ _______ _______ _____ _____    ______ ____
ROOT
ATOM      1  N   UNL     1       6.043  -1.898  22.648  0.00  0.00    -0.283 N 
ATOM      2  H   UNL     1       5.113  -1.513  22.752  0.00  0.00    +0.155 HD
ATOM      3  C   UNL     1       7.002  -1.029  23.103  0.00  0.00    +0.224 A 
ATOM      4  N   UNL     1       6.488   0.186  23.515  0.00  0.00    -0.181 NA
ATOM      5  C   UNL     1       7.268   1.111  24.000  0.00  0.00    +0.225 A 
ATOM      6  N   UNL     1       6.864   2.363  24.433  0.00  0.00    -0.283 N 
ATOM      7  H   UNL     1       7.594   2.932  24.855  0.00  0.00    +0.155 HD
ATOM      8  N   UNL     1       8.631   0.813  24.099  0.00  0.00    -0.183 N 
ATOM      9  C   UNL     1       9.118  -0.378  23.653  0.00  0.00    +0.163 A 
ATOM     10  C   UNL     1      10.478  -0.316  23.831  0.00  0.00    +0.070 A 
ATOM     11  C   UNL     1      10.703   0.954  24.405  0.00  0.00    +0.137 A 
ATOM     12  N   UNL     1       9.575   1.658  24.580  0.00  0.00    -0.170 NA
ATOM     13  N   UNL     1       8.279  -1.310  23.154  0.00  0.00    -0.195 NA
ENDROOT
BRANCH   6  14
ATOM     14  C   UNL     1       5.706   3.058  24.036  0.00  0.00    +0.034 A 
ATOM     15  C   UNL     1       5.826   4.187  23.211  0.00  0.00    +0.023 A 
ATOM     16  C   UNL     1       4.703   4.945  22.857  0.00  0.00    +0.002 A 
ATOM     17  C   UNL     1       3.443   4.599  23.334  0.00  0.00    +0.000 A 
ATOM     18  C   UNL     1       3.302   3.489  24.156  0.00  0.00    +0.002 A 
ATOM     19  C   UNL     1       4.423   2.732  24.499  0.00  0.00    +0.023 A 
ENDBRANCH   6  14
BRANCH   1  20
ATOM     20  C   UNL     1       6.097  -3.303  22.671  0.00  0.00    +0.034 A 
ATOM     21  C   UNL     1       5.976  -4.060  23.842  0.00  0.00    +0.023 A 
ATOM     22  C   UNL     1       5.943  -5.456  23.808  0.00  0.00    +0.002 A 
ATOM     23  C   UNL     1       6.067  -6.123  22.596  0.00  0.00    +0.000 A 
ATOM     24  C   UNL     1       6.254  -5.395  21.424  0.00  0.00    +0.002 A 
ATOM     25  C   UNL     1       6.280  -3.998  21.464  0.00  0.00    +0.023 A 
ENDBRANCH   1  20
TORSDOF 2
ENDMDL
