MODEL 1
REMARK VINA RESULT:      -7.3      0.000      0.000
REMARK  Name = 
REMARK  7 active torsions:
REMARK  status: ('A' for Active; 'I' for Inactive)
REMARK    1  A    between atoms: CA_6  and  C_28
REMARK    2  A    between atoms: CA_11  and  N_15
REMARK    3  A    between atoms: C_16  and  C_18
REMARK    4  A    between atoms: C_18  and  S_20
REMARK    5  A    between atoms: C_18  and  C_21
REMARK    6  A    between atoms: C_21  and  C_22
REMARK    7  A    between atoms: C_28  and  O_29
REMARK                            x       y       z     vdW  Elec       q    Type
REMARK                         _______ _______ _______ _____ _____    ______ ____
ROOT
ATOM      1  C   UNK A   1       6.449  -4.636  25.337  0.00  0.00    +0.135 C 
ATOM      2  S   UNK A   1       7.450  -5.266  26.682  0.00  0.00    -0.138 S 
ATOM      3  C   UNK A   1       8.913  -4.227  26.662  0.00  0.00    +0.073 C 
ATOM      4  C   UNK A   1       9.723  -4.416  25.403  0.00  0.00    +0.042 C 
ATOM      5  C   UNK A   1       9.229  -3.661  24.183  0.00  0.00    +0.160 C 
ATOM      6  C   UNK A   1       7.951  -4.076  23.427  0.00  0.00    +0.237 C 
ATOM      7  O   UNK A   1       7.842  -3.704  22.252  0.00  0.00    -0.274 OA
ATOM      8  N   UNK A   1       6.921  -4.849  23.971  0.00  0.00    -0.275 N 
ATOM      9  C   UNK A   1       5.735  -4.994  23.069  0.00  0.00    +0.186 C 
ATOM     10  C   UNK A   1       4.922  -3.677  23.050  0.00  0.00    +0.034 C 
ATOM     11  C   UNK A   1       4.550  -3.237  24.480  0.00  0.00    +0.005 C 
ATOM     12  C   UNK A   1       5.751  -3.270  25.458  0.00  0.00    +0.034 C 
ENDROOT
BRANCH   5  13
ATOM     13  N   UNK A   1       9.281  -2.206  24.338  0.00  0.00    -0.303 N 
ATOM     14  H   UNK A   1       8.758  -1.781  25.089  0.00  0.00    +0.149 HD
ATOM     15  C   UNK A   0       9.939  -1.402  23.426  0.00  0.00    +0.227 C 
ATOM     16  O   UNK A   0      10.566  -1.862  22.473  0.00  0.00    -0.275 OA
BRANCH  15  17
ATOM     17  C   UNK A   0       9.839   0.120  23.627  0.00  0.00    +0.133 C 
BRANCH  17  18
ATOM     18  S   UNK A   0      11.211   0.668  24.700  0.00  0.00    -0.165 S 
ATOM     19  H   UNK A   0      12.189   0.166  23.924  0.00  0.00    +0.102 HD
ENDBRANCH  17  18
BRANCH  17  20
ATOM     20  C   UNK A   0       9.771   0.956  22.342  0.00  0.00    +0.058 C 
BRANCH  20  21
ATOM     21  C   UNK A   0       8.842   2.149  22.439  0.00  0.00    -0.046 A 
ATOM     22  C   UNK A   0       7.600   2.120  21.783  0.00  0.00    +0.004 A 
ATOM     23  C   UNK A   0       6.694   3.169  21.940  0.00  0.00    +0.000 A 
ATOM     24  C   UNK A   0       7.019   4.262  22.740  0.00  0.00    +0.000 A 
ATOM     25  C   UNK A   0       8.265   4.325  23.356  0.00  0.00    +0.000 A 
ATOM     26  C   UNK A   0       9.178   3.288  23.190  0.00  0.00    +0.004 A 
ENDBRANCH  20  21
ENDBRANCH  17  20
ENDBRANCH  15  17
ENDBRANCH   5  13
BRANCH   9  27
ATOM     27  C   UNK A   1       5.909  -5.627  21.671  0.00  0.00    +0.325 C 
ATOM     28  O   UNK A   2       6.344  -6.756  21.485  0.00  0.00    -0.249 OA
BRANCH  27  29
ATOM     29  O   UNK A   2       5.717  -4.761  20.648  0.00  0.00    -0.479 OA
ATOM     30  H   UNK A   2       6.423  -4.844  19.981  0.00  0.00    +0.295 HD
ENDBRANCH  27  29
ENDBRANCH   9  27
TORSDOF 7
ENDMDL
MODEL 2
REMARK VINA RESULT:      -7.2      2.739      3.707
REMARK  Name = 
REMARK  7 active torsions:
REMARK  status: ('A' for Active; 'I' for Inactive)
REMARK    1  A    between atoms: CA_6  and  C_28
REMARK    2  A    between atoms: CA_11  and  N_15
REMARK    3  A    between atoms: C_16  and  C_18
REMARK    4  A    between atoms: C_18  and  S_20
REMARK    5  A    between atoms: C_18  and  C_21
REMARK    6  A    between atoms: C_21  and  C_22
REMARK    7  A    between atoms: C_28  and  O_29
REMARK                            x       y       z     vdW  Elec       q    Type
REMARK                         _______ _______ _______ _____ _____    ______ ____
ROOT
ATOM      1  C   UNK A   1       6.234  -2.460  25.502  0.00  0.00    +0.135 C 
ATOM      2  S   UNK A   1       5.676  -1.526  26.926  0.00  0.00    -0.138 S 
ATOM      3  C   UNK A   1       6.643  -0.016  26.866  0.00  0.00    +0.073 C 
ATOM      4  C   UNK A   1       8.114  -0.279  27.078  0.00  0.00    +0.042 C 
ATOM      5  C   UNK A   1       8.879  -0.761  25.860  0.00  0.00    +0.160 C 
ATOM      6  C   UNK A   1       8.703  -2.184  25.294  0.00  0.00    +0.237 C 
ATOM      7  O   UNK A   1       9.622  -2.634  24.597  0.00  0.00    -0.274 OA
ATOM      8  N   UNK A   1       7.591  -3.000  25.524  0.00  0.00    -0.275 N 
ATOM      9  C   UNK A   1       7.612  -4.280  24.749  0.00  0.00    +0.186 C 
ATOM     10  C   UNK A   1       7.275  -4.004  23.263  0.00  0.00    +0.034 C 
ATOM     11  C   UNK A   1       5.946  -3.234  23.133  0.00  0.00    +0.005 C 
ATOM     12  C   UNK A   1       5.855  -2.011  24.080  0.00  0.00    +0.034 C 
ENDROOT
BRANCH   5  13
ATOM     13  N   UNK A   1       8.920   0.220  24.773  0.00  0.00    -0.303 N 
ATOM     14  H   UNK A   1       8.074   0.402  24.254  0.00  0.00    +0.149 HD
ATOM     15  C   UNK A   0      10.103   0.816  24.379  0.00  0.00    +0.227 C 
ATOM     16  O   UNK A   0      11.170   0.609  24.953  0.00  0.00    -0.275 OA
BRANCH  15  17
ATOM     17  C   UNK A   0      10.049   1.750  23.156  0.00  0.00    +0.133 C 
BRANCH  17  18
ATOM     18  S   UNK A   0       9.273   0.860  21.763  0.00  0.00    -0.165 S 
ATOM     19  H   UNK A   0       9.101   1.950  20.994  0.00  0.00    +0.102 HD
ENDBRANCH  17  18
BRANCH  17  20
ATOM     20  C   UNK A   0       9.377   3.110  23.389  0.00  0.00    +0.058 C 
BRANCH  20  21
ATOM     21  C   UNK A   0      10.358   4.241  23.628  0.00  0.00    -0.046 A 
ATOM     22  C   UNK A   0       9.924   5.417  24.260  0.00  0.00    +0.004 A 
ATOM     23  C   UNK A   0      10.833   6.428  24.573  0.00  0.00    +0.000 A 
ATOM     24  C   UNK A   0      12.180   6.284  24.247  0.00  0.00    +0.000 A 
ATOM     25  C   UNK A   0      12.614   5.144  23.577  0.00  0.00    +0.000 A 
ATOM     26  C   UNK A   0      11.707   4.139  23.251  0.00  0.00    +0.004 A 
ENDBRANCH  20  21
ENDBRANCH  17  20
ENDBRANCH  15  17
ENDBRANCH   5  13
BRANCH   9  27
ATOM     27  C   UNK A   1       8.782  -5.271  24.938  0.00  0.00    +0.325 C 
ATOM     28  O   UNK A   2       9.221  -5.982  24.044  0.00  0.00    -0.249 OA
BRANCH  27  29
ATOM     29  O   UNK A   2       9.165  -5.428  26.226  0.00  0.00    -0.479 OA
ATOM     30  H   UNK A   2       9.894  -6.073  26.300  0.00  0.00    +0.295 HD
ENDBRANCH  27  29
ENDBRANCH   9  27
TORSDOF 7
ENDMDL
MODEL 3
REMARK VINA RESULT:      -7.0      2.618      3.649
REMARK  Name = 
REMARK  7 active torsions:
REMARK  status: ('A' for Active; 'I' for Inactive)
REMARK    1  A    between atoms: CA_6  and  C_28
REMARK    2  A    between atoms: CA_11  and  N_15
REMARK    3  A    between atoms: C_16  and  C_18
REMARK    4  A    between atoms: C_18  and  S_20
REMARK    5  A    between atoms: C_18  and  C_21
REMARK    6  A    between atoms: C_21  and  C_22
REMARK    7  A    between atoms: C_28  and  O_29
REMARK                            x       y       z     vdW  Elec       q    Type
REMARK                         _______ _______ _______ _____ _____    ______ ____
ROOT
ATOM      1  C   UNK A   1       3.544  -4.951  26.710  0.00  0.00    +0.135 C 
ATOM      2  S   UNK A   1       4.393  -5.051  28.285  0.00  0.00    -0.138 S 
ATOM      3  C   UNK A   1       6.079  -4.573  27.904  0.00  0.00    +0.073 C 
ATOM      4  C   UNK A   1       6.756  -5.567  26.991  0.00  0.00    +0.042 C 
ATOM      5  C   UNK A   1       6.434  -5.430  25.515  0.00  0.00    +0.160 C 
ATOM      6  C   UNK A   1       5.062  -5.827  24.936  0.00  0.00    +0.237 C 
ATOM      7  O   UNK A   1       5.009  -6.081  23.726  0.00  0.00    -0.274 OA
ATOM      8  N   UNK A   1       3.884  -5.932  25.683  0.00  0.00    -0.275 N 
ATOM      9  C   UNK A   1       2.667  -6.203  24.854  0.00  0.00    +0.186 C 
ATOM     10  C   UNK A   1       2.240  -4.918  24.106  0.00  0.00    +0.034 C 
ATOM     11  C   UNK A   1       2.061  -3.742  25.086  0.00  0.00    +0.005 C 
ATOM     12  C   UNK A   1       3.247  -3.583  26.071  0.00  0.00    +0.034 C 
ENDROOT
BRANCH   5  13
ATOM     13  N   UNK A   1       6.884  -4.162  24.937  0.00  0.00    -0.303 N 
ATOM     14  H   UNK A   1       6.260  -3.370  24.963  0.00  0.00    +0.149 HD
ATOM     15  C   UNK A   0       8.091  -4.056  24.270  0.00  0.00    +0.227 C 
ATOM     16  O   UNK A   0       8.878  -4.996  24.178  0.00  0.00    -0.275 OA
BRANCH  15  17
ATOM     17  C   UNK A   0       8.415  -2.705  23.608  0.00  0.00    +0.133 C 
BRANCH  17  18
ATOM     18  S   UNK A   0       7.214  -1.457  24.185  0.00  0.00    -0.165 S 
ATOM     19  H   UNK A   0       7.549  -1.548  25.485  0.00  0.00    +0.102 HD
ENDBRANCH  17  18
BRANCH  17  20
ATOM     20  C   UNK A   0       9.857  -2.210  23.783  0.00  0.00    +0.058 C 
BRANCH  20  21
ATOM     21  C   UNK A   0      10.048  -0.749  23.424  0.00  0.00    -0.046 A 
ATOM     22  C   UNK A   0       9.793  -0.316  22.113  0.00  0.00    +0.004 A 
ATOM     23  C   UNK A   0       9.872   1.039  21.789  0.00  0.00    +0.000 A 
ATOM     24  C   UNK A   0      10.217   1.973  22.764  0.00  0.00    +0.000 A 
ATOM     25  C   UNK A   0      10.519   1.550  24.055  0.00  0.00    +0.000 A 
ATOM     26  C   UNK A   0      10.455   0.198  24.378  0.00  0.00    +0.004 A 
ENDBRANCH  20  21
ENDBRANCH  17  20
ENDBRANCH  15  17
ENDBRANCH   5  13
BRANCH   9  27
ATOM     27  C   UNK A   1       2.606  -7.473  23.976  0.00  0.00    +0.325 C 
ATOM     28  O   UNK A   2       2.763  -8.607  24.409  0.00  0.00    -0.249 OA
BRANCH  27  29
ATOM     29  O   UNK A   2       2.549  -7.219  22.648  0.00  0.00    -0.479 OA
ATOM     30  H   UNK A   2       3.184  -7.773  22.157  0.00  0.00    +0.295 HD
ENDBRANCH  27  29
ENDBRANCH   9  27
TORSDOF 7
ENDMDL
MODEL 4
REMARK VINA RESULT:      -6.9      3.118      4.534
REMARK  Name = 
REMARK  7 active torsions:
REMARK  status: ('A' for Active; 'I' for Inactive)
REMARK    1  A    between atoms: CA_6  and  C_28
REMARK    2  A    between atoms: CA_11  and  N_15
REMARK    3  A    between atoms: C_16  and  C_18
REMARK    4  A    between atoms: C_18  and  S_20
REMARK    5  A    between atoms: C_18  and  C_21
REMARK    6  A    between atoms: C_21  and  C_22
REMARK    7  A    between atoms: C_28  and  O_29
REMARK                            x       y       z     vdW  Elec       q    Type
REMARK                         _______ _______ _______ _____ _____    ______ ____
ROOT
ATOM      1  C   UNK A   1       7.657  -4.997  23.982  0.00  0.00    +0.135 C 
ATOM      2  S   UNK A   1       7.024  -5.125  22.311  0.00  0.00    -0.138 S 
ATOM      3  C   UNK A   1       6.285  -3.520  21.999  0.00  0.00    +0.073 C 
ATOM      4  C   UNK A   1       5.092  -3.266  22.888  0.00  0.00    +0.042 C 
ATOM      5  C   UNK A   1       5.408  -2.793  24.295  0.00  0.00    +0.160 C 
ATOM      6  C   UNK A   1       6.005  -3.735  25.359  0.00  0.00    +0.237 C 
ATOM      7  O   UNK A   1       5.849  -3.420  26.546  0.00  0.00    -0.274 OA
ATOM      8  N   UNK A   1       6.693  -4.919  25.077  0.00  0.00    -0.275 N 
ATOM      9  C   UNK A   1       7.284  -5.575  26.286  0.00  0.00    +0.186 C 
ATOM     10  C   UNK A   1       8.538  -4.795  26.751  0.00  0.00    +0.034 C 
ATOM     11  C   UNK A   1       9.544  -4.627  25.595  0.00  0.00    +0.005 C 
ATOM     12  C   UNK A   1       8.888  -4.124  24.285  0.00  0.00    +0.034 C 
ENDROOT
BRANCH   5  13
ATOM     13  N   UNK A   1       6.075  -1.490  24.334  0.00  0.00    -0.303 N 
ATOM     14  H   UNK A   1       6.955  -1.383  23.853  0.00  0.00    +0.149 HD
ATOM     15  C   UNK A   0       5.583  -0.446  25.095  0.00  0.00    +0.227 C 
ATOM     16  O   UNK A   0       4.532  -0.529  25.729  0.00  0.00    -0.275 OA
BRANCH  15  17
ATOM     17  C   UNK A   0       6.421   0.844  25.149  0.00  0.00    +0.133 C 
BRANCH  17  18
ATOM     18  S   UNK A   0       5.748   1.935  26.449  0.00  0.00    -0.165 S 
ATOM     19  H   UNK A   0       5.941   3.079  25.769  0.00  0.00    +0.102 HD
ENDBRANCH  17  18
BRANCH  17  20
ATOM     20  C   UNK A   0       7.934   0.646  25.318  0.00  0.00    +0.058 C 
BRANCH  20  21
ATOM     21  C   UNK A   0       8.749   1.152  24.145  0.00  0.00    -0.046 A 
ATOM     22  C   UNK A   0       9.543   2.300  24.293  0.00  0.00    +0.004 A 
ATOM     23  C   UNK A   0      10.373   2.725  23.255  0.00  0.00    +0.000 A 
ATOM     24  C   UNK A   0      10.409   2.018  22.054  0.00  0.00    +0.000 A 
ATOM     25  C   UNK A   0       9.590   0.907  21.878  0.00  0.00    +0.000 A 
ATOM     26  C   UNK A   0       8.751   0.489  22.907  0.00  0.00    +0.004 A 
ENDBRANCH  20  21
ENDBRANCH  17  20
ENDBRANCH  15  17
ENDBRANCH   5  13
BRANCH   9  27
ATOM     27  C   UNK A   1       6.365  -6.006  27.450  0.00  0.00    +0.325 C 
ATOM     28  O   UNK A   2       5.469  -6.833  27.338  0.00  0.00    -0.249 OA
BRANCH  27  29
ATOM     29  O   UNK A   2       6.506  -5.257  28.568  0.00  0.00    -0.479 OA
ATOM     30  H   UNK A   2       6.413  -5.803  29.371  0.00  0.00    +0.295 HD
ENDBRANCH  27  29
ENDBRANCH   9  27
TORSDOF 7
ENDMDL
MODEL 5
REMARK VINA RESULT:      -6.9      2.604      3.294
REMARK  Name = 
REMARK  7 active torsions:
REMARK  status: ('A' for Active; 'I' for Inactive)
REMARK    1  A    between atoms: CA_6  and  C_28
REMARK    2  A    between atoms: CA_11  and  N_15
REMARK    3  A    between atoms: C_16  and  C_18
REMARK    4  A    between atoms: C_18  and  S_20
REMARK    5  A    between atoms: C_18  and  C_21
REMARK    6  A    between atoms: C_21  and  C_22
REMARK    7  A    between atoms: C_28  and  O_29
REMARK                            x       y       z     vdW  Elec       q    Type
REMARK                         _______ _______ _______ _____ _____    ______ ____
ROOT
ATOM      1  C   UNK A   1       5.518  -2.542  25.417  0.00  0.00    +0.135 C 
ATOM      2  S   UNK A   1       4.864  -1.043  26.148  0.00  0.00    -0.138 S 
ATOM      3  C   UNK A   1       6.068   0.215  25.715  0.00  0.00    +0.073 C 
ATOM      4  C   UNK A   1       7.404  -0.033  26.372  0.00  0.00    +0.042 C 
ATOM      5  C   UNK A   1       8.295  -1.052  25.688  0.00  0.00    +0.160 C 
ATOM      6  C   UNK A   1       7.991  -2.562  25.730  0.00  0.00    +0.237 C 
ATOM      7  O   UNK A   1       8.936  -3.336  25.528  0.00  0.00    -0.274 OA
ATOM      8  N   UNK A   1       6.733  -3.114  25.991  0.00  0.00    -0.275 N 
ATOM      9  C   UNK A   1       6.683  -4.602  25.840  0.00  0.00    +0.186 C 
ATOM     10  C   UNK A   1       6.690  -4.981  24.339  0.00  0.00    +0.034 C 
ATOM     11  C   UNK A   1       5.562  -4.253  23.581  0.00  0.00    +0.005 C 
ATOM     12  C   UNK A   1       5.501  -2.736  23.890  0.00  0.00    +0.034 C 
ENDROOT
BRANCH   5  13
ATOM     13  N   UNK A   1       8.710  -0.651  24.343  0.00  0.00    -0.303 N 
ATOM     14  H   UNK A   1       8.141  -0.931  23.558  0.00  0.00    +0.149 HD
ATOM     15  C   UNK A   0       9.907   0.003  24.117  0.00  0.00    +0.227 C 
ATOM     16  O   UNK A   0      10.657   0.341  25.032  0.00  0.00    -0.275 OA
BRANCH  15  17
ATOM     17  C   UNK A   0      10.295   0.281  22.654  0.00  0.00    +0.133 C 
BRANCH  17  18
ATOM     18  S   UNK A   0       9.438  -0.917  21.575  0.00  0.00    -0.165 S 
ATOM     19  H   UNK A   0       8.360  -1.055  22.368  0.00  0.00    +0.102 HD
ENDBRANCH  17  18
BRANCH  17  20
ATOM     20  C   UNK A   0      10.075   1.720  22.170  0.00  0.00    +0.058 C 
BRANCH  20  21
ATOM     21  C   UNK A   0       8.812   2.359  22.713  0.00  0.00    -0.046 A 
ATOM     22  C   UNK A   0       7.587   2.143  22.062  0.00  0.00    +0.004 A 
ATOM     23  C   UNK A   0       6.402   2.644  22.602  0.00  0.00    +0.000 A 
ATOM     24  C   UNK A   0       6.427   3.378  23.786  0.00  0.00    +0.000 A 
ATOM     25  C   UNK A   0       7.641   3.640  24.414  0.00  0.00    +0.000 A 
ATOM     26  C   UNK A   0       8.827   3.153  23.872  0.00  0.00    +0.004 A 
ENDBRANCH  20  21
ENDBRANCH  17  20
ENDBRANCH  15  17
ENDBRANCH   5  13
BRANCH   9  27
ATOM     27  C   UNK A   1       7.609  -5.491  26.700  0.00  0.00    +0.325 C 
ATOM     28  O   UNK A   2       7.489  -5.625  27.910  0.00  0.00    -0.249 OA
BRANCH  27  29
ATOM     29  O   UNK A   2       8.687  -5.967  26.034  0.00  0.00    -0.479 OA
ATOM     30  H   UNK A   2       9.132  -5.258  25.534  0.00  0.00    +0.295 HD
ENDBRANCH  27  29
ENDBRANCH   9  27
TORSDOF 7
ENDMDL
MODEL 6
REMARK VINA RESULT:      -6.8      2.807      7.053
REMARK  Name = 
REMARK  7 active torsions:
REMARK  status: ('A' for Active; 'I' for Inactive)
REMARK    1  A    between atoms: CA_6  and  C_28
REMARK    2  A    between atoms: CA_11  and  N_15
REMARK    3  A    between atoms: C_16  and  C_18
REMARK    4  A    between atoms: C_18  and  S_20
REMARK    5  A    between atoms: C_18  and  C_21
REMARK    6  A    between atoms: C_21  and  C_22
REMARK    7  A    between atoms: C_28  and  O_29
REMARK                            x       y       z     vdW  Elec       q    Type
REMARK                         _______ _______ _______ _____ _____    ______ ____
ROOT
ATOM      1  C   UNK A   1       9.137  -0.136  25.194  0.00  0.00    +0.135 C 
ATOM      2  S   UNK A   1       8.652  -0.553  26.868  0.00  0.00    -0.138 S 
ATOM      3  C   UNK A   1       7.233  -1.630  26.657  0.00  0.00    +0.073 C 
ATOM      4  C   UNK A   1       6.061  -0.906  26.041  0.00  0.00    +0.042 C 
ATOM      5  C   UNK A   1       6.104  -0.747  24.533  0.00  0.00    +0.160 C 
ATOM      6  C   UNK A   1       7.074   0.230  23.841  0.00  0.00    +0.237 C 
ATOM      7  O   UNK A   1       6.780   0.608  22.700  0.00  0.00    -0.274 OA
ATOM      8  N   UNK A   1       8.249   0.725  24.416  0.00  0.00    -0.275 N 
ATOM      9  C   UNK A   1       9.077   1.550  23.481  0.00  0.00    +0.186 C 
ATOM     10  C   UNK A   1       9.798   0.633  22.464  0.00  0.00    +0.034 C 
ATOM     11  C   UNK A   1      10.605  -0.465  23.186  0.00  0.00    +0.005 C 
ATOM     12  C   UNK A   1       9.794  -1.192  24.288  0.00  0.00    +0.034 C 
ENDROOT
BRANCH   5  13
ATOM     13  N   UNK A   1       6.061  -2.021  23.813  0.00  0.00    -0.303 N 
ATOM     14  H   UNK A   1       6.767  -2.206  23.116  0.00  0.00    +0.149 HD
ATOM     15  C   UNK A   0       5.025  -2.919  23.987  0.00  0.00    +0.227 C 
ATOM     16  O   UNK A   0       4.119  -2.732  24.798  0.00  0.00    -0.275 OA
BRANCH  15  17
ATOM     17  C   UNK A   0       5.023  -4.177  23.100  0.00  0.00    +0.133 C 
BRANCH  17  18
ATOM     18  S   UNK A   0       5.920  -3.812  21.553  0.00  0.00    -0.165 S 
ATOM     19  H   UNK A   0       5.241  -2.685  21.273  0.00  0.00    +0.102 HD
ENDBRANCH  17  18
BRANCH  17  20
ATOM     20  C   UNK A   0       5.553  -5.456  23.761  0.00  0.00    +0.058 C 
BRANCH  20  21
ATOM     21  C   UNK A   0       6.725  -5.220  24.694  0.00  0.00    -0.046 A 
ATOM     22  C   UNK A   0       6.542  -5.327  26.082  0.00  0.00    +0.004 A 
ATOM     23  C   UNK A   0       7.629  -5.208  26.949  0.00  0.00    +0.000 A 
ATOM     24  C   UNK A   0       8.904  -4.966  26.443  0.00  0.00    +0.000 A 
ATOM     25  C   UNK A   0       9.090  -4.809  25.073  0.00  0.00    +0.000 A 
ATOM     26  C   UNK A   0       8.006  -4.914  24.206  0.00  0.00    +0.004 A 
ENDBRANCH  20  21
ENDBRANCH  17  20
ENDBRANCH  15  17
ENDBRANCH   5  13
BRANCH   9  27
ATOM     27  C   UNK A   1       8.473   2.819  22.840  0.00  0.00    +0.325 C 
ATOM     28  O   UNK A   2       7.951   3.722  23.482  0.00  0.00    -0.249 OA
BRANCH  27  29
ATOM     29  O   UNK A   2       8.398   2.770  21.490  0.00  0.00    -0.479 OA
ATOM     30  H   UNK A   2       7.491   2.955  21.182  0.00  0.00    +0.295 HD
ENDBRANCH  27  29
ENDBRANCH   9  27
TORSDOF 7
ENDMDL
MODEL 7
REMARK VINA RESULT:      -6.8      1.834      2.159
REMARK  Name = 
REMARK  7 active torsions:
REMARK  status: ('A' for Active; 'I' for Inactive)
REMARK    1  A    between atoms: CA_6  and  C_28
REMARK    2  A    between atoms: CA_11  and  N_15
REMARK    3  A    between atoms: C_16  and  C_18
REMARK    4  A    between atoms: C_18  and  S_20
REMARK    5  A    between atoms: C_18  and  C_21
REMARK    6  A    between atoms: C_21  and  C_22
REMARK    7  A    between atoms: C_28  and  O_29
REMARK                            x       y       z     vdW  Elec       q    Type
REMARK                         _______ _______ _______ _____ _____    ______ ____
ROOT
ATOM      1  C   UNK A   1       6.147  -4.490  26.310  0.00  0.00    +0.135 C 
ATOM      2  S   UNK A   1       7.554  -5.142  27.207  0.00  0.00    -0.138 S 
ATOM      3  C   UNK A   1       8.963  -4.300  26.483  0.00  0.00    +0.073 C 
ATOM      4  C   UNK A   1       9.166  -4.680  25.036  0.00  0.00    +0.042 C 
ATOM      5  C   UNK A   1       8.282  -3.959  24.036  0.00  0.00    +0.160 C 
ATOM      6  C   UNK A   1       6.776  -4.262  23.908  0.00  0.00    +0.237 C 
ATOM      7  O   UNK A   1       6.227  -3.964  22.840  0.00  0.00    -0.274 OA
ATOM      8  N   UNK A   1       5.997  -4.858  24.905  0.00  0.00    -0.275 N 
ATOM      9  C   UNK A   1       4.538  -4.916  24.576  0.00  0.00    +0.186 C 
ATOM     10  C   UNK A   1       3.905  -3.512  24.729  0.00  0.00    +0.034 C 
ATOM     11  C   UNK A   1       4.193  -2.927  26.126  0.00  0.00    +0.005 C 
ATOM     12  C   UNK A   1       5.681  -3.041  26.540  0.00  0.00    +0.034 C 
ENDROOT
BRANCH   5  13
ATOM     13  N   UNK A   1       8.519  -2.515  23.986  0.00  0.00    -0.303 N 
ATOM     14  H   UNK A   1       7.785  -1.894  24.293  0.00  0.00    +0.149 HD
ATOM     15  C   UNK A   0       9.671  -1.987  23.435  0.00  0.00    +0.227 C 
ATOM     16  O   UNK A   0      10.586  -2.694  23.015  0.00  0.00    -0.275 OA
BRANCH  15  17
ATOM     17  C   UNK A   0       9.768  -0.454  23.336  0.00  0.00    +0.133 C 
BRANCH  17  18
ATOM     18  S   UNK A   0       8.664   0.126  22.002  0.00  0.00    -0.165 S 
ATOM     19  H   UNK A   0       7.522  -0.072  22.686  0.00  0.00    +0.102 HD
ENDBRANCH  17  18
BRANCH  17  20
ATOM     20  C   UNK A   0       9.514   0.313  24.640  0.00  0.00    +0.058 C 
BRANCH  20  21
ATOM     21  C   UNK A   0       9.564   1.820  24.481  0.00  0.00    -0.046 A 
ATOM     22  C   UNK A   0      10.652   2.415  23.824  0.00  0.00    +0.004 A 
ATOM     23  C   UNK A   0      10.668   3.789  23.585  0.00  0.00    +0.000 A 
ATOM     24  C   UNK A   0       9.608   4.586  24.010  0.00  0.00    +0.000 A 
ATOM     25  C   UNK A   0       8.546   4.016  24.706  0.00  0.00    +0.000 A 
ATOM     26  C   UNK A   0       8.533   2.647  24.958  0.00  0.00    +0.004 A 
ENDBRANCH  20  21
ENDBRANCH  17  20
ENDBRANCH  15  17
ENDBRANCH   5  13
BRANCH   9  27
ATOM     27  C   UNK A   1       4.068  -5.665  23.309  0.00  0.00    +0.325 C 
ATOM     28  O   UNK A   2       3.018  -5.424  22.727  0.00  0.00    -0.249 OA
BRANCH  27  29
ATOM     29  O   UNK A   2       4.824  -6.743  22.996  0.00  0.00    -0.479 OA
ATOM     30  H   UNK A   2       5.720  -6.665  23.375  0.00  0.00    +0.295 HD
ENDBRANCH  27  29
ENDBRANCH   9  27
TORSDOF 7
ENDMDL
MODEL 8
REMARK VINA RESULT:      -6.7      3.550      5.917
REMARK  Name = 
REMARK  7 active torsions:
REMARK  status: ('A' for Active; 'I' for Inactive)
REMARK    1  A    between atoms: CA_6  and  C_28
REMARK    2  A    between atoms: CA_11  and  N_15
REMARK    3  A    between atoms: C_16  and  C_18
REMARK    4  A    between atoms: C_18  and  S_20
REMARK    5  A    between atoms: C_18  and  C_21
REMARK    6  A    between atoms: C_21  and  C_22
REMARK    7  A    between atoms: C_28  and  O_29
REMARK                            x       y       z     vdW  Elec       q    Type
REMARK                         _______ _______ _______ _____ _____    ______ ____
ROOT
ATOM      1  C   UNK A   1       5.774   2.378  26.311  0.00  0.00    +0.135 C 
ATOM      2  S   UNK A   1       4.757   1.535  27.522  0.00  0.00    -0.138 S 
ATOM      3  C   UNK A   1       5.264  -0.181  27.400  0.00  0.00    +0.073 C 
ATOM      4  C   UNK A   1       4.914  -0.779  26.058  0.00  0.00    +0.042 C 
ATOM      5  C   UNK A   1       5.875  -0.465  24.927  0.00  0.00    +0.160 C 
ATOM      6  C   UNK A   1       5.954   0.934  24.286  0.00  0.00    +0.237 C 
ATOM      7  O   UNK A   1       6.426   1.009  23.144  0.00  0.00    -0.274 OA
ATOM      8  N   UNK A   1       5.519   2.114  24.897  0.00  0.00    -0.275 N 
ATOM      9  C   UNK A   1       5.833   3.350  24.113  0.00  0.00    +0.186 C 
ATOM     10  C   UNK A   1       7.341   3.682  24.230  0.00  0.00    +0.034 C 
ATOM     11  C   UNK A   1       7.772   3.771  25.708  0.00  0.00    +0.005 C 
ATOM     12  C   UNK A   1       7.280   2.574  26.559  0.00  0.00    +0.034 C 
ENDROOT
BRANCH   5  13
ATOM     13  N   UNK A   1       7.219  -1.007  25.138  0.00  0.00    -0.303 N 
ATOM     14  H   UNK A   1       7.840  -0.526  25.770  0.00  0.00    +0.149 HD
ATOM     15  C   UNK A   0       7.685  -2.091  24.418  0.00  0.00    +0.227 C 
ATOM     16  O   UNK A   0       6.984  -2.698  23.610  0.00  0.00    -0.275 OA
BRANCH  15  17
ATOM     17  C   UNK A   0       9.149  -2.510  24.642  0.00  0.00    +0.133 C 
BRANCH  17  18
ATOM     18  S   UNK A   0       9.207  -4.302  24.988  0.00  0.00    -0.165 S 
ATOM     19  H   UNK A   0       9.891  -4.187  26.142  0.00  0.00    +0.102 HD
ENDBRANCH  17  18
BRANCH  17  20
ATOM     20  C   UNK A   0      10.128  -2.129  23.523  0.00  0.00    +0.058 C 
BRANCH  20  21
ATOM     21  C   UNK A   0      10.203  -0.638  23.261  0.00  0.00    -0.046 A 
ATOM     22  C   UNK A   0       9.829  -0.131  22.006  0.00  0.00    +0.004 A 
ATOM     23  C   UNK A   0       9.802   1.245  21.779  0.00  0.00    +0.000 A 
ATOM     24  C   UNK A   0      10.159   2.129  22.794  0.00  0.00    +0.000 A 
ATOM     25  C   UNK A   0      10.578   1.638  24.027  0.00  0.00    +0.000 A 
ATOM     26  C   UNK A   0      10.620   0.265  24.253  0.00  0.00    +0.004 A 
ENDBRANCH  20  21
ENDBRANCH  17  20
ENDBRANCH  15  17
ENDBRANCH   5  13
BRANCH   9  27
ATOM     27  C   UNK A   1       5.282   3.508  22.678  0.00  0.00    +0.325 C 
ATOM     28  O   UNK A   2       4.104   3.352  22.382  0.00  0.00    -0.249 OA
BRANCH  27  29
ATOM     29  O   UNK A   2       6.241   3.651  21.734  0.00  0.00    -0.479 OA
ATOM     30  H   UNK A   2       6.868   4.359  21.975  0.00  0.00    +0.295 HD
ENDBRANCH  27  29
ENDBRANCH   9  27
TORSDOF 7
ENDMDL
MODEL 9
REMARK VINA RESULT:      -6.7      2.885      4.238
REMARK  Name = 
REMARK  7 active torsions:
REMARK  status: ('A' for Active; 'I' for Inactive)
REMARK    1  A    between atoms: CA_6  and  C_28
REMARK    2  A    between atoms: CA_11  and  N_15
REMARK    3  A    between atoms: C_16  and  C_18
REMARK    4  A    between atoms: C_18  and  S_20
REMARK    5  A    between atoms: C_18  and  C_21
REMARK    6  A    between atoms: C_21  and  C_22
REMARK    7  A    between atoms: C_28  and  O_29
REMARK                            x       y       z     vdW  Elec       q    Type
REMARK                         _______ _______ _______ _____ _____    ______ ____
ROOT
ATOM      1  C   UNK A   1       5.517  -3.697  24.647  0.00  0.00    +0.135 C 
ATOM      2  S   UNK A   1       3.964  -3.483  25.515  0.00  0.00    -0.138 S 
ATOM      3  C   UNK A   1       4.044  -1.805  26.145  0.00  0.00    +0.073 C 
ATOM      4  C   UNK A   1       5.135  -1.639  27.175  0.00  0.00    +0.042 C 
ATOM      5  C   UNK A   1       6.535  -1.448  26.625  0.00  0.00    +0.160 C 
ATOM      6  C   UNK A   1       7.323  -2.601  25.973  0.00  0.00    +0.237 C 
ATOM      7  O   UNK A   1       8.555  -2.495  25.933  0.00  0.00    -0.274 OA
ATOM      8  N   UNK A   1       6.744  -3.756  25.438  0.00  0.00    -0.275 N 
ATOM      9  C   UNK A   1       7.720  -4.655  24.745  0.00  0.00    +0.186 C 
ATOM     10  C   UNK A   1       8.113  -4.052  23.375  0.00  0.00    +0.034 C 
ATOM     11  C   UNK A   1       6.862  -3.743  22.529  0.00  0.00    +0.005 C 
ATOM     12  C   UNK A   1       5.771  -2.973  23.313  0.00  0.00    +0.034 C 
ENDROOT
BRANCH   5  13
ATOM     13  N   UNK A   1       6.691  -0.218  25.846  0.00  0.00    -0.303 N 
ATOM     14  H   UNK A   1       6.461  -0.235  24.864  0.00  0.00    +0.149 HD
ATOM     15  C   UNK A   0       7.242   0.925  26.396  0.00  0.00    +0.227 C 
ATOM     16  O   UNK A   0       7.572   0.995  27.579  0.00  0.00    -0.275 OA
BRANCH  15  17
ATOM     17  C   UNK A   0       7.459   2.126  25.458  0.00  0.00    +0.133 C 
BRANCH  17  18
ATOM     18  S   UNK A   0       6.893   3.645  26.299  0.00  0.00    -0.165 S 
ATOM     19  H   UNK A   0       7.629   3.459  27.409  0.00  0.00    +0.102 HD
ENDBRANCH  17  18
BRANCH  17  20
ATOM     20  C   UNK A   0       8.883   2.292  24.910  0.00  0.00    +0.058 C 
BRANCH  20  21
ATOM     21  C   UNK A   0       9.217   1.335  23.783  0.00  0.00    -0.046 A 
ATOM     22  C   UNK A   0       9.902   0.142  24.062  0.00  0.00    +0.004 A 
ATOM     23  C   UNK A   0      10.133  -0.793  23.053  0.00  0.00    +0.000 A 
ATOM     24  C   UNK A   0       9.697  -0.543  21.754  0.00  0.00    +0.000 A 
ATOM     25  C   UNK A   0       9.061   0.658  21.454  0.00  0.00    +0.000 A 
ATOM     26  C   UNK A   0       8.840   1.599  22.456  0.00  0.00    +0.004 A 
ENDBRANCH  20  21
ENDBRANCH  17  20
ENDBRANCH  15  17
ENDBRANCH   5  13
BRANCH   9  27
ATOM     27  C   UNK A   1       8.922  -5.229  25.529  0.00  0.00    +0.325 C 
ATOM     28  O   UNK A   2      10.044  -5.355  25.056  0.00  0.00    -0.249 OA
BRANCH  27  29
ATOM     29  O   UNK A   2       8.591  -5.760  26.729  0.00  0.00    -0.479 OA
ATOM     30  H   UNK A   2       9.301  -6.339  27.064  0.00  0.00    +0.295 HD
ENDBRANCH  27  29
ENDBRANCH   9  27
TORSDOF 7
ENDMDL
