MODEL 1
REMARK VINA RESULT:      -6.6      0.000      0.000
REMARK  Name = 
REMARK  9 active torsions:
REMARK  status: ('A' for Active; 'I' for Inactive)
REMARK    1  A    between atoms: C_1  and  C_2
REMARK    2  A    between atoms: C_2  and  N_3
REMARK    3  A    between atoms: C_4  and  C_6
REMARK    4  A    between atoms: C_9  and  C_19
REMARK    5  A    between atoms: C_10  and  C_11
REMARK    6  A    between atoms: C_14  and  O_15
REMARK    7  A    between atoms: O_15  and  C_16
REMARK    8  A    between atoms: C_20  and  O_21
REMARK    9  A    between atoms: C_23  and  O_24
REMARK                            x       y       z     vdW  Elec       q    Type
REMARK                         _______ _______ _______ _____ _____    ______ ____
ROOT
ATOM      1  C   UNL     1       7.740  -4.373  24.893  0.00  0.00    +0.176 A 
ATOM      2  C   UNL     1       7.680  -2.941  24.885  0.00  0.00    +0.061 A 
ATOM      3  C   UNL     1       8.189  -2.600  23.635  0.00  0.00    +0.179 A 
ATOM      4  O   UNL     1       8.593  -3.734  22.999  0.00  0.00    -0.353 OA
ATOM      5  N   UNL     1       8.297  -4.838  23.759  0.00  0.00    -0.072 NA
ENDROOT
BRANCH   3   6
ATOM      6  C   UNL     1       8.382  -1.357  22.874  0.00  0.00    +0.064 A 
ATOM      7  C   UNL     1       7.348  -0.401  22.871  0.00  0.00    +0.039 A 
ATOM      8  C   UNL     1       7.576   0.900  22.425  0.00  0.00    +0.083 A 
ATOM      9 CL   UNL     1       6.333   2.072  22.667  0.00  0.00    -0.080 Cl
ATOM     10  C   UNL     1       8.809   1.242  21.872  0.00  0.00    +0.139 A 
ATOM     11  C   UNL     1       9.797   0.271  21.730  0.00  0.00    +0.093 A 
ATOM     12  C   UNL     1       9.584  -1.017  22.231  0.00  0.00    +0.131 A 
BRANCH  10  13
ATOM     13  O   UNL     1       9.049   2.532  21.490  0.00  0.00    -0.505 OA
ATOM     14  H   UNL     1       9.247   3.070  22.275  0.00  0.00    +0.292 HD
ENDBRANCH  10  13
BRANCH  12  15
ATOM     15  O   UNL     1      10.635  -1.880  22.078  0.00  0.00    -0.506 OA
ATOM     16  H   UNL     1      10.701  -2.455  22.862  0.00  0.00    +0.292 HD
ENDBRANCH  12  15
ENDBRANCH   3   6
BRANCH   2  17
ATOM     17  C   UNL     1       7.154  -1.998  25.875  0.00  0.00    -0.012 A 
ATOM     18  C   UNL     1       8.000  -1.096  26.538  0.00  0.00    +0.012 A 
ATOM     19  C   UNL     1       7.494  -0.143  27.429  0.00  0.00    +0.046 A 
ATOM     20  C   UNL     1       6.143  -0.142  27.758  0.00  0.00    +0.120 A 
ATOM     21  C   UNL     1       5.292  -1.045  27.126  0.00  0.00    +0.046 A 
ATOM     22  C   UNL     1       5.787  -1.949  26.177  0.00  0.00    +0.012 A 
BRANCH  20  23
ATOM     23  O   UNL     1       5.556   0.719  28.643  0.00  0.00    -0.495 OA
ATOM     24  C   UNL     1       6.439   1.665  29.239  0.00  0.00    +0.277 C 
ENDBRANCH  20  23
ENDBRANCH   2  17
BRANCH   1  27
ATOM     25  N   UNL     1       5.950  -5.738  25.703  0.00  0.00    -0.310 N 
ATOM     26  H   UNL     1       5.482  -5.386  24.871  0.00  0.00    +0.149 HD
ATOM     27  C   UNL     1       7.246  -5.322  25.915  0.00  0.00    +0.266 C 
ATOM     28  O   UNL     1       7.905  -5.652  26.897  0.00  0.00    -0.268 OA
BRANCH  25  30
ATOM     29  C   UNL     1       4.466  -5.466  27.638  0.00  0.00    +0.024 C 
ATOM     30  C   UNL     1       5.183  -6.433  26.710  0.00  0.00    +0.101 C 
ENDBRANCH  25  30
ENDBRANCH   1  27
TORSDOF 7
ENDMDL
MODEL 2
REMARK VINA RESULT:      -6.4      2.973      4.200
REMARK  Name = 
REMARK  9 active torsions:
REMARK  status: ('A' for Active; 'I' for Inactive)
REMARK    1  A    between atoms: C_1  and  C_2
REMARK    2  A    between atoms: C_2  and  N_3
REMARK    3  A    between atoms: C_4  and  C_6
REMARK    4  A    between atoms: C_9  and  C_19
REMARK    5  A    between atoms: C_10  and  C_11
REMARK    6  A    between atoms: C_14  and  O_15
REMARK    7  A    between atoms: O_15  and  C_16
REMARK    8  A    between atoms: C_20  and  O_21
REMARK    9  A    between atoms: C_23  and  O_24
REMARK                            x       y       z     vdW  Elec       q    Type
REMARK                         _______ _______ _______ _____ _____    ______ ____
ROOT
ATOM      1  C   UNL     1       4.965  -5.869  23.194  0.00  0.00    +0.176 A 
ATOM      2  C   UNL     1       5.748  -5.062  24.081  0.00  0.00    +0.061 A 
ATOM      3  C   UNL     1       6.514  -4.278  23.222  0.00  0.00    +0.179 A 
ATOM      4  O   UNL     1       6.261  -4.657  21.939  0.00  0.00    -0.353 OA
ATOM      5  N   UNL     1       5.286  -5.623  21.910  0.00  0.00    -0.072 NA
ENDROOT
BRANCH   3   6
ATOM      6  C   UNL     1       7.486  -3.186  23.369  0.00  0.00    +0.064 A 
ATOM      7  C   UNL     1       7.101  -1.886  22.990  0.00  0.00    +0.039 A 
ATOM      8  C   UNL     1       7.853  -0.776  23.371  0.00  0.00    +0.083 A 
ATOM      9 CL   UNL     1       7.198   0.793  23.070  0.00  0.00    -0.080 Cl
ATOM     10  C   UNL     1       9.061  -0.950  24.044  0.00  0.00    +0.139 A 
ATOM     11  C   UNL     1       9.534  -2.235  24.298  0.00  0.00    +0.093 A 
ATOM     12  C   UNL     1       8.748  -3.343  23.965  0.00  0.00    +0.131 A 
BRANCH  10  13
ATOM     13  O   UNL     1       9.768   0.141  24.468  0.00  0.00    -0.505 OA
ATOM     14  H   UNL     1      10.446  -0.141  25.104  0.00  0.00    +0.292 HD
ENDBRANCH  10  13
BRANCH  12  15
ATOM     15  O   UNL     1       9.286  -4.556  24.298  0.00  0.00    -0.506 OA
ATOM     16  H   UNL     1       9.657  -4.977  23.502  0.00  0.00    +0.292 HD
ENDBRANCH  12  15
ENDBRANCH   3   6
BRANCH   2  17
ATOM     17  C   UNL     1       5.748  -4.967  25.544  0.00  0.00    -0.012 A 
ATOM     18  C   UNL     1       4.799  -4.183  26.219  0.00  0.00    +0.012 A 
ATOM     19  C   UNL     1       4.746  -4.148  27.616  0.00  0.00    +0.046 A 
ATOM     20  C   UNL     1       5.708  -4.813  28.369  0.00  0.00    +0.120 A 
ATOM     21  C   UNL     1       6.670  -5.578  27.715  0.00  0.00    +0.046 A 
ATOM     22  C   UNL     1       6.676  -5.674  26.318  0.00  0.00    +0.012 A 
BRANCH  20  23
ATOM     23  O   UNL     1       5.767  -4.810  29.736  0.00  0.00    -0.495 OA
ATOM     24  C   UNL     1       5.780  -6.099  30.341  0.00  0.00    +0.277 C 
ENDBRANCH  20  23
ENDBRANCH   2  17
BRANCH   1  27
ATOM     25  N   UNL     1       2.804  -6.751  22.669  0.00  0.00    -0.310 N 
ATOM     26  H   UNL     1       2.860  -6.075  21.910  0.00  0.00    +0.149 HD
ATOM     27  C   UNL     1       3.889  -6.833  23.514  0.00  0.00    +0.266 C 
ATOM     28  O   UNL     1       3.929  -7.586  24.482  0.00  0.00    -0.268 OA
BRANCH  25  30
ATOM     29  C   UNL     1       1.034  -8.194  21.772  0.00  0.00    +0.024 C 
ATOM     30  C   UNL     1       1.543  -7.391  22.959  0.00  0.00    +0.101 C 
ENDBRANCH  25  30
ENDBRANCH   1  27
TORSDOF 7
ENDMDL
MODEL 3
REMARK VINA RESULT:      -6.3      4.009      7.302
REMARK  Name = 
REMARK  9 active torsions:
REMARK  status: ('A' for Active; 'I' for Inactive)
REMARK    1  A    between atoms: C_1  and  C_2
REMARK    2  A    between atoms: C_2  and  N_3
REMARK    3  A    between atoms: C_4  and  C_6
REMARK    4  A    between atoms: C_9  and  C_19
REMARK    5  A    between atoms: C_10  and  C_11
REMARK    6  A    between atoms: C_14  and  O_15
REMARK    7  A    between atoms: O_15  and  C_16
REMARK    8  A    between atoms: C_20  and  O_21
REMARK    9  A    between atoms: C_23  and  O_24
REMARK                            x       y       z     vdW  Elec       q    Type
REMARK                         _______ _______ _______ _____ _____    ______ ____
ROOT
ATOM      1  C   UNL     1      10.134   2.313  23.918  0.00  0.00    +0.176 A 
ATOM      2  C   UNL     1       8.916   1.571  24.051  0.00  0.00    +0.061 A 
ATOM      3  C   UNL     1       9.346   0.300  24.421  0.00  0.00    +0.179 A 
ATOM      4  O   UNL     1      10.707   0.278  24.420  0.00  0.00    -0.353 OA
ATOM      5  N   UNL     1      11.204   1.525  24.135  0.00  0.00    -0.072 NA
ENDROOT
BRANCH   3   6
ATOM      6  C   UNL     1       8.702  -0.967  24.797  0.00  0.00    +0.064 A 
ATOM      7  C   UNL     1       8.225  -1.810  23.775  0.00  0.00    +0.039 A 
ATOM      8  C   UNL     1       7.878  -3.133  24.042  0.00  0.00    +0.083 A 
ATOM      9 CL   UNL     1       7.524  -4.166  22.704  0.00  0.00    -0.080 Cl
ATOM     10  C   UNL     1       7.898  -3.610  25.351  0.00  0.00    +0.139 A 
ATOM     11  C   UNL     1       8.225  -2.750  26.396  0.00  0.00    +0.093 A 
ATOM     12  C   UNL     1       8.627  -1.439  26.118  0.00  0.00    +0.131 A 
BRANCH  10  13
ATOM     13  O   UNL     1       7.614  -4.923  25.602  0.00  0.00    -0.505 OA
ATOM     14  H   UNL     1       7.213  -5.004  26.484  0.00  0.00    +0.292 HD
ENDBRANCH  10  13
BRANCH  12  15
ATOM     15  O   UNL     1       8.969  -0.693  27.213  0.00  0.00    -0.506 OA
ATOM     16  H   UNL     1       9.220   0.204  26.929  0.00  0.00    +0.292 HD
ENDBRANCH  12  15
ENDBRANCH   3   6
BRANCH   2  17
ATOM     17  C   UNL     1       7.518   1.993  23.924  0.00  0.00    -0.012 A 
ATOM     18  C   UNL     1       6.682   2.082  25.048  0.00  0.00    +0.012 A 
ATOM     19  C   UNL     1       5.370   2.554  24.943  0.00  0.00    +0.046 A 
ATOM     20  C   UNL     1       4.830   2.848  23.696  0.00  0.00    +0.120 A 
ATOM     21  C   UNL     1       5.638   2.745  22.567  0.00  0.00    +0.046 A 
ATOM     22  C   UNL     1       6.975   2.344  22.681  0.00  0.00    +0.012 A 
BRANCH  20  23
ATOM     23  O   UNL     1       3.550   3.279  23.482  0.00  0.00    -0.495 OA
ATOM     24  C   UNL     1       3.194   3.458  22.115  0.00  0.00    +0.277 C 
ENDBRANCH  20  23
ENDBRANCH   2  17
BRANCH   1  27
ATOM     25  N   UNL     1      11.591   4.070  23.204  0.00  0.00    -0.310 N 
ATOM     26  H   UNL     1      12.247   3.300  23.091  0.00  0.00    +0.149 HD
ATOM     27  C   UNL     1      10.323   3.754  23.640  0.00  0.00    +0.266 C 
ATOM     28  O   UNL     1       9.454   4.597  23.844  0.00  0.00    -0.268 OA
BRANCH  25  30
ATOM     29  C   UNL     1      13.252   5.564  22.189  0.00  0.00    +0.024 C 
ATOM     30  C   UNL     1      12.075   5.430  23.141  0.00  0.00    +0.101 C 
ENDBRANCH  25  30
ENDBRANCH   1  27
TORSDOF 7
ENDMDL
MODEL 4
REMARK VINA RESULT:      -6.2      2.678      6.050
REMARK  Name = 
REMARK  9 active torsions:
REMARK  status: ('A' for Active; 'I' for Inactive)
REMARK    1  A    between atoms: C_1  and  C_2
REMARK    2  A    between atoms: C_2  and  N_3
REMARK    3  A    between atoms: C_4  and  C_6
REMARK    4  A    between atoms: C_9  and  C_19
REMARK    5  A    between atoms: C_10  and  C_11
REMARK    6  A    between atoms: C_14  and  O_15
REMARK    7  A    between atoms: O_15  and  C_16
REMARK    8  A    between atoms: C_20  and  O_21
REMARK    9  A    between atoms: C_23  and  O_24
REMARK                            x       y       z     vdW  Elec       q    Type
REMARK                         _______ _______ _______ _____ _____    ______ ____
ROOT
ATOM      1  C   UNL     1       9.544  -1.457  23.682  0.00  0.00    +0.176 A 
ATOM      2  C   UNL     1       8.391  -1.621  24.516  0.00  0.00    +0.061 A 
ATOM      3  C   UNL     1       8.395  -2.981  24.816  0.00  0.00    +0.179 A 
ATOM      4  O   UNL     1       9.417  -3.576  24.143  0.00  0.00    -0.353 OA
ATOM      5  N   UNL     1      10.149  -2.638  23.459  0.00  0.00    -0.072 NA
ENDROOT
BRANCH   3   6
ATOM      6  C   UNL     1       7.590  -3.882  25.653  0.00  0.00    +0.064 A 
ATOM      7  C   UNL     1       6.211  -3.989  25.395  0.00  0.00    +0.039 A 
ATOM      8  C   UNL     1       5.458  -5.025  25.945  0.00  0.00    +0.083 A 
ATOM      9 CL   UNL     1       3.831  -5.226  25.401  0.00  0.00    -0.080 Cl
ATOM     10  C   UNL     1       6.043  -5.910  26.849  0.00  0.00    +0.139 A 
ATOM     11  C   UNL     1       7.370  -5.731  27.232  0.00  0.00    +0.093 A 
ATOM     12  C   UNL     1       8.137  -4.726  26.634  0.00  0.00    +0.131 A 
BRANCH  10  13
ATOM     13  O   UNL     1       5.318  -6.959  27.342  0.00  0.00    -0.505 OA
ATOM     14  H   UNL     1       4.665  -6.627  27.981  0.00  0.00    +0.292 HD
ENDBRANCH  10  13
BRANCH  12  15
ATOM     15  O   UNL     1       9.439  -4.665  27.050  0.00  0.00    -0.506 OA
ATOM     16  H   UNL     1       9.913  -5.462  26.752  0.00  0.00    +0.292 HD
ENDBRANCH  12  15
ENDBRANCH   3   6
BRANCH   2  17
ATOM     17  C   UNL     1       7.435  -0.638  25.035  0.00  0.00    -0.012 A 
ATOM     18  C   UNL     1       6.630   0.118  24.169  0.00  0.00    +0.012 A 
ATOM     19  C   UNL     1       5.664   1.003  24.659  0.00  0.00    +0.046 A 
ATOM     20  C   UNL     1       5.555   1.230  26.027  0.00  0.00    +0.120 A 
ATOM     21  C   UNL     1       6.362   0.505  26.900  0.00  0.00    +0.046 A 
ATOM     22  C   UNL     1       7.276  -0.437  26.412  0.00  0.00    +0.012 A 
BRANCH  20  23
ATOM     23  O   UNL     1       4.673   2.101  26.604  0.00  0.00    -0.495 OA
ATOM     24  C   UNL     1       4.898   2.359  27.987  0.00  0.00    +0.277 C 
ENDBRANCH  20  23
ENDBRANCH   2  17
BRANCH   1  27
ATOM     25  N   UNL     1      10.570   0.667  24.087  0.00  0.00    -0.310 N 
ATOM     26  H   UNL     1      10.486   0.372  25.058  0.00  0.00    +0.149 HD
ATOM     27  C   UNL     1      10.124  -0.214  23.126  0.00  0.00    +0.266 C 
ATOM     28  O   UNL     1      10.143   0.038  21.925  0.00  0.00    -0.268 OA
BRANCH  25  30
ATOM     29  C   UNL     1       9.693   2.946  23.856  0.00  0.00    +0.024 C 
ATOM     30  C   UNL     1      10.910   2.037  23.787  0.00  0.00    +0.101 C 
ENDBRANCH  25  30
ENDBRANCH   1  27
TORSDOF 7
ENDMDL
MODEL 5
REMARK VINA RESULT:      -6.1      1.860      2.291
REMARK  Name = 
REMARK  9 active torsions:
REMARK  status: ('A' for Active; 'I' for Inactive)
REMARK    1  A    between atoms: C_1  and  C_2
REMARK    2  A    between atoms: C_2  and  N_3
REMARK    3  A    between atoms: C_4  and  C_6
REMARK    4  A    between atoms: C_9  and  C_19
REMARK    5  A    between atoms: C_10  and  C_11
REMARK    6  A    between atoms: C_14  and  O_15
REMARK    7  A    between atoms: O_15  and  C_16
REMARK    8  A    between atoms: C_20  and  O_21
REMARK    9  A    between atoms: C_23  and  O_24
REMARK                            x       y       z     vdW  Elec       q    Type
REMARK                         _______ _______ _______ _____ _____    ______ ____
ROOT
ATOM      1  C   UNL     1       9.186  -2.897  24.255  0.00  0.00    +0.176 A 
ATOM      2  C   UNL     1       8.721  -1.572  24.543  0.00  0.00    +0.061 A 
ATOM      3  C   UNL     1       9.489  -0.767  23.706  0.00  0.00    +0.179 A 
ATOM      4  O   UNL     1      10.388  -1.548  23.047  0.00  0.00    -0.353 OA
ATOM      5  N   UNL     1      10.192  -2.870  23.361  0.00  0.00    -0.072 NA
ENDROOT
BRANCH   3   6
ATOM      6  C   UNL     1       9.552   0.665  23.382  0.00  0.00    +0.064 A 
ATOM      7  C   UNL     1       8.493   1.239  22.654  0.00  0.00    +0.039 A 
ATOM      8  C   UNL     1       8.348   2.622  22.569  0.00  0.00    +0.083 A 
ATOM      9 CL   UNL     1       6.903   3.247  21.860  0.00  0.00    -0.080 Cl
ATOM     10  C   UNL     1       9.317   3.460  23.118  0.00  0.00    +0.139 A 
ATOM     11  C   UNL     1      10.450   2.912  23.713  0.00  0.00    +0.093 A 
ATOM     12  C   UNL     1      10.562   1.524  23.846  0.00  0.00    +0.131 A 
BRANCH  10  13
ATOM     13  O   UNL     1       9.143   4.816  23.084  0.00  0.00    -0.505 OA
ATOM     14  H   UNL     1       9.214   5.172  23.986  0.00  0.00    +0.292 HD
ENDBRANCH  10  13
BRANCH  12  15
ATOM     15  O   UNL     1      11.693   1.093  24.485  0.00  0.00    -0.506 OA
ATOM     16  H   UNL     1      12.479   1.384  23.988  0.00  0.00    +0.292 HD
ENDBRANCH  12  15
ENDBRANCH   3   6
BRANCH   2  17
ATOM     17  C   UNL     1       7.651  -1.103  25.427  0.00  0.00    -0.012 A 
ATOM     18  C   UNL     1       7.943  -0.504  26.663  0.00  0.00    +0.012 A 
ATOM     19  C   UNL     1       6.930   0.013  27.478  0.00  0.00    +0.046 A 
ATOM     20  C   UNL     1       5.596  -0.153  27.125  0.00  0.00    +0.120 A 
ATOM     21  C   UNL     1       5.287  -0.764  25.912  0.00  0.00    +0.046 A 
ATOM     22  C   UNL     1       6.304  -1.214  25.061  0.00  0.00    +0.012 A 
BRANCH  20  23
ATOM     23  O   UNL     1       4.533   0.281  27.868  0.00  0.00    -0.495 OA
ATOM     24  C   UNL     1       4.866   0.798  29.153  0.00  0.00    +0.277 C 
ENDBRANCH  20  23
ENDBRANCH   2  17
BRANCH   1  27
ATOM     25  N   UNL     1       8.217  -4.138  26.055  0.00  0.00    -0.310 N 
ATOM     26  H   UNL     1       8.238  -3.231  26.516  0.00  0.00    +0.149 HD
ATOM     27  C   UNL     1       8.682  -4.193  24.760  0.00  0.00    +0.266 C 
ATOM     28  O   UNL     1       8.737  -5.233  24.110  0.00  0.00    -0.268 OA
BRANCH  25  30
ATOM     29  C   UNL     1       6.457  -5.642  26.868  0.00  0.00    +0.024 C 
ATOM     30  C   UNL     1       7.943  -5.324  26.833  0.00  0.00    +0.101 C 
ENDBRANCH  25  30
ENDBRANCH   1  27
TORSDOF 7
ENDMDL
MODEL 6
REMARK VINA RESULT:      -6.1      2.367      4.540
REMARK  Name = 
REMARK  9 active torsions:
REMARK  status: ('A' for Active; 'I' for Inactive)
REMARK    1  A    between atoms: C_1  and  C_2
REMARK    2  A    between atoms: C_2  and  N_3
REMARK    3  A    between atoms: C_4  and  C_6
REMARK    4  A    between atoms: C_9  and  C_19
REMARK    5  A    between atoms: C_10  and  C_11
REMARK    6  A    between atoms: C_14  and  O_15
REMARK    7  A    between atoms: O_15  and  C_16
REMARK    8  A    between atoms: C_20  and  O_21
REMARK    9  A    between atoms: C_23  and  O_24
REMARK                            x       y       z     vdW  Elec       q    Type
REMARK                         _______ _______ _______ _____ _____    ______ ____
ROOT
ATOM      1  C   UNL     1       6.170  -1.887  26.601  0.00  0.00    +0.176 A 
ATOM      2  C   UNL     1       6.709  -1.929  25.274  0.00  0.00    +0.061 A 
ATOM      3  C   UNL     1       7.289  -0.672  25.117  0.00  0.00    +0.179 A 
ATOM      4  O   UNL     1       7.034   0.071  26.229  0.00  0.00    -0.353 OA
ATOM      5  N   UNL     1       6.364  -0.679  27.162  0.00  0.00    -0.072 NA
ENDROOT
BRANCH   3   6
ATOM      6  C   UNL     1       8.077   0.007  24.080  0.00  0.00    +0.064 A 
ATOM      7  C   UNL     1       7.529   1.140  23.450  0.00  0.00    +0.039 A 
ATOM      8  C   UNL     1       8.326   1.990  22.684  0.00  0.00    +0.083 A 
ATOM      9 CL   UNL     1       7.638   3.476  22.138  0.00  0.00    -0.080 Cl
ATOM     10  C   UNL     1       9.660   1.666  22.443  0.00  0.00    +0.139 A 
ATOM     11  C   UNL     1      10.183   0.473  22.934  0.00  0.00    +0.093 A 
ATOM     12  C   UNL     1       9.396  -0.347  23.750  0.00  0.00    +0.131 A 
BRANCH  10  13
ATOM     13  O   UNL     1      10.453   2.531  21.741  0.00  0.00    -0.505 OA
ATOM     14  H   UNL     1      10.530   2.224  20.822  0.00  0.00    +0.292 HD
ENDBRANCH  10  13
BRANCH  12  15
ATOM     15  O   UNL     1      10.021  -1.473  24.214  0.00  0.00    -0.506 OA
ATOM     16  H   UNL     1      10.819  -1.220  24.712  0.00  0.00    +0.292 HD
ENDBRANCH  12  15
ENDBRANCH   3   6
BRANCH   2  17
ATOM     17  C   UNL     1       6.751  -3.014  24.290  0.00  0.00    -0.012 A 
ATOM     18  C   UNL     1       5.856  -3.047  23.209  0.00  0.00    +0.012 A 
ATOM     19  C   UNL     1       5.939  -4.038  22.226  0.00  0.00    +0.046 A 
ATOM     20  C   UNL     1       6.851  -5.080  22.359  0.00  0.00    +0.120 A 
ATOM     21  C   UNL     1       7.732  -5.075  23.437  0.00  0.00    +0.046 A 
ATOM     22  C   UNL     1       7.699  -4.040  24.380  0.00  0.00    +0.012 A 
BRANCH  20  23
ATOM     23  O   UNL     1       6.986  -6.115  21.476  0.00  0.00    -0.495 OA
ATOM     24  C   UNL     1       6.053  -6.116  20.400  0.00  0.00    +0.277 C 
ENDBRANCH  20  23
ENDBRANCH   2  17
BRANCH   1  27
ATOM     25  N   UNL     1       6.326  -4.058  27.593  0.00  0.00    -0.310 N 
ATOM     26  H   UNL     1       7.277  -4.008  27.233  0.00  0.00    +0.149 HD
ATOM     27  C   UNL     1       5.517  -2.965  27.377  0.00  0.00    +0.266 C 
ATOM     28  O   UNL     1       4.343  -2.917  27.735  0.00  0.00    -0.268 OA
BRANCH  25  30
ATOM     29  C   UNL     1       5.416  -6.239  26.933  0.00  0.00    +0.024 C 
ATOM     30  C   UNL     1       5.815  -5.320  28.076  0.00  0.00    +0.101 C 
ENDBRANCH  25  30
ENDBRANCH   1  27
TORSDOF 7
ENDMDL
MODEL 7
REMARK VINA RESULT:      -6.0      2.816      4.897
REMARK  Name = 
REMARK  9 active torsions:
REMARK  status: ('A' for Active; 'I' for Inactive)
REMARK    1  A    between atoms: C_1  and  C_2
REMARK    2  A    between atoms: C_2  and  N_3
REMARK    3  A    between atoms: C_4  and  C_6
REMARK    4  A    between atoms: C_9  and  C_19
REMARK    5  A    between atoms: C_10  and  C_11
REMARK    6  A    between atoms: C_14  and  O_15
REMARK    7  A    between atoms: O_15  and  C_16
REMARK    8  A    between atoms: C_20  and  O_21
REMARK    9  A    between atoms: C_23  and  O_24
REMARK                            x       y       z     vdW  Elec       q    Type
REMARK                         _______ _______ _______ _____ _____    ______ ____
ROOT
ATOM      1  C   UNL     1       4.537  -0.712  26.070  0.00  0.00    +0.176 A 
ATOM      2  C   UNL     1       5.615  -0.846  25.137  0.00  0.00    +0.061 A 
ATOM      3  C   UNL     1       6.000   0.469  24.889  0.00  0.00    +0.179 A 
ATOM      4  O   UNL     1       5.159   1.306  25.556  0.00  0.00    -0.353 OA
ATOM      5  N   UNL     1       4.266   0.585  26.309  0.00  0.00    -0.072 NA
ENDROOT
BRANCH   3   6
ATOM      6  C   UNL     1       7.055   1.134  24.112  0.00  0.00    +0.064 A 
ATOM      7  C   UNL     1       8.389   1.013  24.544  0.00  0.00    +0.039 A 
ATOM      8  C   UNL     1       9.448   1.363  23.708  0.00  0.00    +0.083 A 
ATOM      9 CL   UNL     1      11.050   0.971  24.218  0.00  0.00    -0.080 Cl
ATOM     10  C   UNL     1       9.194   1.942  22.466  0.00  0.00    +0.139 A 
ATOM     11  C   UNL     1       7.883   2.208  22.080  0.00  0.00    +0.093 A 
ATOM     12  C   UNL     1       6.823   1.802  22.898  0.00  0.00    +0.131 A 
BRANCH  10  13
ATOM     13  O   UNL     1      10.233   2.230  21.625  0.00  0.00    -0.505 OA
ATOM     14  H   UNL     1       9.908   2.255  20.709  0.00  0.00    +0.292 HD
ENDBRANCH  10  13
BRANCH  12  15
ATOM     15  O   UNL     1       5.575   2.072  22.405  0.00  0.00    -0.506 OA
ATOM     16  H   UNL     1       5.571   2.955  21.994  0.00  0.00    +0.292 HD
ENDBRANCH  12  15
ENDBRANCH   3   6
BRANCH   2  17
ATOM     17  C   UNL     1       6.265  -2.040  24.588  0.00  0.00    -0.012 A 
ATOM     18  C   UNL     1       7.372  -2.621  25.227  0.00  0.00    +0.012 A 
ATOM     19  C   UNL     1       7.950  -3.802  24.751  0.00  0.00    +0.046 A 
ATOM     20  C   UNL     1       7.501  -4.370  23.563  0.00  0.00    +0.120 A 
ATOM     21  C   UNL     1       6.418  -3.795  22.904  0.00  0.00    +0.046 A 
ATOM     22  C   UNL     1       5.791  -2.655  23.423  0.00  0.00    +0.012 A 
BRANCH  20  23
ATOM     23  O   UNL     1       8.022  -5.499  22.994  0.00  0.00    -0.495 OA
ATOM     24  C   UNL     1       7.238  -6.064  21.947  0.00  0.00    +0.277 C 
ENDBRANCH  20  23
ENDBRANCH   2  17
BRANCH   1  27
ATOM     25  N   UNL     1       4.441  -2.273  27.880  0.00  0.00    -0.310 N 
ATOM     26  H   UNL     1       5.344  -1.863  28.106  0.00  0.00    +0.149 HD
ATOM     27  C   UNL     1       3.781  -1.766  26.781  0.00  0.00    +0.266 C 
ATOM     28  O   UNL     1       2.701  -2.198  26.389  0.00  0.00    -0.268 OA
BRANCH  25  30
ATOM     29  C   UNL     1       4.853  -4.680  28.114  0.00  0.00    +0.024 C 
ATOM     30  C   UNL     1       4.022  -3.483  28.547  0.00  0.00    +0.101 C 
ENDBRANCH  25  30
ENDBRANCH   1  27
TORSDOF 7
ENDMDL
MODEL 8
REMARK VINA RESULT:      -6.0      2.432      3.635
REMARK  Name = 
REMARK  9 active torsions:
REMARK  status: ('A' for Active; 'I' for Inactive)
REMARK    1  A    between atoms: C_1  and  C_2
REMARK    2  A    between atoms: C_2  and  N_3
REMARK    3  A    between atoms: C_4  and  C_6
REMARK    4  A    between atoms: C_9  and  C_19
REMARK    5  A    between atoms: C_10  and  C_11
REMARK    6  A    between atoms: C_14  and  O_15
REMARK    7  A    between atoms: O_15  and  C_16
REMARK    8  A    between atoms: C_20  and  O_21
REMARK    9  A    between atoms: C_23  and  O_24
REMARK                            x       y       z     vdW  Elec       q    Type
REMARK                         _______ _______ _______ _____ _____    ______ ____
ROOT
ATOM      1  C   UNL     1       9.162  -1.732  23.422  0.00  0.00    +0.176 A 
ATOM      2  C   UNL     1       8.443  -0.652  24.028  0.00  0.00    +0.061 A 
ATOM      3  C   UNL     1       8.861   0.465  23.308  0.00  0.00    +0.179 A 
ATOM      4  O   UNL     1       9.811   0.080  22.412  0.00  0.00    -0.353 OA
ATOM      5  N   UNL     1       9.987  -1.281  22.458  0.00  0.00    -0.072 NA
ENDROOT
BRANCH   3   6
ATOM      6  C   UNL     1       8.529   1.896  23.289  0.00  0.00    +0.064 A 
ATOM      7  C   UNL     1       9.489   2.817  23.749  0.00  0.00    +0.039 A 
ATOM      8  C   UNL     1       9.358   4.180  23.488  0.00  0.00    +0.083 A 
ATOM      9 CL   UNL     1      10.684   5.214  23.879  0.00  0.00    -0.080 Cl
ATOM     10  C   UNL     1       8.213   4.662  22.858  0.00  0.00    +0.139 A 
ATOM     11  C   UNL     1       7.183   3.786  22.527  0.00  0.00    +0.093 A 
ATOM     12  C   UNL     1       7.344   2.412  22.739  0.00  0.00    +0.131 A 
BRANCH  10  13
ATOM     13  O   UNL     1       8.113   5.991  22.551  0.00  0.00    -0.505 OA
ATOM     14  H   UNL     1       8.486   6.518  23.277  0.00  0.00    +0.292 HD
ENDBRANCH  10  13
BRANCH  12  15
ATOM     15  O   UNL     1       6.290   1.637  22.338  0.00  0.00    -0.506 OA
ATOM     16  H   UNL     1       6.570   0.705  22.296  0.00  0.00    +0.292 HD
ENDBRANCH  12  15
ENDBRANCH   3   6
BRANCH   2  17
ATOM     17  C   UNL     1       7.437  -0.648  25.095  0.00  0.00    -0.012 A 
ATOM     18  C   UNL     1       7.748  -0.184  26.382  0.00  0.00    +0.012 A 
ATOM     19  C   UNL     1       6.774  -0.108  27.383  0.00  0.00    +0.046 A 
ATOM     20  C   UNL     1       5.492  -0.595  27.150  0.00  0.00    +0.120 A 
ATOM     21  C   UNL     1       5.172  -1.079  25.884  0.00  0.00    +0.046 A 
ATOM     22  C   UNL     1       6.127  -1.084  24.860  0.00  0.00    +0.012 A 
BRANCH  20  23
ATOM     23  O   UNL     1       4.481  -0.602  28.071  0.00  0.00    -0.495 OA
ATOM     24  C   UNL     1       3.924  -1.884  28.345  0.00  0.00    +0.277 C 
ENDBRANCH  20  23
ENDBRANCH   2  17
BRANCH   1  27
ATOM     25  N   UNL     1       7.985  -3.787  23.084  0.00  0.00    -0.310 N 
ATOM     26  H   UNL     1       7.392  -3.197  22.504  0.00  0.00    +0.149 HD
ATOM     27  C   UNL     1       9.065  -3.184  23.690  0.00  0.00    +0.266 C 
ATOM     28  O   UNL     1       9.835  -3.781  24.437  0.00  0.00    -0.268 OA
BRANCH  25  30
ATOM     29  C   UNL     1       7.221  -5.941  22.192  0.00  0.00    +0.024 C 
ATOM     30  C   UNL     1       7.543  -5.118  23.429  0.00  0.00    +0.101 C 
ENDBRANCH  25  30
ENDBRANCH   1  27
TORSDOF 7
ENDMDL
MODEL 9
REMARK VINA RESULT:      -6.0      2.421      6.097
REMARK  Name = 
REMARK  9 active torsions:
REMARK  status: ('A' for Active; 'I' for Inactive)
REMARK    1  A    between atoms: C_1  and  C_2
REMARK    2  A    between atoms: C_2  and  N_3
REMARK    3  A    between atoms: C_4  and  C_6
REMARK    4  A    between atoms: C_9  and  C_19
REMARK    5  A    between atoms: C_10  and  C_11
REMARK    6  A    between atoms: C_14  and  O_15
REMARK    7  A    between atoms: O_15  and  C_16
REMARK    8  A    between atoms: C_20  and  O_21
REMARK    9  A    between atoms: C_23  and  O_24
REMARK                            x       y       z     vdW  Elec       q    Type
REMARK                         _______ _______ _______ _____ _____    ______ ____
ROOT
ATOM      1  C   UNL     1       8.374  -2.875  23.230  0.00  0.00    +0.176 A 
ATOM      2  C   UNL     1       7.577  -2.792  24.418  0.00  0.00    +0.061 A 
ATOM      3  C   UNL     1       6.964  -4.040  24.490  0.00  0.00    +0.179 A 
ATOM      4  O   UNL     1       7.308  -4.763  23.389  0.00  0.00    -0.353 OA
ATOM      5  N   UNL     1       8.199  -4.060  22.616  0.00  0.00    -0.072 NA
ENDROOT
BRANCH   3   6
ATOM      6  C   UNL     1       6.075  -4.729  25.435  0.00  0.00    +0.064 A 
ATOM      7  C   UNL     1       4.684  -4.554  25.302  0.00  0.00    +0.039 A 
ATOM      8  C   UNL     1       3.790  -5.394  25.964  0.00  0.00    +0.083 A 
ATOM      9 CL   UNL     1       2.114  -5.268  25.572  0.00  0.00    -0.080 Cl
ATOM     10  C   UNL     1       4.265  -6.355  26.856  0.00  0.00    +0.139 A 
ATOM     11  C   UNL     1       5.629  -6.445  27.114  0.00  0.00    +0.093 A 
ATOM     12  C   UNL     1       6.526  -5.639  26.405  0.00  0.00    +0.131 A 
BRANCH  10  13
ATOM     13  O   UNL     1       3.389  -7.215  27.458  0.00  0.00    -0.505 OA
ATOM     14  H   UNL     1       2.768  -7.560  26.795  0.00  0.00    +0.292 HD
ENDBRANCH  10  13
BRANCH  12  15
ATOM     15  O   UNL     1       7.847  -5.839  26.704  0.00  0.00    -0.506 OA
ATOM     16  H   UNL     1       8.263  -6.369  26.001  0.00  0.00    +0.292 HD
ENDBRANCH  12  15
ENDBRANCH   3   6
BRANCH   2  17
ATOM     17  C   UNL     1       7.444  -1.721  25.410  0.00  0.00    -0.012 A 
ATOM     18  C   UNL     1       6.270  -0.957  25.500  0.00  0.00    +0.012 A 
ATOM     19  C   UNL     1       6.108   0.015  26.492  0.00  0.00    +0.046 A 
ATOM     20  C   UNL     1       7.159   0.320  27.350  0.00  0.00    +0.120 A 
ATOM     21  C   UNL     1       8.340  -0.413  27.261  0.00  0.00    +0.046 A 
ATOM     22  C   UNL     1       8.474  -1.439  26.317  0.00  0.00    +0.012 A 
BRANCH  20  23
ATOM     23  O   UNL     1       7.117   1.277  28.326  0.00  0.00    -0.495 OA
ATOM     24  C   UNL     1       6.827   2.594  27.868  0.00  0.00    +0.277 C 
ENDBRANCH  20  23
ENDBRANCH   2  17
BRANCH   1  27
ATOM     25  N   UNL     1       8.732  -0.762  22.168  0.00  0.00    -0.310 N 
ATOM     26  H   UNL     1       7.719  -0.702  22.245  0.00  0.00    +0.149 HD
ATOM     27  C   UNL     1       9.332  -1.892  22.678  0.00  0.00    +0.266 C 
ATOM     28  O   UNL     1      10.541  -2.096  22.618  0.00  0.00    -0.268 OA
BRANCH  25  30
ATOM     29  C   UNL     1       9.658   1.507  22.062  0.00  0.00    +0.024 C 
ATOM     30  C   UNL     1       9.440   0.187  21.341  0.00  0.00    +0.101 C 
ENDBRANCH  25  30
ENDBRANCH   1  27
TORSDOF 7
ENDMDL
