MODEL 1
REMARK VINA RESULT:      -5.0      0.000      0.000
REMARK  Name = 
REMARK  11 active torsions:
REMARK  status: ('A' for Active; 'I' for Inactive)
REMARK    1  A    between atoms: O_1  and  C_2
REMARK    2  A    between atoms: C_2  and  C_4
REMARK    3  A    between atoms: C_4  and  C_5
REMARK    4  A    between atoms: C_5  and  C_6
REMARK    5  A    between atoms: C_6  and  C_8
REMARK    6  A    between atoms: C_8  and  C_9
REMARK    7  A    between atoms: C_9  and  C_10
REMARK    8  A    between atoms: C_10  and  C_12
REMARK    9  A    between atoms: C_12  and  C_13
REMARK   10  A    between atoms: C_13  and  C_14
REMARK   11  A    between atoms: C_14  and  O_15
REMARK                            x       y       z     vdW  Elec       q    Type
REMARK                         _______ _______ _______ _____ _____    ______ ____
ROOT
ATOM      1  C   UNL     1       8.307  -1.337  23.870  0.00  0.00    +0.082 C 
ENDROOT
BRANCH   1   2
ATOM      2  C   UNL     1       9.605  -0.590  23.631  0.00  0.00    +0.134 C 
ATOM      3  O   UNL     1      10.281  -0.169  24.570  0.00  0.00    -0.297 OA
BRANCH   2   4
ATOM      4  C   UNL     1      10.071  -0.423  22.201  0.00  0.00    +0.085 C 
BRANCH   4   5
ATOM      5  C   UNL     1       9.067   0.384  21.390  0.00  0.00    +0.128 C 
BRANCH   5   6
ATOM      6  C   UNL     1       9.092   1.842  21.759  0.00  0.00    +0.305 C 
ATOM      7  O   UNL     1       8.118   2.503  22.087  0.00  0.00    -0.251 OA
BRANCH   6   8
ATOM      8  O   UNL     1      10.342   2.362  21.715  0.00  0.00    -0.481 OA
ATOM      9  H   UNL     1      10.472   3.151  22.272  0.00  0.00    +0.295 HD
ENDBRANCH   6   8
ENDBRANCH   5   6
ENDBRANCH   4   5
ENDBRANCH   2   4
ENDBRANCH   1   2
BRANCH   1  10
ATOM     10  C   UNL     1       8.307  -2.672  23.136  0.00  0.00    +0.082 C 
BRANCH  10  11
ATOM     11  C   UNL     1       8.797  -3.790  24.029  0.00  0.00    +0.134 C 
ATOM     12  O   UNL     1       9.976  -3.886  24.389  0.00  0.00    -0.297 OA
BRANCH  11  13
ATOM     13  C   UNL     1       7.851  -4.913  24.362  0.00  0.00    +0.085 C 
BRANCH  13  14
ATOM     14  C   UNL     1       7.206  -4.690  25.717  0.00  0.00    +0.128 C 
BRANCH  14  15
ATOM     15  C   UNL     1       7.924  -5.199  26.951  0.00  0.00    +0.305 C 
ATOM     16  O   UNL     1       7.328  -5.866  27.792  0.00  0.00    -0.251 OA
BRANCH  15  17
ATOM     17  O   UNL     1       9.231  -4.926  27.092  0.00  0.00    -0.481 OA
ATOM     18  H   UNL     1       9.873  -5.668  27.141  0.00  0.00    +0.295 HD
ENDBRANCH  15  17
ENDBRANCH  14  15
ENDBRANCH  13  14
ENDBRANCH  11  13
ENDBRANCH  10  11
ENDBRANCH   1  10
TORSDOF 11
ENDMDL
MODEL 2
REMARK VINA RESULT:      -5.0      1.457      1.834
REMARK  Name = 
REMARK  11 active torsions:
REMARK  status: ('A' for Active; 'I' for Inactive)
REMARK    1  A    between atoms: O_1  and  C_2
REMARK    2  A    between atoms: C_2  and  C_4
REMARK    3  A    between atoms: C_4  and  C_5
REMARK    4  A    between atoms: C_5  and  C_6
REMARK    5  A    between atoms: C_6  and  C_8
REMARK    6  A    between atoms: C_8  and  C_9
REMARK    7  A    between atoms: C_9  and  C_10
REMARK    8  A    between atoms: C_10  and  C_12
REMARK    9  A    between atoms: C_12  and  C_13
REMARK   10  A    between atoms: C_13  and  C_14
REMARK   11  A    between atoms: C_14  and  O_15
REMARK                            x       y       z     vdW  Elec       q    Type
REMARK                         _______ _______ _______ _____ _____    ______ ____
ROOT
ATOM      1  C   UNL     1       8.228  -2.325  22.597  0.00  0.00    +0.082 C 
ENDROOT
BRANCH   1   2
ATOM      2  C   UNL     1       9.645  -1.956  22.992  0.00  0.00    +0.134 C 
ATOM      3  O   UNL     1      10.360  -2.743  23.613  0.00  0.00    -0.297 OA
BRANCH   2   4
ATOM      4  C   UNL     1      10.173  -0.609  22.552  0.00  0.00    +0.085 C 
BRANCH   4   5
ATOM      5  C   UNL     1       9.407  -0.090  21.342  0.00  0.00    +0.128 C 
BRANCH   5   6
ATOM      6  C   UNL     1       9.025   1.356  21.500  0.00  0.00    +0.305 C 
ATOM      7  O   UNL     1       7.880   1.780  21.553  0.00  0.00    -0.251 OA
BRANCH   6   8
ATOM      8  O   UNL     1      10.106   2.165  21.605  0.00  0.00    -0.481 OA
ATOM      9  H   UNL     1      10.346   2.629  20.781  0.00  0.00    +0.295 HD
ENDBRANCH   6   8
ENDBRANCH   5   6
ENDBRANCH   4   5
ENDBRANCH   2   4
ENDBRANCH   1   2
BRANCH   1  10
ATOM     10  C   UNL     1       7.247  -1.971  23.707  0.00  0.00    +0.082 C 
BRANCH  10  11
ATOM     11  C   UNL     1       6.737  -3.212  24.406  0.00  0.00    +0.134 C 
ATOM     12  O   UNL     1       6.001  -3.161  25.397  0.00  0.00    -0.297 OA
BRANCH  11  13
ATOM     13  C   UNL     1       7.272  -4.552  23.976  0.00  0.00    +0.085 C 
BRANCH  13  14
ATOM     14  C   UNL     1       7.751  -5.350  25.173  0.00  0.00    +0.128 C 
BRANCH  14  15
ATOM     15  C   UNL     1       9.098  -5.005  25.779  0.00  0.00    +0.305 C 
ATOM     16  O   UNL     1       9.171  -4.508  26.899  0.00  0.00    -0.251 OA
BRANCH  15  17
ATOM     17  O   UNL     1      10.207  -5.279  25.075  0.00  0.00    -0.481 OA
ATOM     18  H   UNL     1      11.068  -5.341  25.542  0.00  0.00    +0.295 HD
ENDBRANCH  15  17
ENDBRANCH  14  15
ENDBRANCH  13  14
ENDBRANCH  11  13
ENDBRANCH  10  11
ENDBRANCH   1  10
TORSDOF 11
ENDMDL
MODEL 3
REMARK VINA RESULT:      -5.0      1.631      1.945
REMARK  Name = 
REMARK  11 active torsions:
REMARK  status: ('A' for Active; 'I' for Inactive)
REMARK    1  A    between atoms: O_1  and  C_2
REMARK    2  A    between atoms: C_2  and  C_4
REMARK    3  A    between atoms: C_4  and  C_5
REMARK    4  A    between atoms: C_5  and  C_6
REMARK    5  A    between atoms: C_6  and  C_8
REMARK    6  A    between atoms: C_8  and  C_9
REMARK    7  A    between atoms: C_9  and  C_10
REMARK    8  A    between atoms: C_10  and  C_12
REMARK    9  A    between atoms: C_12  and  C_13
REMARK   10  A    between atoms: C_13  and  C_14
REMARK   11  A    between atoms: C_14  and  O_15
REMARK                            x       y       z     vdW  Elec       q    Type
REMARK                         _______ _______ _______ _____ _____    ______ ____
ROOT
ATOM      1  C   UNL     1       9.174  -0.861  24.994  0.00  0.00    +0.082 C 
ENDROOT
BRANCH   1   2
ATOM      2  C   UNL     1       9.966   0.413  24.775  0.00  0.00    +0.134 C 
ATOM      3  O   UNL     1      11.191   0.432  24.898  0.00  0.00    -0.297 OA
BRANCH   2   4
ATOM      4  C   UNL     1       9.208   1.652  24.350  0.00  0.00    +0.085 C 
BRANCH   4   5
ATOM      5  C   UNL     1       8.509   1.433  23.015  0.00  0.00    +0.128 C 
BRANCH   5   6
ATOM      6  C   UNL     1       9.493   1.232  21.895  0.00  0.00    +0.305 C 
ATOM      7  O   UNL     1       9.613   0.208  21.238  0.00  0.00    -0.251 OA
BRANCH   6   8
ATOM      8  O   UNL     1      10.240   2.338  21.662  0.00  0.00    -0.481 OA
ATOM      9  H   UNL     1      11.136   2.308  22.046  0.00  0.00    +0.295 HD
ENDBRANCH   6   8
ENDBRANCH   5   6
ENDBRANCH   4   5
ENDBRANCH   2   4
ENDBRANCH   1   2
BRANCH   1  10
ATOM     10  C   UNL     1       9.643  -1.960  24.049  0.00  0.00    +0.082 C 
BRANCH  10  11
ATOM     11  C   UNL     1       8.474  -2.620  23.350  0.00  0.00    +0.134 C 
ATOM     12  O   UNL     1       8.114  -2.302  22.212  0.00  0.00    -0.297 OA
BRANCH  11  13
ATOM     13  C   UNL     1       7.622  -3.586  24.129  0.00  0.00    +0.085 C 
BRANCH  13  14
ATOM     14  C   UNL     1       8.243  -4.970  24.133  0.00  0.00    +0.128 C 
BRANCH  14  15
ATOM     15  C   UNL     1       8.933  -5.448  25.395  0.00  0.00    +0.305 C 
ATOM     16  O   UNL     1       8.281  -5.737  26.394  0.00  0.00    -0.251 OA
BRANCH  15  17
ATOM     17  O   UNL     1      10.269  -5.573  25.388  0.00  0.00    -0.481 OA
ATOM     18  H   UNL     1      10.806  -5.011  25.989  0.00  0.00    +0.295 HD
ENDBRANCH  15  17
ENDBRANCH  14  15
ENDBRANCH  13  14
ENDBRANCH  11  13
ENDBRANCH  10  11
ENDBRANCH   1  10
TORSDOF 11
ENDMDL
MODEL 4
REMARK VINA RESULT:      -4.9      1.559      6.489
REMARK  Name = 
REMARK  11 active torsions:
REMARK  status: ('A' for Active; 'I' for Inactive)
REMARK    1  A    between atoms: O_1  and  C_2
REMARK    2  A    between atoms: C_2  and  C_4
REMARK    3  A    between atoms: C_4  and  C_5
REMARK    4  A    between atoms: C_5  and  C_6
REMARK    5  A    between atoms: C_6  and  C_8
REMARK    6  A    between atoms: C_8  and  C_9
REMARK    7  A    between atoms: C_9  and  C_10
REMARK    8  A    between atoms: C_10  and  C_12
REMARK    9  A    between atoms: C_12  and  C_13
REMARK   10  A    between atoms: C_13  and  C_14
REMARK   11  A    between atoms: C_14  and  O_15
REMARK                            x       y       z     vdW  Elec       q    Type
REMARK                         _______ _______ _______ _____ _____    ______ ____
ROOT
ATOM      1  C   UNL     1       8.225  -1.709  24.416  0.00  0.00    +0.082 C 
ENDROOT
BRANCH   1   2
ATOM      2  C   UNL     1       8.985  -2.910  23.886  0.00  0.00    +0.134 C 
ATOM      3  O   UNL     1      10.201  -2.865  23.703  0.00  0.00    -0.297 OA
BRANCH   2   4
ATOM      4  C   UNL     1       8.208  -4.184  23.638  0.00  0.00    +0.085 C 
BRANCH   4   5
ATOM      5  C   UNL     1       7.703  -4.780  24.945  0.00  0.00    +0.128 C 
BRANCH   5   6
ATOM      6  C   UNL     1       8.829  -5.063  25.902  0.00  0.00    +0.305 C 
ATOM      7  O   UNL     1       8.972  -4.536  26.996  0.00  0.00    -0.251 OA
BRANCH   6   8
ATOM      8  O   UNL     1       9.681  -6.003  25.429  0.00  0.00    -0.481 OA
ATOM      9  H   UNL     1       9.677  -6.101  24.459  0.00  0.00    +0.295 HD
ENDBRANCH   6   8
ENDBRANCH   5   6
ENDBRANCH   4   5
ENDBRANCH   2   4
ENDBRANCH   1   2
BRANCH   1  10
ATOM     10  C   UNL     1       9.067  -0.938  25.425  0.00  0.00    +0.082 C 
BRANCH  10  11
ATOM     11  C   UNL     1       9.319   0.479  24.960  0.00  0.00    +0.134 C 
ATOM     12  O   UNL     1       8.483   1.380  25.090  0.00  0.00    -0.297 OA
BRANCH  11  13
ATOM     13  C   UNL     1      10.567   0.767  24.170  0.00  0.00    +0.085 C 
BRANCH  13  14
ATOM     14  C   UNL     1      10.242   1.552  22.914  0.00  0.00    +0.128 C 
BRANCH  14  15
ATOM     15  C   UNL     1       9.598   0.822  21.752  0.00  0.00    +0.305 C 
ATOM     16  O   UNL     1       9.863  -0.356  21.529  0.00  0.00    -0.251 OA
BRANCH  15  17
ATOM     17  O   UNL     1       8.716   1.484  20.988  0.00  0.00    -0.481 OA
ATOM     18  H   UNL     1       8.037   0.977  20.490  0.00  0.00    +0.295 HD
ENDBRANCH  15  17
ENDBRANCH  14  15
ENDBRANCH  13  14
ENDBRANCH  11  13
ENDBRANCH  10  11
ENDBRANCH   1  10
TORSDOF 11
ENDMDL
MODEL 5
REMARK VINA RESULT:      -4.9      2.864      3.639
REMARK  Name = 
REMARK  11 active torsions:
REMARK  status: ('A' for Active; 'I' for Inactive)
REMARK    1  A    between atoms: O_1  and  C_2
REMARK    2  A    between atoms: C_2  and  C_4
REMARK    3  A    between atoms: C_4  and  C_5
REMARK    4  A    between atoms: C_5  and  C_6
REMARK    5  A    between atoms: C_6  and  C_8
REMARK    6  A    between atoms: C_8  and  C_9
REMARK    7  A    between atoms: C_9  and  C_10
REMARK    8  A    between atoms: C_10  and  C_12
REMARK    9  A    between atoms: C_12  and  C_13
REMARK   10  A    between atoms: C_13  and  C_14
REMARK   11  A    between atoms: C_14  and  O_15
REMARK                            x       y       z     vdW  Elec       q    Type
REMARK                         _______ _______ _______ _____ _____    ______ ____
ROOT
ATOM      1  C   UNL     1       9.150  -1.646  24.402  0.00  0.00    +0.082 C 
ENDROOT
BRANCH   1   2
ATOM      2  C   UNL     1      10.078  -0.741  23.614  0.00  0.00    +0.134 C 
ATOM      3  O   UNL     1      10.299  -0.940  22.420  0.00  0.00    -0.297 OA
BRANCH   2   4
ATOM      4  C   UNL     1      10.683   0.446  24.330  0.00  0.00    +0.085 C 
BRANCH   4   5
ATOM      5  C   UNL     1       9.870   1.709  24.080  0.00  0.00    +0.128 C 
BRANCH   5   6
ATOM      6  C   UNL     1      10.511   2.590  23.042  0.00  0.00    +0.305 C 
ATOM      7  O   UNL     1      11.251   3.533  23.280  0.00  0.00    -0.251 OA
BRANCH   6   8
ATOM      8  O   UNL     1      10.197   2.211  21.781  0.00  0.00    -0.481 OA
ATOM      9  H   UNL     1      10.945   2.232  21.155  0.00  0.00    +0.295 HD
ENDBRANCH   6   8
ENDBRANCH   5   6
ENDBRANCH   4   5
ENDBRANCH   2   4
ENDBRANCH   1   2
BRANCH   1  10
ATOM     10  C   UNL     1       9.206  -3.073  23.873  0.00  0.00    +0.082 C 
BRANCH  10  11
ATOM     11  C   UNL     1       7.916  -3.453  23.181  0.00  0.00    +0.134 C 
ATOM     12  O   UNL     1       7.209  -2.629  22.592  0.00  0.00    -0.297 OA
BRANCH  11  13
ATOM     13  C   UNL     1       7.394  -4.855  23.353  0.00  0.00    +0.085 C 
BRANCH  13  14
ATOM     14  C   UNL     1       7.369  -5.587  22.025  0.00  0.00    +0.128 C 
BRANCH  14  15
ATOM     15  C   UNL     1       6.042  -5.731  21.304  0.00  0.00    +0.305 C 
ATOM     16  O   UNL     1       5.982  -5.638  20.082  0.00  0.00    -0.251 OA
BRANCH  15  17
ATOM     17  O   UNL     1       4.942  -5.985  22.029  0.00  0.00    -0.481 OA
ATOM     18  H   UNL     1       4.748  -5.430  22.816  0.00  0.00    +0.295 HD
ENDBRANCH  15  17
ENDBRANCH  14  15
ENDBRANCH  13  14
ENDBRANCH  11  13
ENDBRANCH  10  11
ENDBRANCH   1  10
TORSDOF 11
ENDMDL
MODEL 6
REMARK VINA RESULT:      -4.9      1.346      6.312
REMARK  Name = 
REMARK  11 active torsions:
REMARK  status: ('A' for Active; 'I' for Inactive)
REMARK    1  A    between atoms: O_1  and  C_2
REMARK    2  A    between atoms: C_2  and  C_4
REMARK    3  A    between atoms: C_4  and  C_5
REMARK    4  A    between atoms: C_5  and  C_6
REMARK    5  A    between atoms: C_6  and  C_8
REMARK    6  A    between atoms: C_8  and  C_9
REMARK    7  A    between atoms: C_9  and  C_10
REMARK    8  A    between atoms: C_10  and  C_12
REMARK    9  A    between atoms: C_12  and  C_13
REMARK   10  A    between atoms: C_13  and  C_14
REMARK   11  A    between atoms: C_14  and  O_15
REMARK                            x       y       z     vdW  Elec       q    Type
REMARK                         _______ _______ _______ _____ _____    ______ ____
ROOT
ATOM      1  C   UNL     1       8.411  -2.408  23.995  0.00  0.00    +0.082 C 
ENDROOT
BRANCH   1   2
ATOM      2  C   UNL     1       8.848  -3.834  24.270  0.00  0.00    +0.134 C 
ATOM      3  O   UNL     1      10.019  -4.102  24.537  0.00  0.00    -0.297 OA
BRANCH   2   4
ATOM      4  C   UNL     1       7.787  -4.912  24.257  0.00  0.00    +0.085 C 
BRANCH   4   5
ATOM      5  C   UNL     1       6.813  -4.735  25.414  0.00  0.00    +0.128 C 
BRANCH   5   6
ATOM      6  C   UNL     1       7.413  -5.172  26.722  0.00  0.00    +0.305 C 
ATOM      7  O   UNL     1       6.989  -4.869  27.828  0.00  0.00    -0.251 OA
BRANCH   6   8
ATOM      8  O   UNL     1       8.488  -5.978  26.551  0.00  0.00    -0.481 OA
ATOM      9  H   UNL     1       8.806  -6.407  27.367  0.00  0.00    +0.295 HD
ENDBRANCH   6   8
ENDBRANCH   5   6
ENDBRANCH   4   5
ENDBRANCH   2   4
ENDBRANCH   1   2
BRANCH   1  10
ATOM     10  C   UNL     1       8.342  -2.141  22.497  0.00  0.00    +0.082 C 
BRANCH  10  11
ATOM     11  C   UNL     1       9.550  -1.365  22.021  0.00  0.00    +0.134 C 
ATOM     12  O   UNL     1      10.708  -1.738  22.238  0.00  0.00    -0.297 OA
BRANCH  11  13
ATOM     13  C   UNL     1       9.336  -0.010  21.400  0.00  0.00    +0.085 C 
BRANCH  13  14
ATOM     14  C   UNL     1      10.043   1.067  22.200  0.00  0.00    +0.128 C 
BRANCH  14  15
ATOM     15  C   UNL     1       9.951   1.021  23.712  0.00  0.00    +0.305 C 
ATOM     16  O   UNL     1       8.924   1.366  24.288  0.00  0.00    -0.251 OA
BRANCH  15  17
ATOM     17  O   UNL     1      11.009   0.572  24.405  0.00  0.00    -0.481 OA
ATOM     18  H   UNL     1      11.525   1.202  24.954  0.00  0.00    +0.295 HD
ENDBRANCH  15  17
ENDBRANCH  14  15
ENDBRANCH  13  14
ENDBRANCH  11  13
ENDBRANCH  10  11
ENDBRANCH   1  10
TORSDOF 11
ENDMDL
MODEL 7
REMARK VINA RESULT:      -4.9      2.497      6.316
REMARK  Name = 
REMARK  11 active torsions:
REMARK  status: ('A' for Active; 'I' for Inactive)
REMARK    1  A    between atoms: O_1  and  C_2
REMARK    2  A    between atoms: C_2  and  C_4
REMARK    3  A    between atoms: C_4  and  C_5
REMARK    4  A    between atoms: C_5  and  C_6
REMARK    5  A    between atoms: C_6  and  C_8
REMARK    6  A    between atoms: C_8  and  C_9
REMARK    7  A    between atoms: C_9  and  C_10
REMARK    8  A    between atoms: C_10  and  C_12
REMARK    9  A    between atoms: C_12  and  C_13
REMARK   10  A    between atoms: C_13  and  C_14
REMARK   11  A    between atoms: C_14  and  O_15
REMARK                            x       y       z     vdW  Elec       q    Type
REMARK                         _______ _______ _______ _____ _____    ______ ____
ROOT
ATOM      1  C   UNL     1       8.035  -2.653  24.320  0.00  0.00    +0.082 C 
ENDROOT
BRANCH   1   2
ATOM      2  C   UNL     1       8.358  -4.129  24.190  0.00  0.00    +0.134 C 
ATOM      3  O   UNL     1       9.480  -4.562  24.451  0.00  0.00    -0.297 OA
BRANCH   2   4
ATOM      4  C   UNL     1       7.240  -5.063  23.779  0.00  0.00    +0.085 C 
BRANCH   4   5
ATOM      5  C   UNL     1       7.412  -5.520  22.337  0.00  0.00    +0.128 C 
BRANCH   5   6
ATOM      6  C   UNL     1       6.167  -5.290  21.525  0.00  0.00    +0.305 C 
ATOM      7  O   UNL     1       5.799  -4.208  21.090  0.00  0.00    -0.251 OA
BRANCH   6   8
ATOM      8  O   UNL     1       5.483  -6.437  21.296  0.00  0.00    -0.481 OA
ATOM      9  H   UNL     1       4.986  -6.450  20.457  0.00  0.00    +0.295 HD
ENDBRANCH   6   8
ENDBRANCH   5   6
ENDBRANCH   4   5
ENDBRANCH   2   4
ENDBRANCH   1   2
BRANCH   1  10
ATOM     10  C   UNL     1       8.396  -1.905  23.042  0.00  0.00    +0.082 C 
BRANCH  10  11
ATOM     11  C   UNL     1       9.806  -1.360  23.105  0.00  0.00    +0.134 C 
ATOM     12  O   UNL     1      10.702  -1.748  22.348  0.00  0.00    -0.297 OA
BRANCH  11  13
ATOM     13  C   UNL     1      10.168  -0.429  24.231  0.00  0.00    +0.085 C 
BRANCH  13  14
ATOM     14  C   UNL     1      10.531   0.944  23.700  0.00  0.00    +0.128 C 
BRANCH  14  15
ATOM     15  C   UNL     1       9.563   1.634  22.759  0.00  0.00    +0.305 C 
ATOM     16  O   UNL     1       8.406   1.856  23.104  0.00  0.00    -0.251 OA
BRANCH  15  17
ATOM     17  O   UNL     1      10.004   2.016  21.551  0.00  0.00    -0.481 OA
ATOM     18  H   UNL     1      10.611   1.425  21.053  0.00  0.00    +0.295 HD
ENDBRANCH  15  17
ENDBRANCH  14  15
ENDBRANCH  13  14
ENDBRANCH  11  13
ENDBRANCH  10  11
ENDBRANCH   1  10
TORSDOF 11
ENDMDL
MODEL 8
REMARK VINA RESULT:      -4.8      1.528      6.738
REMARK  Name = 
REMARK  11 active torsions:
REMARK  status: ('A' for Active; 'I' for Inactive)
REMARK    1  A    between atoms: O_1  and  C_2
REMARK    2  A    between atoms: C_2  and  C_4
REMARK    3  A    between atoms: C_4  and  C_5
REMARK    4  A    between atoms: C_5  and  C_6
REMARK    5  A    between atoms: C_6  and  C_8
REMARK    6  A    between atoms: C_8  and  C_9
REMARK    7  A    between atoms: C_9  and  C_10
REMARK    8  A    between atoms: C_10  and  C_12
REMARK    9  A    between atoms: C_12  and  C_13
REMARK   10  A    between atoms: C_13  and  C_14
REMARK   11  A    between atoms: C_14  and  O_15
REMARK                            x       y       z     vdW  Elec       q    Type
REMARK                         _______ _______ _______ _____ _____    ______ ____
ROOT
ATOM      1  C   UNL     1       7.535  -3.197  22.567  0.00  0.00    +0.082 C 
ENDROOT
BRANCH   1   2
ATOM      2  C   UNL     1       6.497  -3.943  23.382  0.00  0.00    +0.134 C 
ATOM      3  O   UNL     1       5.318  -3.590  23.390  0.00  0.00    -0.297 OA
BRANCH   2   4
ATOM      4  C   UNL     1       6.946  -5.170  24.145  0.00  0.00    +0.085 C 
BRANCH   4   5
ATOM      5  C   UNL     1       6.635  -5.035  25.630  0.00  0.00    +0.128 C 
BRANCH   5   6
ATOM      6  C   UNL     1       7.887  -5.023  26.463  0.00  0.00    +0.305 C 
ATOM      7  O   UNL     1       8.871  -4.331  26.246  0.00  0.00    -0.251 OA
BRANCH   6   8
ATOM      8  O   UNL     1       7.807  -5.861  27.524  0.00  0.00    -0.481 OA
ATOM      9  H   UNL     1       8.115  -6.769  27.346  0.00  0.00    +0.295 HD
ENDBRANCH   6   8
ENDBRANCH   5   6
ENDBRANCH   4   5
ENDBRANCH   2   4
ENDBRANCH   1   2
BRANCH   1  10
ATOM     10  C   UNL     1       8.104  -2.025  23.357  0.00  0.00    +0.082 C 
BRANCH  10  11
ATOM     11  C   UNL     1       9.613  -1.973  23.253  0.00  0.00    +0.134 C 
ATOM     12  O   UNL     1      10.341  -2.872  23.686  0.00  0.00    -0.297 OA
BRANCH  11  13
ATOM     13  C   UNL     1      10.255  -0.709  22.746  0.00  0.00    +0.085 C 
BRANCH  13  14
ATOM     14  C   UNL     1       9.489  -0.152  21.561  0.00  0.00    +0.128 C 
BRANCH  14  15
ATOM     15  C   UNL     1       9.185   1.333  21.531  0.00  0.00    +0.305 C 
ATOM     16  O   UNL     1       8.028   1.733  21.450  0.00  0.00    -0.251 OA
BRANCH  15  17
ATOM     17  O   UNL     1      10.207   2.198  21.619  0.00  0.00    -0.481 OA
ATOM     18  H   UNL     1      10.087   3.031  22.127  0.00  0.00    +0.295 HD
ENDBRANCH  15  17
ENDBRANCH  14  15
ENDBRANCH  13  14
ENDBRANCH  11  13
ENDBRANCH  10  11
ENDBRANCH   1  10
TORSDOF 11
ENDMDL
MODEL 9
REMARK VINA RESULT:      -4.7      2.229      2.972
REMARK  Name = 
REMARK  11 active torsions:
REMARK  status: ('A' for Active; 'I' for Inactive)
REMARK    1  A    between atoms: O_1  and  C_2
REMARK    2  A    between atoms: C_2  and  C_4
REMARK    3  A    between atoms: C_4  and  C_5
REMARK    4  A    between atoms: C_5  and  C_6
REMARK    5  A    between atoms: C_6  and  C_8
REMARK    6  A    between atoms: C_8  and  C_9
REMARK    7  A    between atoms: C_9  and  C_10
REMARK    8  A    between atoms: C_10  and  C_12
REMARK    9  A    between atoms: C_12  and  C_13
REMARK   10  A    between atoms: C_13  and  C_14
REMARK   11  A    between atoms: C_14  and  O_15
REMARK                            x       y       z     vdW  Elec       q    Type
REMARK                         _______ _______ _______ _____ _____    ______ ____
ROOT
ATOM      1  C   UNL     1       9.017  -1.595  24.726  0.00  0.00    +0.082 C 
ENDROOT
BRANCH   1   2
ATOM      2  C   UNL     1       9.617  -0.322  24.161  0.00  0.00    +0.134 C 
ATOM      3  O   UNL     1       9.575   0.736  24.788  0.00  0.00    -0.297 OA
BRANCH   2   4
ATOM      4  C   UNL     1      10.317  -0.405  22.822  0.00  0.00    +0.085 C 
BRANCH   4   5
ATOM      5  C   UNL     1       9.344  -0.147  21.679  0.00  0.00    +0.128 C 
BRANCH   5   6
ATOM      6  C   UNL     1       9.006   1.313  21.551  0.00  0.00    +0.305 C 
ATOM      7  O   UNL     1       7.875   1.769  21.463  0.00  0.00    -0.251 OA
BRANCH   6   8
ATOM      8  O   UNL     1      10.109   2.099  21.566  0.00  0.00    -0.481 OA
ATOM      9  H   UNL     1      10.399   2.371  22.457  0.00  0.00    +0.295 HD
ENDBRANCH   6   8
ENDBRANCH   5   6
ENDBRANCH   4   5
ENDBRANCH   2   4
ENDBRANCH   1   2
BRANCH   1  10
ATOM     10  C   UNL     1       9.650  -2.823  24.085  0.00  0.00    +0.082 C 
BRANCH  10  11
ATOM     11  C   UNL     1       8.714  -4.011  24.131  0.00  0.00    +0.134 C 
ATOM     12  O   UNL     1       9.109  -5.160  24.353  0.00  0.00    -0.297 OA
BRANCH  11  13
ATOM     13  C   UNL     1       7.275  -3.809  23.736  0.00  0.00    +0.085 C 
BRANCH  13  14
ATOM     14  C   UNL     1       7.105  -3.940  22.235  0.00  0.00    +0.128 C 
BRANCH  14  15
ATOM     15  C   UNL     1       6.424  -5.180  21.690  0.00  0.00    +0.305 C 
ATOM     16  O   UNL     1       5.974  -5.197  20.548  0.00  0.00    -0.251 OA
BRANCH  15  17
ATOM     17  O   UNL     1       6.345  -6.266  22.475  0.00  0.00    -0.481 OA
ATOM     18  H   UNL     1       7.124  -6.526  23.013  0.00  0.00    +0.295 HD
ENDBRANCH  15  17
ENDBRANCH  14  15
ENDBRANCH  13  14
ENDBRANCH  11  13
ENDBRANCH  10  11
ENDBRANCH   1  10
TORSDOF 11
ENDMDL
