MODEL 1
REMARK VINA RESULT:      -6.5      0.000      0.000
REMARK  Name = 
REMARK  9 active torsions:
REMARK  status: ('A' for Active; 'I' for Inactive)
REMARK    1  A    between atoms: C_2  and  C_4
REMARK    2  A    between atoms: C_4  and  C_5
REMARK    3  A    between atoms: C_20  and  C_42
REMARK    4  A    between atoms: C_25  and  C_31
REMARK    5  A    between atoms: C_31  and  C_32
REMARK    6  A    between atoms: C_45  and  C_48
REMARK    7  A    between atoms: C_48  and  P_49
REMARK    8  A    between atoms: P_49  and  O_50
REMARK    9  A    between atoms: P_49  and  O_51
REMARK                            x       y       z     vdW  Elec       q    Type
REMARK                         _______ _______ _______ _____ _____    ______ ____
ROOT
ATOM      1  C   UNL     1       9.717   5.250  24.127  0.00  0.00    +0.168 C 
ATOM      2  C   UNL     1      10.305   3.712  23.959  0.00  0.00    +0.234 C 
ATOM      3  O   UNL     1      11.272   3.556  23.204  0.00  0.00    -0.274 OA
ATOM      4  N   UNL     1       9.625   2.567  24.538  0.00  0.00    -0.313 N 
ATOM      5  H   UNL     1       8.868   2.734  25.181  0.00  0.00    +0.149 HD
ATOM      6  C   UNL     1       9.649   1.199  23.843  0.00  0.00    +0.108 C 
ATOM      7  C   UNL     1       8.841  -0.243  24.198  0.00  0.00    +0.014 C 
ATOM      8  C   UNL     1       9.173  -0.796  25.614  0.00  0.00    +0.032 C 
ATOM      9  C   UNL     1       8.338  -0.039  26.570  0.00  0.00    -0.030 C 
ATOM     10  C   UNL     1       8.132  -0.020  27.888  0.00  0.00    -0.023 C 
ATOM     11  C   UNL     1       7.110   0.961  28.483  0.00  0.00    +0.050 C 
ATOM     12  C   UNL     1       7.192   2.391  27.836  0.00  0.00    +0.108 C 
ATOM     13  C   UNL     1       6.569   2.554  26.431  0.00  0.00    +0.215 C 
ATOM     14  O   UNL     1       5.920   1.709  25.838  0.00  0.00    -0.276 OA
ATOM     15  N   UNL     1       6.815   3.746  25.825  0.00  0.00    -0.301 N 
ATOM     16  H   UNL     1       6.779   4.544  26.459  0.00  0.00    +0.150 HD
ATOM     17  C   UNL     1       6.430   4.056  24.392  0.00  0.00    +0.111 C 
ATOM     18  C   UNL     1       7.008   3.072  23.344  0.00  0.00    +0.035 C 
ATOM     19  C   UNL     1       6.566   3.299  21.902  0.00  0.00    +0.003 C 
ATOM     20  C   UNL     1       5.065   3.257  21.813  0.00  0.00    +0.000 C 
ATOM     21  C   UNL     1       4.442   4.273  22.768  0.00  0.00    +0.003 C 
ATOM     22  C   UNL     1       4.912   4.135  24.220  0.00  0.00    +0.035 C 
ATOM     23  C   UNL     1       7.248   5.351  24.171  0.00  0.00    +0.237 C 
ATOM     24  O   UNL     1       7.020   6.193  23.312  0.00  0.00    -0.273 OA
ATOM     25  N   UNL     1       8.463   5.262  24.859  0.00  0.00    -0.302 N 
ATOM     26  H   UNL     1       8.468   4.623  25.638  0.00  0.00    +0.150 HD
ENDROOT
BRANCH  11  27
ATOM     27  C   UNL     1       5.682   0.416  28.610  0.00  0.00    -0.040 A 
ATOM     28  C   UNL     1       5.261  -0.709  27.892  0.00  0.00    +0.004 A 
ATOM     29  C   UNL     1       4.027  -1.314  28.180  0.00  0.00    +0.004 A 
ATOM     30  C   UNL     1       3.184  -0.782  29.166  0.00  0.00    -0.036 A 
ATOM     31  C   UNL     1       3.516   0.419  29.762  0.00  0.00    +0.004 A 
ATOM     32  C   UNL     1       4.769   0.959  29.534  0.00  0.00    +0.004 A 
BRANCH  30  33
ATOM     33  C   UNL     1       2.009  -1.537  29.712  0.00  0.00    +0.162 C 
BRANCH  33  34
ATOM     34  P   UNL     1       2.016  -3.316  29.668  0.00  0.00    +0.332 P 
ATOM     35  O   UNL     1       3.272  -3.973  30.128  0.00  0.00    -0.258 OA
BRANCH  34  36
ATOM     36  O   UNL     1       1.609  -3.648  28.151  0.00  0.00    -0.324 OA
ATOM     37  H   UNL     1       0.674  -3.873  27.992  0.00  0.00    +0.220 HD
ENDBRANCH  34  36
BRANCH  34  38
ATOM     38  O   UNL     1       0.694  -3.712  30.485  0.00  0.00    -0.324 OA
ATOM     39  H   UNL     1       0.891  -3.985  31.402  0.00  0.00    +0.220 HD
ENDBRANCH  34  38
ENDBRANCH  33  34
ENDBRANCH  30  33
ENDBRANCH  11  27
BRANCH   1  40
ATOM     40  C   UNL     1      10.562   6.370  24.758  0.00  0.00    +0.127 C 
BRANCH  40  44
ATOM     41  N   UNL     1      12.726   5.984  23.635  0.00  0.00    -0.329 N 
ATOM     42  H   UNL     1      12.300   5.352  22.950  0.00  0.00    +0.145 HD
ATOM     43  H   UNL     1      13.740   5.954  23.714  0.00  0.00    +0.145 HD
ATOM     44  C   UNL     1      12.065   6.356  24.760  0.00  0.00    +0.213 C 
ATOM     45  O   UNL     1      12.716   6.733  25.736  0.00  0.00    -0.276 OA
ENDBRANCH  40  44
ENDBRANCH   1  40
BRANCH   7  46
ATOM     46  C   UNL     1       7.257  -0.583  23.828  0.00  0.00    +0.041 C 
BRANCH  46  47
ATOM     47  C   UNL     1       6.797  -2.056  23.516  0.00  0.00    -0.039 A 
ATOM     48  C   UNL     1       6.576  -3.126  24.513  0.00  0.00    -0.015 A 
ATOM     49  C   UNL     1       5.868  -4.304  24.111  0.00  0.00    -0.018 A 
ATOM     50  C   UNL     1       5.524  -5.351  25.003  0.00  0.00    +0.008 A 
ATOM     51  C   UNL     1       5.937  -5.328  26.314  0.00  0.00    +0.001 A 
ATOM     52  C   UNL     1       6.703  -4.255  26.748  0.00  0.00    +0.001 A 
ATOM     53  C   UNL     1       5.492  -4.482  22.780  0.00  0.00    +0.008 A 
ATOM     54  C   UNL     1       5.801  -3.528  21.827  0.00  0.00    +0.001 A 
ATOM     55  C   UNL     1       6.995  -3.170  25.879  0.00  0.00    +0.009 A 
ATOM     56  C   UNL     1       6.417  -2.325  22.197  0.00  0.00    +0.004 A 
ENDBRANCH  46  47
ENDBRANCH   7  46
TORSDOF 9
ENDMDL
MODEL 2
REMARK VINA RESULT:      -6.5      2.091      2.816
REMARK  Name = 
REMARK  9 active torsions:
REMARK  status: ('A' for Active; 'I' for Inactive)
REMARK    1  A    between atoms: C_2  and  C_4
REMARK    2  A    between atoms: C_4  and  C_5
REMARK    3  A    between atoms: C_20  and  C_42
REMARK    4  A    between atoms: C_25  and  C_31
REMARK    5  A    between atoms: C_31  and  C_32
REMARK    6  A    between atoms: C_45  and  C_48
REMARK    7  A    between atoms: C_48  and  P_49
REMARK    8  A    between atoms: P_49  and  O_50
REMARK    9  A    between atoms: P_49  and  O_51
REMARK                            x       y       z     vdW  Elec       q    Type
REMARK                         _______ _______ _______ _____ _____    ______ ____
ROOT
ATOM      1  C   UNL     1       9.783   3.671  23.814  0.00  0.00    +0.168 C 
ATOM      2  C   UNL     1      10.199   2.383  22.861  0.00  0.00    +0.234 C 
ATOM      3  O   UNL     1      10.860   2.623  21.844  0.00  0.00    -0.274 OA
ATOM      4  N   UNL     1       9.679   1.050  23.109  0.00  0.00    -0.313 N 
ATOM      5  H   UNL     1       9.181   0.882  23.969  0.00  0.00    +0.149 HD
ATOM      6  C   UNL     1       9.402   0.081  21.953  0.00  0.00    +0.108 C 
ATOM      7  C   UNL     1       8.673  -1.444  21.930  0.00  0.00    +0.014 C 
ATOM      8  C   UNL     1       9.412  -2.488  22.815  0.00  0.00    +0.032 C 
ATOM      9  C   UNL     1       8.974  -2.248  24.207  0.00  0.00    -0.030 C 
ATOM     10  C   UNL     1       9.205  -2.775  25.410  0.00  0.00    -0.023 C 
ATOM     11  C   UNL     1       8.486  -2.201  26.641  0.00  0.00    +0.050 C 
ATOM     12  C   UNL     1       8.434  -0.632  26.639  0.00  0.00    +0.108 C 
ATOM     13  C   UNL     1       7.402   0.028  25.697  0.00  0.00    +0.215 C 
ATOM     14  O   UNL     1       6.550  -0.560  25.051  0.00  0.00    -0.276 OA
ATOM     15  N   UNL     1       7.505   1.379  25.581  0.00  0.00    -0.301 N 
ATOM     16  H   UNL     1       7.719   1.850  26.459  0.00  0.00    +0.150 HD
ATOM     17  C   UNL     1       6.696   2.203  24.598  0.00  0.00    +0.111 C 
ATOM     18  C   UNL     1       6.849   1.772  23.118  0.00  0.00    +0.035 C 
ATOM     19  C   UNL     1       5.979   2.519  22.113  0.00  0.00    +0.003 C 
ATOM     20  C   UNL     1       4.530   2.392  22.494  0.00  0.00    +0.000 C 
ATOM     21  C   UNL     1       4.305   2.886  23.922  0.00  0.00    +0.003 C 
ATOM     22  C   UNL     1       5.210   2.218  24.964  0.00  0.00    +0.035 C 
ATOM     23  C   UNL     1       7.470   3.542  24.673  0.00  0.00    +0.237 C 
ATOM     24  O   UNL     1       7.023   4.634  24.350  0.00  0.00    -0.273 OA
ATOM     25  N   UNL     1       8.835   3.286  24.843  0.00  0.00    -0.302 N 
ATOM     26  H   UNL     1       9.055   2.392  25.252  0.00  0.00    +0.150 HD
ENDROOT
BRANCH  11  27
ATOM     27  C   UNL     1       7.147  -2.868  26.982  0.00  0.00    -0.040 A 
ATOM     28  C   UNL     1       6.937  -4.237  26.775  0.00  0.00    +0.004 A 
ATOM     29  C   UNL     1       5.790  -4.864  27.286  0.00  0.00    +0.004 A 
ATOM     30  C   UNL     1       4.822  -4.125  27.981  0.00  0.00    -0.036 A 
ATOM     31  C   UNL     1       4.940  -2.750  28.045  0.00  0.00    +0.004 A 
ATOM     32  C   UNL     1       6.112  -2.155  27.615  0.00  0.00    +0.004 A 
BRANCH  30  33
ATOM     33  C   UNL     1       3.739  -4.776  28.788  0.00  0.00    +0.162 C 
BRANCH  33  34
ATOM     34  P   UNL     1       3.280  -6.460  28.439  0.00  0.00    +0.332 P 
ATOM     35  O   UNL     1       3.081  -6.795  27.000  0.00  0.00    -0.258 OA
BRANCH  34  36
ATOM     36  O   UNL     1       1.983  -6.685  29.359  0.00  0.00    -0.324 OA
ATOM     37  H   UNL     1       1.955  -6.187  30.197  0.00  0.00    +0.220 HD
ENDBRANCH  34  36
BRANCH  34  38
ATOM     38  O   UNL     1       4.405  -7.315  29.195  0.00  0.00    -0.324 OA
ATOM     39  H   UNL     1       5.266  -7.287  28.734  0.00  0.00    +0.220 HD
ENDBRANCH  34  38
ENDBRANCH  33  34
ENDBRANCH  30  33
ENDBRANCH  11  27
BRANCH   1  40
ATOM     40  C   UNL     1      10.847   4.511  24.540  0.00  0.00    +0.127 C 
BRANCH  40  44
ATOM     41  N   UNL     1      11.729   5.537  22.476  0.00  0.00    -0.329 N 
ATOM     42  H   UNL     1      11.251   4.850  21.886  0.00  0.00    +0.145 HD
ATOM     43  H   UNL     1      12.471   6.079  22.037  0.00  0.00    +0.145 HD
ATOM     44  C   UNL     1      11.860   5.351  23.814  0.00  0.00    +0.213 C 
ATOM     45  O   UNL     1      12.772   5.926  24.409  0.00  0.00    -0.276 OA
ENDBRANCH  40  44
ENDBRANCH   1  40
BRANCH   7  46
ATOM     46  C   UNL     1       7.038  -1.738  21.976  0.00  0.00    +0.041 C 
BRANCH  46  47
ATOM     47  C   UNL     1       6.483  -3.194  22.199  0.00  0.00    -0.039 A 
ATOM     48  C   UNL     1       5.355  -3.568  23.080  0.00  0.00    -0.015 A 
ATOM     49  C   UNL     1       4.776  -4.870  22.940  0.00  0.00    -0.018 A 
ATOM     50  C   UNL     1       3.639  -5.302  23.668  0.00  0.00    +0.008 A 
ATOM     51  C   UNL     1       3.072  -4.503  24.633  0.00  0.00    +0.001 A 
ATOM     52  C   UNL     1       3.639  -3.260  24.881  0.00  0.00    +0.001 A 
ATOM     53  C   UNL     1       5.336  -5.801  22.065  0.00  0.00    +0.008 A 
ATOM     54  C   UNL     1       6.461  -5.484  21.324  0.00  0.00    +0.001 A 
ATOM     55  C   UNL     1       4.737  -2.794  24.109  0.00  0.00    +0.009 A 
ATOM     56  C   UNL     1       7.004  -4.194  21.371  0.00  0.00    +0.004 A 
ENDBRANCH  46  47
ENDBRANCH   7  46
TORSDOF 9
ENDMDL
MODEL 3
REMARK VINA RESULT:      -6.5      2.702      5.673
REMARK  Name = 
REMARK  9 active torsions:
REMARK  status: ('A' for Active; 'I' for Inactive)
REMARK    1  A    between atoms: C_2  and  C_4
REMARK    2  A    between atoms: C_4  and  C_5
REMARK    3  A    between atoms: C_20  and  C_42
REMARK    4  A    between atoms: C_25  and  C_31
REMARK    5  A    between atoms: C_31  and  C_32
REMARK    6  A    between atoms: C_45  and  C_48
REMARK    7  A    between atoms: C_48  and  P_49
REMARK    8  A    between atoms: P_49  and  O_50
REMARK    9  A    between atoms: P_49  and  O_51
REMARK                            x       y       z     vdW  Elec       q    Type
REMARK                         _______ _______ _______ _____ _____    ______ ____
ROOT
ATOM      1  C   UNL     1       8.971   6.560  25.114  0.00  0.00    +0.168 C 
ATOM      2  C   UNL     1       8.231   6.192  23.680  0.00  0.00    +0.234 C 
ATOM      3  O   UNL     1       8.107   7.107  22.857  0.00  0.00    -0.274 OA
ATOM      4  N   UNL     1       7.605   4.902  23.453  0.00  0.00    -0.313 N 
ATOM      5  H   UNL     1       7.762   4.168  24.125  0.00  0.00    +0.149 HD
ATOM      6  C   UNL     1       6.354   4.773  22.574  0.00  0.00    +0.108 C 
ATOM      7  C   UNL     1       5.346   3.453  22.260  0.00  0.00    +0.014 C 
ATOM      8  C   UNL     1       6.097   2.250  21.617  0.00  0.00    +0.032 C 
ATOM      9  C   UNL     1       6.770   1.533  22.721  0.00  0.00    -0.030 C 
ATOM     10  C   UNL     1       7.540   0.453  22.860  0.00  0.00    -0.023 C 
ATOM     11  C   UNL     1       8.022   0.039  24.259  0.00  0.00    +0.050 C 
ATOM     12  C   UNL     1       8.487   1.261  25.129  0.00  0.00    +0.108 C 
ATOM     13  C   UNL     1       7.374   2.140  25.743  0.00  0.00    +0.215 C 
ATOM     14  O   UNL     1       6.179   1.899  25.713  0.00  0.00    -0.276 OA
ATOM     15  N   UNL     1       7.804   3.287  26.334  0.00  0.00    -0.301 N 
ATOM     16  H   UNL     1       8.671   3.179  26.859  0.00  0.00    +0.150 HD
ATOM     17  C   UNL     1       6.872   4.361  26.861  0.00  0.00    +0.111 C 
ATOM     18  C   UNL     1       5.883   4.927  25.813  0.00  0.00    +0.035 C 
ATOM     19  C   UNL     1       4.870   5.942  26.331  0.00  0.00    +0.003 C 
ATOM     20  C   UNL     1       4.073   5.342  27.457  0.00  0.00    +0.000 C 
ATOM     21  C   UNL     1       4.999   4.843  28.564  0.00  0.00    +0.003 C 
ATOM     22  C   UNL     1       6.085   3.875  28.081  0.00  0.00    +0.035 C 
ATOM     23  C   UNL     1       7.885   5.513  27.071  0.00  0.00    +0.237 C 
ATOM     24  O   UNL     1       7.717   6.476  27.806  0.00  0.00    -0.273 OA
ATOM     25  N   UNL     1       8.858   5.470  26.066  0.00  0.00    -0.302 N 
ATOM     26  H   UNL     1       8.988   4.569  25.634  0.00  0.00    +0.150 HD
ENDROOT
BRANCH  11  27
ATOM     27  C   UNL     1       7.102  -0.939  25.001  0.00  0.00    -0.040 A 
ATOM     28  C   UNL     1       5.930  -1.431  24.414  0.00  0.00    +0.004 A 
ATOM     29  C   UNL     1       5.220  -2.479  25.020  0.00  0.00    +0.004 A 
ATOM     30  C   UNL     1       5.652  -3.026  26.237  0.00  0.00    -0.036 A 
ATOM     31  C   UNL     1       6.710  -2.437  26.903  0.00  0.00    +0.004 A 
ATOM     32  C   UNL     1       7.452  -1.465  26.259  0.00  0.00    +0.004 A 
BRANCH  30  33
ATOM     33  C   UNL     1       5.112  -4.316  26.776  0.00  0.00    +0.162 C 
BRANCH  33  34
ATOM     34  P   UNL     1       6.236  -5.639  27.170  0.00  0.00    +0.332 P 
ATOM     35  O   UNL     1       7.461  -5.724  26.325  0.00  0.00    -0.258 OA
BRANCH  34  36
ATOM     36  O   UNL     1       5.300  -6.943  27.115  0.00  0.00    -0.324 OA
ATOM     37  H   UNL     1       5.285  -7.498  27.916  0.00  0.00    +0.220 HD
ENDBRANCH  34  36
BRANCH  34  38
ATOM     38  O   UNL     1       6.493  -5.451  28.741  0.00  0.00    -0.324 OA
ATOM     39  H   UNL     1       5.661  -5.393  29.250  0.00  0.00    +0.220 HD
ENDBRANCH  34  38
ENDBRANCH  33  34
ENDBRANCH  30  33
ENDBRANCH  11  27
BRANCH   1  40
ATOM     40  C   UNL     1      10.447   6.991  25.170  0.00  0.00    +0.127 C 
BRANCH  40  44
ATOM     41  N   UNL     1      11.227   5.729  23.197  0.00  0.00    -0.329 N 
ATOM     42  H   UNL     1      10.281   5.397  22.988  0.00  0.00    +0.145 HD
ATOM     43  H   UNL     1      11.994   5.239  22.741  0.00  0.00    +0.145 HD
ATOM     44  C   UNL     1      11.530   6.298  24.392  0.00  0.00    +0.213 C 
ATOM     45  O   UNL     1      12.699   6.285  24.778  0.00  0.00    -0.276 OA
ENDBRANCH  40  44
ENDBRANCH   1  40
BRANCH   7  46
ATOM     46  C   UNL     1       4.150   2.885  23.264  0.00  0.00    +0.041 C 
BRANCH  46  47
ATOM     47  C   UNL     1       2.924   3.792  23.657  0.00  0.00    -0.039 A 
ATOM     48  C   UNL     1       2.146   3.703  24.912  0.00  0.00    -0.015 A 
ATOM     49  C   UNL     1       1.272   4.784  25.256  0.00  0.00    -0.018 A 
ATOM     50  C   UNL     1       0.547   4.845  26.473  0.00  0.00    +0.008 A 
ATOM     51  C   UNL     1       0.580   3.803  27.369  0.00  0.00    +0.001 A 
ATOM     52  C   UNL     1       1.341   2.684  27.056  0.00  0.00    +0.001 A 
ATOM     53  C   UNL     1       1.080   5.845  24.372  0.00  0.00    +0.008 A 
ATOM     54  C   UNL     1       1.725   5.868  23.148  0.00  0.00    +0.001 A 
ATOM     55  C   UNL     1       2.123   2.644  25.871  0.00  0.00    +0.009 A 
ATOM     56  C   UNL     1       2.652   4.873  22.813  0.00  0.00    +0.004 A 
ENDBRANCH  46  47
ENDBRANCH   7  46
TORSDOF 9
ENDMDL
MODEL 4
REMARK VINA RESULT:      -6.4      3.583      5.816
REMARK  Name = 
REMARK  9 active torsions:
REMARK  status: ('A' for Active; 'I' for Inactive)
REMARK    1  A    between atoms: C_2  and  C_4
REMARK    2  A    between atoms: C_4  and  C_5
REMARK    3  A    between atoms: C_20  and  C_42
REMARK    4  A    between atoms: C_25  and  C_31
REMARK    5  A    between atoms: C_31  and  C_32
REMARK    6  A    between atoms: C_45  and  C_48
REMARK    7  A    between atoms: C_48  and  P_49
REMARK    8  A    between atoms: P_49  and  O_50
REMARK    9  A    between atoms: P_49  and  O_51
REMARK                            x       y       z     vdW  Elec       q    Type
REMARK                         _______ _______ _______ _____ _____    ______ ____
ROOT
ATOM      1  C   UNL     1       3.239   6.208  27.819  0.00  0.00    +0.168 C 
ATOM      2  C   UNL     1       4.842   5.800  27.881  0.00  0.00    +0.234 C 
ATOM      3  O   UNL     1       5.648   6.710  28.107  0.00  0.00    -0.274 OA
ATOM      4  N   UNL     1       5.306   4.471  27.526  0.00  0.00    -0.313 N 
ATOM      5  H   UNL     1       4.621   3.744  27.390  0.00  0.00    +0.149 HD
ATOM      6  C   UNL     1       6.672   4.261  26.860  0.00  0.00    +0.108 C 
ATOM      7  C   UNL     1       7.394   2.876  26.214  0.00  0.00    +0.014 C 
ATOM      8  C   UNL     1       7.568   1.735  27.258  0.00  0.00    +0.032 C 
ATOM      9  C   UNL     1       6.258   1.058  27.366  0.00  0.00    -0.030 C 
ATOM     10  C   UNL     1       5.739   0.033  28.044  0.00  0.00    -0.023 C 
ATOM     11  C   UNL     1       4.269  -0.357  27.824  0.00  0.00    +0.050 C 
ATOM     12  C   UNL     1       3.316   0.888  27.735  0.00  0.00    +0.108 C 
ATOM     13  C   UNL     1       3.331   1.682  26.409  0.00  0.00    +0.215 C 
ATOM     14  O   UNL     1       3.923   1.357  25.392  0.00  0.00    -0.276 OA
ATOM     15  N   UNL     1       2.638   2.852  26.427  0.00  0.00    -0.301 N 
ATOM     16  H   UNL     1       1.760   2.800  26.942  0.00  0.00    +0.150 HD
ATOM     17  C   UNL     1       2.649   3.853  25.289  0.00  0.00    +0.111 C 
ATOM     18  C   UNL     1       4.058   4.356  24.887  0.00  0.00    +0.035 C 
ATOM     19  C   UNL     1       4.114   5.293  23.686  0.00  0.00    +0.003 C 
ATOM     20  C   UNL     1       3.491   4.630  22.488  0.00  0.00    +0.000 C 
ATOM     21  C   UNL     1       2.063   4.189  22.802  0.00  0.00    +0.003 C 
ATOM     22  C   UNL     1       1.941   3.304  24.048  0.00  0.00    +0.035 C 
ATOM     23  C   UNL     1       2.012   5.071  26.000  0.00  0.00    +0.237 C 
ATOM     24  O   UNL     1       1.473   6.015  25.437  0.00  0.00    -0.273 OA
ATOM     25  N   UNL     1       2.429   5.105  27.335  0.00  0.00    -0.302 N 
ATOM     26  H   UNL     1       2.721   4.219  27.715  0.00  0.00    +0.150 HD
ENDROOT
BRANCH  11  27
ATOM     27  C   UNL     1       4.031  -1.403  26.727  0.00  0.00    -0.040 A 
ATOM     28  C   UNL     1       5.009  -1.697  25.770  0.00  0.00    +0.004 A 
ATOM     29  C   UNL     1       4.855  -2.798  24.913  0.00  0.00    +0.004 A 
ATOM     30  C   UNL     1       3.706  -3.598  24.978  0.00  0.00    -0.036 A 
ATOM     31  C   UNL     1       2.664  -3.218  25.803  0.00  0.00    +0.004 A 
ATOM     32  C   UNL     1       2.861  -2.186  26.702  0.00  0.00    +0.004 A 
BRANCH  30  33
ATOM     33  C   UNL     1       3.616  -4.933  24.303  0.00  0.00    +0.162 C 
BRANCH  33  34
ATOM     34  P   UNL     1       4.891  -6.144  24.584  0.00  0.00    +0.332 P 
ATOM     35  O   UNL     1       5.480  -6.161  25.953  0.00  0.00    -0.258 OA
BRANCH  34  36
ATOM     36  O   UNL     1       5.945  -5.846  23.411  0.00  0.00    -0.324 OA
ATOM     37  H   UNL     1       6.564  -5.107  23.561  0.00  0.00    +0.220 HD
ENDBRANCH  34  36
BRANCH  34  38
ATOM     38  O   UNL     1       4.210  -7.516  24.111  0.00  0.00    -0.324 OA
ATOM     39  H   UNL     1       3.563  -7.854  24.761  0.00  0.00    +0.220 HD
ENDBRANCH  34  38
ENDBRANCH  33  34
ENDBRANCH  30  33
ENDBRANCH  11  27
BRANCH   1  40
ATOM     40  C   UNL     1       2.496   6.742  29.055  0.00  0.00    +0.127 C 
BRANCH  40  44
ATOM     41  N   UNL     1       0.445   6.259  30.341  0.00  0.00    -0.329 N 
ATOM     42  H   UNL     1       0.193   7.250  30.382  0.00  0.00    +0.145 HD
ATOM     43  H   UNL     1      -0.033   5.639  30.991  0.00  0.00    +0.145 HD
ATOM     44  C   UNL     1       1.687   5.860  29.965  0.00  0.00    +0.213 C 
ATOM     45  O   UNL     1       2.094   4.757  30.330  0.00  0.00    -0.276 OA
ENDBRANCH  40  44
ENDBRANCH   1  40
BRANCH   7  46
ATOM     46  C   UNL     1       7.069   2.218  24.723  0.00  0.00    +0.041 C 
BRANCH  46  47
ATOM     47  C   UNL     1       8.213   1.571  23.856  0.00  0.00    -0.039 A 
ATOM     48  C   UNL     1       8.656   0.161  23.917  0.00  0.00    -0.015 A 
ATOM     49  C   UNL     1       9.482  -0.345  22.863  0.00  0.00    -0.018 A 
ATOM     50  C   UNL     1       9.892  -1.699  22.774  0.00  0.00    +0.008 A 
ATOM     51  C   UNL     1       9.582  -2.599  23.766  0.00  0.00    +0.001 A 
ATOM     52  C   UNL     1       8.857  -2.152  24.862  0.00  0.00    +0.001 A 
ATOM     53  C   UNL     1       9.944   0.504  21.857  0.00  0.00    +0.008 A 
ATOM     54  C   UNL     1       9.617   1.849  21.866  0.00  0.00    +0.001 A 
ATOM     55  C   UNL     1       8.385  -0.813  24.927  0.00  0.00    +0.009 A 
ATOM     56  C   UNL     1       8.743   2.364  22.833  0.00  0.00    +0.004 A 
ENDBRANCH  46  47
ENDBRANCH   7  46
TORSDOF 9
ENDMDL
MODEL 5
REMARK VINA RESULT:      -6.2      3.458      8.631
REMARK  Name = 
REMARK  9 active torsions:
REMARK  status: ('A' for Active; 'I' for Inactive)
REMARK    1  A    between atoms: C_2  and  C_4
REMARK    2  A    between atoms: C_4  and  C_5
REMARK    3  A    between atoms: C_20  and  C_42
REMARK    4  A    between atoms: C_25  and  C_31
REMARK    5  A    between atoms: C_31  and  C_32
REMARK    6  A    between atoms: C_45  and  C_48
REMARK    7  A    between atoms: C_48  and  P_49
REMARK    8  A    between atoms: P_49  and  O_50
REMARK    9  A    between atoms: P_49  and  O_51
REMARK                            x       y       z     vdW  Elec       q    Type
REMARK                         _______ _______ _______ _____ _____    ______ ____
ROOT
ATOM      1  C   UNL     1       7.498  -3.763  24.475  0.00  0.00    +0.168 C 
ATOM      2  C   UNL     1       8.863  -3.087  23.827  0.00  0.00    +0.234 C 
ATOM      3  O   UNL     1       9.881  -3.789  23.796  0.00  0.00    -0.274 OA
ATOM      4  N   UNL     1       8.919  -1.683  23.460  0.00  0.00    -0.313 N 
ATOM      5  H   UNL     1       8.062  -1.154  23.458  0.00  0.00    +0.149 HD
ATOM      6  C   UNL     1      10.222  -0.883  23.591  0.00  0.00    +0.108 C 
ATOM      7  C   UNL     1      10.541   0.764  23.385  0.00  0.00    +0.014 C 
ATOM      8  C   UNL     1      10.200   1.279  21.957  0.00  0.00    +0.032 C 
ATOM      9  C   UNL     1       8.740   1.510  21.927  0.00  0.00    -0.030 C 
ATOM     10  C   UNL     1       7.836   1.944  21.048  0.00  0.00    -0.023 C 
ATOM     11  C   UNL     1       6.361   2.052  21.467  0.00  0.00    +0.050 C 
ATOM     12  C   UNL     1       5.878   0.821  22.315  0.00  0.00    +0.108 C 
ATOM     13  C   UNL     1       6.321   0.779  23.794  0.00  0.00    +0.215 C 
ATOM     14  O   UNL     1       6.907   1.671  24.387  0.00  0.00    -0.276 OA
ATOM     15  N   UNL     1       6.044  -0.380  24.449  0.00  0.00    -0.301 N 
ATOM     16  H   UNL     1       5.136  -0.777  24.211  0.00  0.00    +0.150 HD
ATOM     17  C   UNL     1       6.525  -0.689  25.853  0.00  0.00    +0.111 C 
ATOM     18  C   UNL     1       8.061  -0.611  26.038  0.00  0.00    +0.035 C 
ATOM     19  C   UNL     1       8.573  -0.825  27.459  0.00  0.00    +0.003 C 
ATOM     20  C   UNL     1       7.933   0.169  28.390  0.00  0.00    +0.000 C 
ATOM     21  C   UNL     1       6.411   0.076  28.311  0.00  0.00    +0.003 C 
ATOM     22  C   UNL     1       5.849   0.210  26.891  0.00  0.00    +0.035 C 
ATOM     23  C   UNL     1       6.224  -2.206  25.910  0.00  0.00    +0.237 C 
ATOM     24  O   UNL     1       6.095  -2.862  26.934  0.00  0.00    -0.273 OA
ATOM     25  N   UNL     1       6.449  -2.776  24.652  0.00  0.00    -0.302 N 
ATOM     26  H   UNL     1       6.389  -2.137  23.875  0.00  0.00    +0.150 HD
ENDROOT
BRANCH  11  27
ATOM     27  C   UNL     1       5.948   3.409  22.048  0.00  0.00    -0.040 A 
ATOM     28  C   UNL     1       4.629   3.666  22.443  0.00  0.00    +0.004 A 
ATOM     29  C   UNL     1       4.318   4.830  23.163  0.00  0.00    +0.004 A 
ATOM     30  C   UNL     1       5.314   5.769  23.468  0.00  0.00    -0.036 A 
ATOM     31  C   UNL     1       6.581   5.605  22.941  0.00  0.00    +0.004 A 
ATOM     32  C   UNL     1       6.897   4.417  22.308  0.00  0.00    +0.004 A 
BRANCH  30  33
ATOM     33  C   UNL     1       5.105   6.868  24.467  0.00  0.00    +0.162 C 
BRANCH  33  34
ATOM     34  P   UNL     1       4.232   6.521  25.979  0.00  0.00    +0.332 P 
ATOM     35  O   UNL     1       2.832   7.028  26.052  0.00  0.00    -0.258 OA
BRANCH  34  36
ATOM     36  O   UNL     1       5.211   7.108  27.109  0.00  0.00    -0.324 OA
ATOM     37  H   UNL     1       6.153   7.181  26.871  0.00  0.00    +0.220 HD
ENDBRANCH  34  36
BRANCH  34  38
ATOM     38  O   UNL     1       4.401   4.936  26.150  0.00  0.00    -0.324 OA
ATOM     39  H   UNL     1       4.258   4.644  27.071  0.00  0.00    +0.220 HD
ENDBRANCH  34  38
ENDBRANCH  33  34
ENDBRANCH  30  33
ENDBRANCH  11  27
BRANCH   1  40
ATOM     40  C   UNL     1       6.809  -4.971  23.818  0.00  0.00    +0.127 C 
BRANCH  40  44
ATOM     41  N   UNL     1       6.851  -5.765  21.481  0.00  0.00    -0.329 N 
ATOM     42  H   UNL     1       7.820  -6.084  21.568  0.00  0.00    +0.145 HD
ATOM     43  H   UNL     1       6.484  -5.671  20.537  0.00  0.00    +0.145 HD
ATOM     44  C   UNL     1       6.290  -4.947  22.408  0.00  0.00    +0.213 C 
ATOM     45  O   UNL     1       5.329  -4.250  22.082  0.00  0.00    -0.276 OA
ENDBRANCH  40  44
ENDBRANCH   1  40
BRANCH   7  46
ATOM     46  C   UNL     1      10.222   1.960  24.494  0.00  0.00    +0.041 C 
BRANCH  46  47
ATOM     47  C   UNL     1      10.495   3.473  24.155  0.00  0.00    -0.039 A 
ATOM     48  C   UNL     1       9.800   4.635  24.752  0.00  0.00    -0.015 A 
ATOM     49  C   UNL     1      10.367   5.938  24.575  0.00  0.00    -0.018 A 
ATOM     50  C   UNL     1       9.835   7.108  25.174  0.00  0.00    +0.008 A 
ATOM     51  C   UNL     1       8.671   7.063  25.903  0.00  0.00    +0.001 A 
ATOM     52  C   UNL     1       8.022   5.844  26.040  0.00  0.00    +0.001 A 
ATOM     53  C   UNL     1      11.489   6.117  23.767  0.00  0.00    +0.008 A 
ATOM     54  C   UNL     1      12.070   5.040  23.120  0.00  0.00    +0.001 A 
ATOM     55  C   UNL     1       8.583   4.655  25.500  0.00  0.00    +0.009 A 
ATOM     56  C   UNL     1      11.597   3.739  23.336  0.00  0.00    +0.004 A 
ENDBRANCH  46  47
ENDBRANCH   7  46
TORSDOF 9
ENDMDL
MODEL 6
REMARK VINA RESULT:      -5.3      3.464      8.350
REMARK  Name = 
REMARK  9 active torsions:
REMARK  status: ('A' for Active; 'I' for Inactive)
REMARK    1  A    between atoms: C_2  and  C_4
REMARK    2  A    between atoms: C_4  and  C_5
REMARK    3  A    between atoms: C_20  and  C_42
REMARK    4  A    between atoms: C_25  and  C_31
REMARK    5  A    between atoms: C_31  and  C_32
REMARK    6  A    between atoms: C_45  and  C_48
REMARK    7  A    between atoms: C_48  and  P_49
REMARK    8  A    between atoms: P_49  and  O_50
REMARK    9  A    between atoms: P_49  and  O_51
REMARK                            x       y       z     vdW  Elec       q    Type
REMARK                         _______ _______ _______ _____ _____    ______ ____
ROOT
ATOM      1  C   UNL     1       7.361  -2.978  22.877  0.00  0.00    +0.168 C 
ATOM      2  C   UNL     1       8.630  -1.989  22.486  0.00  0.00    +0.234 C 
ATOM      3  O   UNL     1       9.710  -2.533  22.226  0.00  0.00    -0.274 OA
ATOM      4  N   UNL     1       8.536  -0.545  22.600  0.00  0.00    -0.313 N 
ATOM      5  H   UNL     1       7.631  -0.135  22.772  0.00  0.00    +0.149 HD
ATOM      6  C   UNL     1       9.757   0.300  22.985  0.00  0.00    +0.108 C 
ATOM      7  C   UNL     1       9.907   1.947  23.331  0.00  0.00    +0.014 C 
ATOM      8  C   UNL     1       9.468   2.862  22.151  0.00  0.00    +0.032 C 
ATOM      9  C   UNL     1       7.993   2.938  22.200  0.00  0.00    -0.030 C 
ATOM     10  C   UNL     1       7.020   3.538  21.512  0.00  0.00    -0.023 C 
ATOM     11  C   UNL     1       5.558   3.350  21.943  0.00  0.00    +0.050 C 
ATOM     12  C   UNL     1       5.226   1.867  22.341  0.00  0.00    +0.108 C 
ATOM     13  C   UNL     1       5.722   1.391  23.724  0.00  0.00    +0.215 C 
ATOM     14  O   UNL     1       6.238   2.096  24.577  0.00  0.00    -0.276 OA
ATOM     15  N   UNL     1       5.582   0.060  23.963  0.00  0.00    -0.301 N 
ATOM     16  H   UNL     1       4.710  -0.331  23.608  0.00  0.00    +0.150 HD
ATOM     17  C   UNL     1       6.139  -0.639  25.187  0.00  0.00    +0.111 C 
ATOM     18  C   UNL     1       7.666  -0.467  25.388  0.00  0.00    +0.035 C 
ATOM     19  C   UNL     1       8.245  -1.079  26.659  0.00  0.00    +0.003 C 
ATOM     20  C   UNL     1       7.544  -0.515  27.864  0.00  0.00    +0.000 C 
ATOM     21  C   UNL     1       6.036  -0.734  27.760  0.00  0.00    +0.003 C 
ATOM     22  C   UNL     1       5.415  -0.203  26.463  0.00  0.00    +0.035 C 
ATOM     23  C   UNL     1       5.990  -2.114  24.743  0.00  0.00    +0.237 C 
ATOM     24  O   UNL     1       5.961  -3.079  25.496  0.00  0.00    -0.273 OA
ATOM     25  N   UNL     1       6.226  -2.217  23.368  0.00  0.00    -0.302 N 
ATOM     26  H   UNL     1       6.078  -1.369  22.844  0.00  0.00    +0.150 HD
ENDROOT
BRANCH  11  27
ATOM     27  C   UNL     1       5.034   4.393  22.938  0.00  0.00    -0.040 A 
ATOM     28  C   UNL     1       3.723   4.344  23.429  0.00  0.00    +0.004 A 
ATOM     29  C   UNL     1       3.332   5.174  24.490  0.00  0.00    +0.004 A 
ATOM     30  C   UNL     1       4.234   6.088  25.053  0.00  0.00    -0.036 A 
ATOM     31  C   UNL     1       5.474   6.260  24.468  0.00  0.00    +0.004 A 
ATOM     32  C   UNL     1       5.879   5.380  23.481  0.00  0.00    +0.004 A 
BRANCH  30  33
ATOM     33  C   UNL     1       3.969   6.783  26.355  0.00  0.00    +0.162 C 
BRANCH  33  34
ATOM     34  P   UNL     1       2.938   5.994  27.573  0.00  0.00    +0.332 P 
ATOM     35  O   UNL     1       1.476   5.987  27.281  0.00  0.00    -0.258 OA
BRANCH  34  36
ATOM     36  O   UNL     1       3.339   6.746  28.934  0.00  0.00    -0.324 OA
ATOM     37  H   UNL     1       3.361   7.720  28.901  0.00  0.00    +0.220 HD
ENDBRANCH  34  36
BRANCH  34  38
ATOM     38  O   UNL     1       3.612   4.551  27.751  0.00  0.00    -0.324 OA
ATOM     39  H   UNL     1       3.629   4.043  26.917  0.00  0.00    +0.220 HD
ENDBRANCH  34  38
ENDBRANCH  33  34
ENDBRANCH  30  33
ENDBRANCH  11  27
BRANCH   1  40
ATOM     40  C   UNL     1       6.771  -3.969  21.860  0.00  0.00    +0.127 C 
BRANCH  40  44
ATOM     41  N   UNL     1       5.975  -6.283  22.184  0.00  0.00    -0.329 N 
ATOM     42  H   UNL     1       6.709  -6.660  21.576  0.00  0.00    +0.145 HD
ATOM     43  H   UNL     1       5.193  -6.900  22.390  0.00  0.00    +0.145 HD
ATOM     44  C   UNL     1       5.693  -4.956  22.213  0.00  0.00    +0.213 C 
ATOM     45  O   UNL     1       4.578  -4.593  22.588  0.00  0.00    -0.276 OA
ENDBRANCH  40  44
ENDBRANCH   1  40
BRANCH   7  46
ATOM     46  C   UNL     1       9.510   2.676  24.771  0.00  0.00    +0.041 C 
BRANCH  46  47
ATOM     47  C   UNL     1       9.236   4.224  24.847  0.00  0.00    -0.039 A 
ATOM     48  C   UNL     1       8.444   4.915  25.888  0.00  0.00    -0.015 A 
ATOM     49  C   UNL     1       8.544   6.340  25.994  0.00  0.00    -0.018 A 
ATOM     50  C   UNL     1       7.900   7.094  27.006  0.00  0.00    +0.008 A 
ATOM     51  C   UNL     1       7.056   6.492  27.909  0.00  0.00    +0.001 A 
ATOM     52  C   UNL     1       6.845   5.123  27.807  0.00  0.00    +0.001 A 
ATOM     53  C   UNL     1       9.290   7.067  25.066  0.00  0.00    +0.008 A 
ATOM     54  C   UNL     1       9.939   6.425  24.027  0.00  0.00    +0.001 A 
ATOM     55  C   UNL     1       7.538   4.350  26.838  0.00  0.00    +0.009 A 
ATOM     56  C   UNL     1       9.934   5.027  23.939  0.00  0.00    +0.004 A 
ENDBRANCH  46  47
ENDBRANCH   7  46
TORSDOF 9
ENDMDL
MODEL 7
REMARK VINA RESULT:      -5.2      1.641      1.996
REMARK  Name = 
REMARK  9 active torsions:
REMARK  status: ('A' for Active; 'I' for Inactive)
REMARK    1  A    between atoms: C_2  and  C_4
REMARK    2  A    between atoms: C_4  and  C_5
REMARK    3  A    between atoms: C_20  and  C_42
REMARK    4  A    between atoms: C_25  and  C_31
REMARK    5  A    between atoms: C_31  and  C_32
REMARK    6  A    between atoms: C_45  and  C_48
REMARK    7  A    between atoms: C_48  and  P_49
REMARK    8  A    between atoms: P_49  and  O_50
REMARK    9  A    between atoms: P_49  and  O_51
REMARK                            x       y       z     vdW  Elec       q    Type
REMARK                         _______ _______ _______ _____ _____    ______ ____
ROOT
ATOM      1  C   UNL     1       7.669   5.893  24.920  0.00  0.00    +0.168 C 
ATOM      2  C   UNL     1       8.630   4.583  24.599  0.00  0.00    +0.234 C 
ATOM      3  O   UNL     1       9.618   4.771  23.880  0.00  0.00    -0.274 OA
ATOM      4  N   UNL     1       8.250   3.241  25.001  0.00  0.00    -0.313 N 
ATOM      5  H   UNL     1       7.463   3.130  25.621  0.00  0.00    +0.149 HD
ATOM      6  C   UNL     1       8.630   2.022  24.150  0.00  0.00    +0.108 C 
ATOM      7  C   UNL     1       8.206   0.392  24.287  0.00  0.00    +0.014 C 
ATOM      8  C   UNL     1       8.640  -0.240  25.642  0.00  0.00    +0.032 C 
ATOM      9  C   UNL     1       7.623   0.157  26.639  0.00  0.00    -0.030 C 
ATOM     10  C   UNL     1       7.394  -0.045  27.937  0.00  0.00    -0.023 C 
ATOM     11  C   UNL     1       6.146   0.568  28.592  0.00  0.00    +0.050 C 
ATOM     12  C   UNL     1       5.877   2.043  28.127  0.00  0.00    +0.108 C 
ATOM     13  C   UNL     1       5.260   2.227  26.722  0.00  0.00    +0.215 C 
ATOM     14  O   UNL     1       4.856   1.331  26.000  0.00  0.00    -0.276 OA
ATOM     15  N   UNL     1       5.209   3.511  26.276  0.00  0.00    -0.301 N 
ATOM     16  H   UNL     1       4.961   4.186  26.999  0.00  0.00    +0.150 HD
ATOM     17  C   UNL     1       4.786   3.897  24.873  0.00  0.00    +0.111 C 
ATOM     18  C   UNL     1       5.612   3.231  23.745  0.00  0.00    +0.035 C 
ATOM     19  C   UNL     1       5.155   3.525  22.320  0.00  0.00    +0.003 C 
ATOM     20  C   UNL     1       3.715   3.124  22.151  0.00  0.00    +0.000 C 
ATOM     21  C   UNL     1       2.838   3.822  23.188  0.00  0.00    +0.003 C 
ATOM     22  C   UNL     1       3.300   3.620  24.636  0.00  0.00    +0.035 C 
ATOM     23  C   UNL     1       5.255   5.372  24.850  0.00  0.00    +0.237 C 
ATOM     24  O   UNL     1       4.838   6.234  24.088  0.00  0.00    -0.273 OA
ATOM     25  N   UNL     1       6.440   5.499  25.584  0.00  0.00    -0.302 N 
ATOM     26  H   UNL     1       6.591   4.787  26.280  0.00  0.00    +0.150 HD
ENDROOT
BRANCH  11  27
ATOM     27  C   UNL     1       4.900  -0.326  28.581  0.00  0.00    -0.040 A 
ATOM     28  C   UNL     1       4.864  -1.524  27.858  0.00  0.00    +0.004 A 
ATOM     29  C   UNL     1       3.801  -2.425  28.029  0.00  0.00    +0.004 A 
ATOM     30  C   UNL     1       2.744  -2.125  28.900  0.00  0.00    -0.036 A 
ATOM     31  C   UNL     1       2.689  -0.877  29.489  0.00  0.00    +0.004 A 
ATOM     32  C   UNL     1       3.779  -0.034  29.382  0.00  0.00    +0.004 A 
BRANCH  30  33
ATOM     33  C   UNL     1       1.746  -3.155  29.338  0.00  0.00    +0.162 C 
BRANCH  33  34
ATOM     34  P   UNL     1       2.057  -4.874  29.000  0.00  0.00    +0.332 P 
ATOM     35  O   UNL     1       1.918  -5.292  27.576  0.00  0.00    -0.258 OA
BRANCH  34  36
ATOM     36  O   UNL     1       1.069  -5.632  30.014  0.00  0.00    -0.324 OA
ATOM     37  H   UNL     1       1.470  -5.974  30.834  0.00  0.00    +0.220 HD
ENDBRANCH  34  36
BRANCH  34  38
ATOM     38  O   UNL     1       3.499  -5.126  29.653  0.00  0.00    -0.324 OA
ATOM     39  H   UNL     1       3.700  -6.077  29.756  0.00  0.00    +0.220 HD
ENDBRANCH  34  38
ENDBRANCH  33  34
ENDBRANCH  30  33
ENDBRANCH  11  27
BRANCH   1  40
ATOM     40  C   UNL     1       8.192   7.096  25.722  0.00  0.00    +0.127 C 
BRANCH  40  44
ATOM     41  N   UNL     1       9.601   7.087  27.750  0.00  0.00    -0.329 N 
ATOM     42  H   UNL     1      10.405   6.715  27.235  0.00  0.00    +0.145 HD
ATOM     43  H   UNL     1       9.642   7.027  28.765  0.00  0.00    +0.145 HD
ATOM     44  C   UNL     1       8.352   7.074  27.217  0.00  0.00    +0.213 C 
ATOM     45  O   UNL     1       7.382   7.108  27.974  0.00  0.00    -0.276 OA
ENDBRANCH  40  44
ENDBRANCH   1  40
BRANCH   7  46
ATOM     46  C   UNL     1       6.767  -0.280  23.799  0.00  0.00    +0.041 C 
BRANCH  46  47
ATOM     47  C   UNL     1       6.665  -1.812  23.452  0.00  0.00    -0.039 A 
ATOM     48  C   UNL     1       6.751  -2.929  24.419  0.00  0.00    -0.015 A 
ATOM     49  C   UNL     1       6.334  -4.233  24.000  0.00  0.00    -0.018 A 
ATOM     50  C   UNL     1       6.291  -5.354  24.866  0.00  0.00    +0.008 A 
ATOM     51  C   UNL     1       6.740  -5.265  26.162  0.00  0.00    +0.001 A 
ATOM     52  C   UNL     1       7.241  -4.049  26.607  0.00  0.00    +0.001 A 
ATOM     53  C   UNL     1       5.956  -4.463  22.677  0.00  0.00    +0.008 A 
ATOM     54  C   UNL     1       5.985  -3.438  21.748  0.00  0.00    +0.001 A 
ATOM     55  C   UNL     1       7.225  -2.904  25.766  0.00  0.00    +0.009 A 
ATOM     56  C   UNL     1       6.305  -2.131  22.138  0.00  0.00    +0.004 A 
ENDBRANCH  46  47
ENDBRANCH   7  46
TORSDOF 9
ENDMDL
MODEL 8
REMARK VINA RESULT:      -4.9      3.230      6.518
REMARK  Name = 
REMARK  9 active torsions:
REMARK  status: ('A' for Active; 'I' for Inactive)
REMARK    1  A    between atoms: C_2  and  C_4
REMARK    2  A    between atoms: C_4  and  C_5
REMARK    3  A    between atoms: C_20  and  C_42
REMARK    4  A    between atoms: C_25  and  C_31
REMARK    5  A    between atoms: C_31  and  C_32
REMARK    6  A    between atoms: C_45  and  C_48
REMARK    7  A    between atoms: C_48  and  P_49
REMARK    8  A    between atoms: P_49  and  O_50
REMARK    9  A    between atoms: P_49  and  O_51
REMARK                            x       y       z     vdW  Elec       q    Type
REMARK                         _______ _______ _______ _____ _____    ______ ____
ROOT
ATOM      1  C   UNL     1       7.071   6.112  27.766  0.00  0.00    +0.168 C 
ATOM      2  C   UNL     1       5.864   6.094  26.634  0.00  0.00    +0.234 C 
ATOM      3  O   UNL     1       5.145   7.098  26.559  0.00  0.00    -0.274 OA
ATOM      4  N   UNL     1       5.548   4.899  25.873  0.00  0.00    -0.313 N 
ATOM      5  H   UNL     1       6.179   4.115  25.927  0.00  0.00    +0.149 HD
ATOM      6  C   UNL     1       4.109   4.593  25.439  0.00  0.00    +0.108 C 
ATOM      7  C   UNL     1       3.436   3.235  24.692  0.00  0.00    +0.014 C 
ATOM      8  C   UNL     1       4.070   2.924  23.305  0.00  0.00    +0.032 C 
ATOM      9  C   UNL     1       5.337   2.209  23.570  0.00  0.00    -0.030 C 
ATOM     10  C   UNL     1       6.324   1.669  22.854  0.00  0.00    -0.023 C 
ATOM     11  C   UNL     1       7.491   0.974  23.573  0.00  0.00    +0.050 C 
ATOM     12  C   UNL     1       7.988   1.768  24.834  0.00  0.00    +0.108 C 
ATOM     13  C   UNL     1       7.115   1.671  26.104  0.00  0.00    +0.215 C 
ATOM     14  O   UNL     1       6.147   0.942  26.249  0.00  0.00    -0.276 OA
ATOM     15  N   UNL     1       7.469   2.509  27.115  0.00  0.00    -0.301 N 
ATOM     16  H   UNL     1       8.477   2.604  27.235  0.00  0.00    +0.150 HD
ATOM     17  C   UNL     1       6.660   2.685  28.384  0.00  0.00    +0.111 C 
ATOM     18  C   UNL     1       5.188   3.112  28.155  0.00  0.00    +0.035 C 
ATOM     19  C   UNL     1       4.319   3.209  29.405  0.00  0.00    +0.003 C 
ATOM     20  C   UNL     1       4.321   1.894  30.134  0.00  0.00    +0.000 C 
ATOM     21  C   UNL     1       5.749   1.464  30.463  0.00  0.00    +0.003 C 
ATOM     22  C   UNL     1       6.685   1.423  29.249  0.00  0.00    +0.035 C 
ATOM     23  C   UNL     1       7.329   3.960  28.953  0.00  0.00    +0.237 C 
ATOM     24  O   UNL     1       7.290   4.316  30.123  0.00  0.00    -0.273 OA
ATOM     25  N   UNL     1       7.693   4.807  27.900  0.00  0.00    -0.302 N 
ATOM     26  H   UNL     1       7.825   4.353  27.011  0.00  0.00    +0.150 HD
ENDROOT
BRANCH  11  27
ATOM     27  C   UNL     1       7.303  -0.528  23.817  0.00  0.00    -0.040 A 
ATOM     28  C   UNL     1       6.047  -1.072  24.112  0.00  0.00    +0.004 A 
ATOM     29  C   UNL     1       5.860  -2.462  24.122  0.00  0.00    +0.004 A 
ATOM     30  C   UNL     1       6.933  -3.329  23.872  0.00  0.00    -0.036 A 
ATOM     31  C   UNL     1       8.206  -2.808  23.745  0.00  0.00    +0.004 A 
ATOM     32  C   UNL     1       8.365  -1.438  23.651  0.00  0.00    +0.004 A 
BRANCH  30  33
ATOM     33  C   UNL     1       6.739  -4.788  23.587  0.00  0.00    +0.162 C 
BRANCH  33  34
ATOM     34  P   UNL     1       5.612  -5.286  22.302  0.00  0.00    +0.332 P 
ATOM     35  O   UNL     1       4.163  -5.179  22.631  0.00  0.00    -0.258 OA
BRANCH  34  36
ATOM     36  O   UNL     1       6.103  -6.772  21.939  0.00  0.00    -0.324 OA
ATOM     37  H   UNL     1       6.075  -7.425  22.662  0.00  0.00    +0.220 HD
ENDBRANCH  34  36
BRANCH  34  38
ATOM     38  O   UNL     1       6.096  -4.433  21.034  0.00  0.00    -0.324 OA
ATOM     39  H   UNL     1       5.476  -4.501  20.281  0.00  0.00    +0.220 HD
ENDBRANCH  34  38
ENDBRANCH  33  34
ENDBRANCH  30  33
ENDBRANCH  11  27
BRANCH   1  40
ATOM     40  C   UNL     1       8.240   7.108  27.679  0.00  0.00    +0.127 C 
BRANCH  40  44
ATOM     41  N   UNL     1      10.688   7.108  27.361  0.00  0.00    -0.329 N 
ATOM     42  H   UNL     1      10.822   7.798  28.105  0.00  0.00    +0.145 HD
ATOM     43  H   UNL     1      11.470   6.963  26.726  0.00  0.00    +0.145 HD
ATOM     44  C   UNL     1       9.460   6.863  26.836  0.00  0.00    +0.213 C 
ATOM     45  O   UNL     1       9.382   6.388  25.703  0.00  0.00    -0.276 OA
ENDBRANCH  40  44
ENDBRANCH   1  40
BRANCH   7  46
ATOM     46  C   UNL     1       3.035   1.811  25.448  0.00  0.00    +0.041 C 
BRANCH  46  47
ATOM     47  C   UNL     1       2.022   1.791  26.653  0.00  0.00    -0.039 A 
ATOM     48  C   UNL     1       1.943   0.752  27.704  0.00  0.00    -0.015 A 
ATOM     49  C   UNL     1       1.189   1.031  28.889  0.00  0.00    -0.018 A 
ATOM     50  C   UNL     1       1.118   0.146  29.995  0.00  0.00    +0.008 A 
ATOM     51  C   UNL     1       1.713  -1.092  29.950  0.00  0.00    +0.001 A 
ATOM     52  C   UNL     1       2.387  -1.461  28.794  0.00  0.00    +0.001 A 
ATOM     53  C   UNL     1       0.458   2.213  29.000  0.00  0.00    +0.008 A 
ATOM     54  C   UNL     1       0.445   3.133  27.966  0.00  0.00    +0.001 A 
ATOM     55  C   UNL     1       2.520  -0.554  27.708  0.00  0.00    +0.009 A 
ATOM     56  C   UNL     1       1.237   2.936  26.827  0.00  0.00    +0.004 A 
ENDBRANCH  46  47
ENDBRANCH   7  46
TORSDOF 9
ENDMDL
MODEL 9
REMARK VINA RESULT:      -4.8      3.227      5.056
REMARK  Name = 
REMARK  9 active torsions:
REMARK  status: ('A' for Active; 'I' for Inactive)
REMARK    1  A    between atoms: C_2  and  C_4
REMARK    2  A    between atoms: C_4  and  C_5
REMARK    3  A    between atoms: C_20  and  C_42
REMARK    4  A    between atoms: C_25  and  C_31
REMARK    5  A    between atoms: C_31  and  C_32
REMARK    6  A    between atoms: C_45  and  C_48
REMARK    7  A    between atoms: C_48  and  P_49
REMARK    8  A    between atoms: P_49  and  O_50
REMARK    9  A    between atoms: P_49  and  O_51
REMARK                            x       y       z     vdW  Elec       q    Type
REMARK                         _______ _______ _______ _____ _____    ______ ____
ROOT
ATOM      1  C   UNL     1       3.836   6.188  27.103  0.00  0.00    +0.168 C 
ATOM      2  C   UNL     1       5.312   5.712  26.526  0.00  0.00    +0.234 C 
ATOM      3  O   UNL     1       6.054   6.593  26.076  0.00  0.00    -0.274 OA
ATOM      4  N   UNL     1       5.666   4.309  26.397  0.00  0.00    -0.313 N 
ATOM      5  H   UNL     1       5.058   3.622  26.813  0.00  0.00    +0.149 HD
ATOM      6  C   UNL     1       6.580   3.825  25.264  0.00  0.00    +0.108 C 
ATOM      7  C   UNL     1       7.030   2.267  24.788  0.00  0.00    +0.014 C 
ATOM      8  C   UNL     1       7.761   1.473  25.910  0.00  0.00    +0.032 C 
ATOM      9  C   UNL     1       6.711   0.945  26.807  0.00  0.00    -0.030 C 
ATOM     10  C   UNL     1       6.651   0.201  27.912  0.00  0.00    -0.023 C 
ATOM     11  C   UNL     1       5.285  -0.140  28.525  0.00  0.00    +0.050 C 
ATOM     12  C   UNL     1       4.300   1.084  28.535  0.00  0.00    +0.108 C 
ATOM     13  C   UNL     1       3.634   1.451  27.190  0.00  0.00    +0.215 C 
ATOM     14  O   UNL     1       3.711   0.805  26.158  0.00  0.00    -0.276 OA
ATOM     15  N   UNL     1       2.935   2.618  27.190  0.00  0.00    -0.301 N 
ATOM     16  H   UNL     1       2.404   2.777  28.045  0.00  0.00    +0.150 HD
ATOM     17  C   UNL     1       2.335   3.238  25.944  0.00  0.00    +0.111 C 
ATOM     18  C   UNL     1       3.351   3.508  24.806  0.00  0.00    +0.035 C 
ATOM     19  C   UNL     1       2.767   4.046  23.504  0.00  0.00    +0.003 C 
ATOM     20  C   UNL     1       1.716   3.103  22.985  0.00  0.00    +0.000 C 
ATOM     21  C   UNL     1       0.638   2.867  24.040  0.00  0.00    +0.003 C 
ATOM     22  C   UNL     1       1.181   2.397  25.395  0.00  0.00    +0.035 C 
ATOM     23  C   UNL     1       2.003   4.651  26.483  0.00  0.00    +0.237 C 
ATOM     24  O   UNL     1       1.189   5.421  25.991  0.00  0.00    -0.273 OA
ATOM     25  N   UNL     1       2.987   5.047  27.396  0.00  0.00    -0.302 N 
ATOM     26  H   UNL     1       3.494   4.295  27.833  0.00  0.00    +0.150 HD
ENDROOT
BRANCH  11  27
ATOM     27  C   UNL     1       4.652  -1.443  28.022  0.00  0.00    -0.040 A 
ATOM     28  C   UNL     1       5.266  -2.222  27.033  0.00  0.00    +0.004 A 
ATOM     29  C   UNL     1       4.783  -3.507  26.741  0.00  0.00    +0.004 A 
ATOM     30  C   UNL     1       3.661  -4.017  27.408  0.00  0.00    -0.036 A 
ATOM     31  C   UNL     1       2.952  -3.195  28.263  0.00  0.00    +0.004 A 
ATOM     32  C   UNL     1       3.483  -1.966  28.608  0.00  0.00    +0.004 A 
BRANCH  30  33
ATOM     33  C   UNL     1       3.280  -5.466  27.350  0.00  0.00    +0.162 C 
BRANCH  33  34
ATOM     34  P   UNL     1       3.716  -6.428  25.917  0.00  0.00    +0.332 P 
ATOM     35  O   UNL     1       3.428  -5.797  24.598  0.00  0.00    -0.258 OA
BRANCH  34  36
ATOM     36  O   UNL     1       2.957  -7.821  26.166  0.00  0.00    -0.324 OA
ATOM     37  H   UNL     1       3.434  -8.485  26.697  0.00  0.00    +0.220 HD
ENDBRANCH  34  36
BRANCH  34  38
ATOM     38  O   UNL     1       5.252  -6.807  26.178  0.00  0.00    -0.324 OA
ATOM     39  H   UNL     1       5.488  -6.770  27.125  0.00  0.00    +0.220 HD
ENDBRANCH  34  38
ENDBRANCH  33  34
ENDBRANCH  30  33
ENDBRANCH  11  27
BRANCH   1  40
ATOM     40  C   UNL     1       3.710   7.108  28.329  0.00  0.00    +0.127 C 
BRANCH  40  44
ATOM     41  N   UNL     1       4.923   7.039  30.478  0.00  0.00    -0.329 N 
ATOM     42  H   UNL     1       5.799   7.333  30.036  0.00  0.00    +0.145 HD
ATOM     43  H   UNL     1       4.995   6.635  31.410  0.00  0.00    +0.145 HD
ATOM     44  C   UNL     1       3.866   6.614  29.740  0.00  0.00    +0.213 C 
ATOM     45  O   UNL     1       3.028   5.882  30.268  0.00  0.00    -0.276 OA
ENDBRANCH  40  44
ENDBRANCH   1  40
BRANCH   7  46
ATOM     46  C   UNL     1       6.106   1.223  23.884  0.00  0.00    +0.041 C 
BRANCH  46  47
ATOM     47  C   UNL     1       6.649  -0.199  23.481  0.00  0.00    -0.039 A 
ATOM     48  C   UNL     1       8.029  -0.510  23.048  0.00  0.00    -0.015 A 
ATOM     49  C   UNL     1       8.447  -1.880  23.017  0.00  0.00    -0.018 A 
ATOM     50  C   UNL     1       9.768  -2.286  22.704  0.00  0.00    +0.008 A 
ATOM     51  C   UNL     1      10.717  -1.370  22.319  0.00  0.00    +0.001 A 
ATOM     52  C   UNL     1      10.355  -0.032  22.243  0.00  0.00    +0.001 A 
ATOM     53  C   UNL     1       7.537  -2.902  23.287  0.00  0.00    +0.008 A 
ATOM     54  C   UNL     1       6.217  -2.610  23.583  0.00  0.00    +0.001 A 
ATOM     55  C   UNL     1       9.052   0.391  22.621  0.00  0.00    +0.009 A 
ATOM     56  C   UNL     1       5.791  -1.280  23.706  0.00  0.00    +0.004 A 
ENDBRANCH  46  47
ENDBRANCH   7  46
TORSDOF 9
ENDMDL
