MODEL 1
REMARK VINA RESULT:      -8.8      0.000      0.000
REMARK  Name = 
REMARK  5 active torsions:
REMARK  status: ('A' for Active; 'I' for Inactive)
REMARK    1  A    between atoms: C_2  and  C_4
REMARK    2  A    between atoms: C_6  and  C_7
REMARK    3  A    between atoms: C_7  and  N_8
REMARK    4  A    between atoms: N_11  and  S_15
REMARK    5  A    between atoms: S_15  and  C_18
REMARK                            x       y       z     vdW  Elec       q    Type
REMARK                         _______ _______ _______ _____ _____    ______ ____
ROOT
ATOM      1  N   UNL     1       9.646   0.190  23.480  0.00  0.00    -0.295 N 
ATOM      2  C   UNL     1       8.755  -0.732  22.929  0.00  0.00    +0.232 C 
ATOM      3  O   UNL     1       8.745  -1.062  21.749  0.00  0.00    -0.274 OA
ATOM      4  C   UNL     1       7.650  -1.105  23.900  0.00  0.00    +0.205 C 
ATOM      5  N   UNL     1       8.151  -1.546  25.223  0.00  0.00    -0.166 NA
ATOM      6  C   UNL     1       9.067  -0.521  25.813  0.00  0.00    +0.129 C 
ATOM      7  C   UNL     1      10.162  -0.063  24.827  0.00  0.00    +0.125 C 
ENDROOT
BRANCH   5   8
ATOM      8  S   UNL     1       8.683  -3.162  25.213  0.00  0.00    +0.068 S 
ATOM      9  O   UNL     1       9.053  -3.512  26.567  0.00  0.00    -0.152 OA
ATOM     10  O   UNL     1       9.589  -3.361  24.108  0.00  0.00    -0.152 OA
BRANCH   8  11
ATOM     11  C   UNL     1       7.276  -4.186  24.852  0.00  0.00    +0.144 A 
ATOM     12  S   UNL     1       6.788  -5.263  26.077  0.00  0.00    -0.068 S 
ATOM     13  C   UNL     1       5.459  -5.842  25.148  0.00  0.00    +0.023 A 
ATOM     14  C   UNL     1       4.513  -6.813  25.536  0.00  0.00    +0.035 A 
ATOM     15  C   UNL     1       3.505  -7.154  24.634  0.00  0.00    +0.042 A 
ATOM     16  C   UNL     1       3.423  -6.552  23.388  0.00  0.00    +0.020 A 
ATOM     17  C   UNL     1       4.363  -5.592  23.014  0.00  0.00    +0.010 A 
ATOM     18 CL   UNL     1       2.341  -8.341  25.082  0.00  0.00    -0.084 Cl
ATOM     19  C   UNL     1       5.403  -5.221  23.899  0.00  0.00    -0.009 A 
ATOM     20  C   UNL     1       6.465  -4.272  23.744  0.00  0.00    +0.045 A 
ENDBRANCH   8  11
ENDBRANCH   5   8
BRANCH   1  21
ATOM     21  C   UNL     1      10.249   1.202  22.625  0.00  0.00    +0.143 C 
BRANCH  21  26
ATOM     22  C   UNL     1      11.373   4.719  23.637  0.00  0.00    +0.065 A 
ATOM     23  C   UNL     1      10.143   5.331  23.896  0.00  0.00    +0.016 A 
ATOM     24  C   UNL     1       8.965   4.606  23.729  0.00  0.00    +0.001 A 
ATOM     25  C   UNL     1       9.021   3.269  23.324  0.00  0.00    +0.005 A 
ATOM     26  C   UNL     1      10.254   2.634  23.086  0.00  0.00    -0.029 A 
ATOM     27  C   UNL     1      11.424   3.376  23.243  0.00  0.00    +0.021 A 
BRANCH  22  31
ATOM     28  N   UNL     1      12.681   6.618  24.512  0.00  0.00    -0.247 N 
ATOM     29  H   UNL     1      11.972   6.698  25.238  0.00  0.00    +0.288 HD
ATOM     30  H   UNL     1      13.588   6.924  24.837  0.00  0.00    +0.288 HD
ATOM     31  C   UNL     1      12.646   5.474  23.766  0.00  0.00    +0.308 C 
ATOM     32  N   UNL     1      13.709   5.046  23.170  0.00  0.00    -0.099 NA
ATOM     33  H   UNL     1      14.466   5.714  23.321  0.00  0.00    +0.363 HD
ENDBRANCH  22  31
ENDBRANCH  21  26
ENDBRANCH   1  21
TORSDOF 5
ENDMDL
MODEL 2
REMARK VINA RESULT:      -8.4      1.644      2.335
REMARK  Name = 
REMARK  5 active torsions:
REMARK  status: ('A' for Active; 'I' for Inactive)
REMARK    1  A    between atoms: C_2  and  C_4
REMARK    2  A    between atoms: C_6  and  C_7
REMARK    3  A    between atoms: C_7  and  N_8
REMARK    4  A    between atoms: N_11  and  S_15
REMARK    5  A    between atoms: S_15  and  C_18
REMARK                            x       y       z     vdW  Elec       q    Type
REMARK                         _______ _______ _______ _____ _____    ______ ____
ROOT
ATOM      1  N   UNL     1       8.767   1.803  24.060  0.00  0.00    -0.295 N 
ATOM      2  C   UNL     1       7.758   0.841  24.122  0.00  0.00    +0.232 C 
ATOM      3  O   UNL     1       6.650   0.968  23.614  0.00  0.00    -0.274 OA
ATOM      4  C   UNL     1       8.100  -0.281  25.085  0.00  0.00    +0.205 C 
ATOM      5  N   UNL     1       9.427  -0.890  24.834  0.00  0.00    -0.166 NA
ATOM      6  C   UNL     1      10.497   0.154  24.818  0.00  0.00    +0.129 C 
ATOM      7  C   UNL     1      10.150   1.348  23.903  0.00  0.00    +0.125 C 
ENDROOT
BRANCH   5   8
ATOM      8  S   UNL     1       9.399  -2.007  23.550  0.00  0.00    +0.068 S 
ATOM      9  O   UNL     1      10.517  -2.909  23.727  0.00  0.00    -0.152 OA
ATOM     10  O   UNL     1       9.187  -1.302  22.309  0.00  0.00    -0.152 OA
BRANCH   8  11
ATOM     11  C   UNL     1       7.960  -3.028  23.758  0.00  0.00    +0.144 A 
ATOM     12  S   UNL     1       6.707  -2.812  22.625  0.00  0.00    -0.068 S 
ATOM     13  C   UNL     1       5.745  -4.050  23.335  0.00  0.00    +0.023 A 
ATOM     14  C   UNL     1       4.476  -4.488  22.904  0.00  0.00    +0.035 A 
ATOM     15  C   UNL     1       3.848  -5.509  23.619  0.00  0.00    +0.042 A 
ATOM     16  C   UNL     1       4.454  -6.088  24.723  0.00  0.00    +0.020 A 
ATOM     17  C   UNL     1       5.709  -5.648  25.142  0.00  0.00    +0.010 A 
ATOM     18 CL   UNL     1       2.296  -6.058  23.116  0.00  0.00    -0.084 Cl
ATOM     19  C   UNL     1       6.377  -4.613  24.445  0.00  0.00    -0.009 A 
ATOM     20  C   UNL     1       7.653  -4.005  24.677  0.00  0.00    +0.045 A 
ENDBRANCH   8  11
ENDBRANCH   5   8
BRANCH   1  21
ATOM     21  C   UNL     1       8.412   3.201  23.869  0.00  0.00    +0.143 C 
BRANCH  21  26
ATOM     22  C   UNL     1      11.622   5.264  23.550  0.00  0.00    +0.065 A 
ATOM     23  C   UNL     1      11.362   6.306  24.446  0.00  0.00    +0.016 A 
ATOM     24  C   UNL     1      10.150   6.338  25.131  0.00  0.00    +0.001 A 
ATOM     25  C   UNL     1       9.212   5.321  24.936  0.00  0.00    +0.005 A 
ATOM     26  C   UNL     1       9.472   4.252  24.059  0.00  0.00    -0.029 A 
ATOM     27  C   UNL     1      10.684   4.241  23.367  0.00  0.00    +0.021 A 
BRANCH  22  31
ATOM     28  N   UNL     1      12.852   5.354  21.414  0.00  0.00    -0.247 N 
ATOM     29  H   UNL     1      12.045   5.847  21.036  0.00  0.00    +0.288 HD
ATOM     30  H   UNL     1      13.711   5.633  20.959  0.00  0.00    +0.288 HD
ATOM     31  C   UNL     1      12.887   5.220  22.773  0.00  0.00    +0.308 C 
ATOM     32  N   UNL     1      14.011   5.053  23.387  0.00  0.00    -0.099 NA
ATOM     33  H   UNL     1      14.761   4.991  22.696  0.00  0.00    +0.363 HD
ENDBRANCH  22  31
ENDBRANCH  21  26
ENDBRANCH   1  21
TORSDOF 5
ENDMDL
MODEL 3
REMARK VINA RESULT:      -8.4      1.652      2.200
REMARK  Name = 
REMARK  5 active torsions:
REMARK  status: ('A' for Active; 'I' for Inactive)
REMARK    1  A    between atoms: C_2  and  C_4
REMARK    2  A    between atoms: C_6  and  C_7
REMARK    3  A    between atoms: C_7  and  N_8
REMARK    4  A    between atoms: N_11  and  S_15
REMARK    5  A    between atoms: S_15  and  C_18
REMARK                            x       y       z     vdW  Elec       q    Type
REMARK                         _______ _______ _______ _____ _____    ______ ____
ROOT
ATOM      1  N   UNL     1       8.923   1.457  23.201  0.00  0.00    -0.295 N 
ATOM      2  C   UNL     1       7.790   0.668  23.398  0.00  0.00    +0.232 C 
ATOM      3  O   UNL     1       6.752   0.777  22.755  0.00  0.00    -0.274 OA
ATOM      4  C   UNL     1       7.898  -0.183  24.650  0.00  0.00    +0.205 C 
ATOM      5  N   UNL     1       9.145  -0.982  24.712  0.00  0.00    -0.166 NA
ATOM      6  C   UNL     1      10.347  -0.108  24.545  0.00  0.00    +0.129 C 
ATOM      7  C   UNL     1      10.238   0.825  23.321  0.00  0.00    +0.125 C 
ENDROOT
BRANCH   5   8
ATOM      8  S   UNL     1       9.062  -2.394  23.766  0.00  0.00    +0.068 S 
ATOM      9  O   UNL     1      10.362  -3.026  23.804  0.00  0.00    -0.152 OA
ATOM     10  O   UNL     1       8.405  -2.094  22.517  0.00  0.00    -0.152 OA
BRANCH   8  11
ATOM     11  C   UNL     1       7.982  -3.534  24.597  0.00  0.00    +0.144 A 
ATOM     12  S   UNL     1       8.173  -3.667  26.284  0.00  0.00    -0.068 S 
ATOM     13  C   UNL     1       6.884  -4.799  26.421  0.00  0.00    +0.023 A 
ATOM     14  C   UNL     1       6.406  -5.401  27.603  0.00  0.00    +0.035 A 
ATOM     15  C   UNL     1       5.347  -6.304  27.507  0.00  0.00    +0.042 A 
ATOM     16  C   UNL     1       4.768  -6.603  26.283  0.00  0.00    +0.020 A 
ATOM     17  C   UNL     1       5.248  -6.003  25.119  0.00  0.00    +0.010 A 
ATOM     18 CL   UNL     1       4.750  -7.056  28.936  0.00  0.00    -0.084 Cl
ATOM     19  C   UNL     1       6.322  -5.084  25.174  0.00  0.00    -0.009 A 
ATOM     20  C   UNL     1       6.974  -4.348  24.133  0.00  0.00    +0.045 A 
ENDBRANCH   8  11
ENDBRANCH   5   8
BRANCH   1  21
ATOM     21  C   UNL     1       8.780   2.783  22.617  0.00  0.00    +0.143 C 
BRANCH  21  26
ATOM     22  C   UNL     1      10.864   5.571  24.209  0.00  0.00    +0.065 A 
ATOM     23  C   UNL     1       9.882   6.275  24.912  0.00  0.00    +0.016 A 
ATOM     24  C   UNL     1       8.556   5.849  24.854  0.00  0.00    +0.001 A 
ATOM     25  C   UNL     1       8.222   4.714  24.111  0.00  0.00    +0.005 A 
ATOM     26  C   UNL     1       9.205   3.981  23.422  0.00  0.00    -0.029 A 
ATOM     27  C   UNL     1      10.526   4.427  23.477  0.00  0.00    +0.021 A 
BRANCH  22  31
ATOM     28  N   UNL     1      13.125   5.616  23.223  0.00  0.00    -0.247 N 
ATOM     29  H   UNL     1      12.684   5.357  22.343  0.00  0.00    +0.288 HD
ATOM     30  H   UNL     1      13.959   6.170  23.078  0.00  0.00    +0.288 HD
ATOM     31  C   UNL     1      12.281   6.021  24.218  0.00  0.00    +0.308 C 
ATOM     32  N   UNL     1      12.704   6.788  25.167  0.00  0.00    -0.099 NA
ATOM     33  H   UNL     1      13.705   6.947  25.043  0.00  0.00    +0.363 HD
ENDBRANCH  22  31
ENDBRANCH  21  26
ENDBRANCH   1  21
TORSDOF 5
ENDMDL
MODEL 4
REMARK VINA RESULT:      -8.3      2.039      2.724
REMARK  Name = 
REMARK  5 active torsions:
REMARK  status: ('A' for Active; 'I' for Inactive)
REMARK    1  A    between atoms: C_2  and  C_4
REMARK    2  A    between atoms: C_6  and  C_7
REMARK    3  A    between atoms: C_7  and  N_8
REMARK    4  A    between atoms: N_11  and  S_15
REMARK    5  A    between atoms: S_15  and  C_18
REMARK                            x       y       z     vdW  Elec       q    Type
REMARK                         _______ _______ _______ _____ _____    ______ ____
ROOT
ATOM      1  N   UNL     1       9.733  -0.846  24.067  0.00  0.00    -0.295 N 
ATOM      2  C   UNL     1       9.742  -1.686  22.953  0.00  0.00    +0.232 C 
ATOM      3  O   UNL     1      10.716  -1.865  22.231  0.00  0.00    -0.274 OA
ATOM      4  C   UNL     1       8.350  -2.175  22.596  0.00  0.00    +0.205 C 
ATOM      5  N   UNL     1       7.628  -2.782  23.739  0.00  0.00    -0.166 NA
ATOM      6  C   UNL     1       7.591  -1.844  24.904  0.00  0.00    +0.129 C 
ATOM      7  C   UNL     1       8.981  -1.269  25.250  0.00  0.00    +0.125 C 
ENDROOT
BRANCH   5   8
ATOM      8  S   UNL     1       8.110  -4.386  24.037  0.00  0.00    +0.068 S 
ATOM      9  O   UNL     1       9.481  -4.356  24.495  0.00  0.00    -0.152 OA
ATOM     10  O   UNL     1       7.701  -5.221  22.933  0.00  0.00    -0.152 OA
BRANCH   8  11
ATOM     11  C   UNL     1       7.181  -4.974  25.433  0.00  0.00    +0.144 A 
ATOM     12  S   UNL     1       5.612  -5.553  25.111  0.00  0.00    -0.068 S 
ATOM     13  C   UNL     1       5.344  -5.974  26.759  0.00  0.00    +0.023 A 
ATOM     14  C   UNL     1       4.185  -6.563  27.304  0.00  0.00    +0.035 A 
ATOM     15  C   UNL     1       4.157  -6.826  28.675  0.00  0.00    +0.042 A 
ATOM     16  C   UNL     1       5.240  -6.524  29.485  0.00  0.00    +0.020 A 
ATOM     17  C   UNL     1       6.382  -5.941  28.936  0.00  0.00    +0.010 A 
ATOM     18 CL   UNL     1       2.751  -7.541  29.366  0.00  0.00    -0.084 Cl
ATOM     19  C   UNL     1       6.448  -5.656  27.551  0.00  0.00    -0.009 A 
ATOM     20  C   UNL     1       7.497  -5.074  26.769  0.00  0.00    +0.045 A 
ENDBRANCH   8  11
ENDBRANCH   5   8
BRANCH   1  21
ATOM     21  C   UNL     1      10.672   0.264  24.134  0.00  0.00    +0.143 C 
BRANCH  21  26
ATOM     22  C   UNL     1      10.428   4.059  23.696  0.00  0.00    +0.065 A 
ATOM     23  C   UNL     1       9.046   4.252  23.784  0.00  0.00    +0.016 A 
ATOM     24  C   UNL     1       8.208   3.155  23.970  0.00  0.00    +0.001 A 
ATOM     25  C   UNL     1       8.755   1.874  24.087  0.00  0.00    +0.005 A 
ATOM     26  C   UNL     1      10.146   1.669  24.029  0.00  0.00    -0.029 A 
ATOM     27  C   UNL     1      10.971   2.775  23.827  0.00  0.00    +0.021 A 
BRANCH  22  31
ATOM     28  N   UNL     1      12.231   5.155  22.418  0.00  0.00    -0.247 N 
ATOM     29  H   UNL     1      11.975   4.545  21.644  0.00  0.00    +0.288 HD
ATOM     30  H   UNL     1      12.603   6.038  22.093  0.00  0.00    +0.288 HD
ATOM     31  C   UNL     1      11.346   5.202  23.458  0.00  0.00    +0.308 C 
ATOM     32  N   UNL     1      11.305   6.231  24.238  0.00  0.00    -0.099 NA
ATOM     33  H   UNL     1      12.038   6.887  23.962  0.00  0.00    +0.363 HD
ENDBRANCH  22  31
ENDBRANCH  21  26
ENDBRANCH   1  21
TORSDOF 5
ENDMDL
MODEL 5
REMARK VINA RESULT:      -8.2      4.190      9.971
REMARK  Name = 
REMARK  5 active torsions:
REMARK  status: ('A' for Active; 'I' for Inactive)
REMARK    1  A    between atoms: C_2  and  C_4
REMARK    2  A    between atoms: C_6  and  C_7
REMARK    3  A    between atoms: C_7  and  N_8
REMARK    4  A    between atoms: N_11  and  S_15
REMARK    5  A    between atoms: S_15  and  C_18
REMARK                            x       y       z     vdW  Elec       q    Type
REMARK                         _______ _______ _______ _____ _____    ______ ____
ROOT
ATOM      1  N   UNL     1       8.242  -3.906  25.763  0.00  0.00    -0.295 N 
ATOM      2  C   UNL     1       8.793  -4.009  24.485  0.00  0.00    +0.232 C 
ATOM      3  O   UNL     1       8.663  -4.984  23.754  0.00  0.00    -0.274 OA
ATOM      4  C   UNL     1       9.767  -2.882  24.192  0.00  0.00    +0.205 C 
ATOM      5  N   UNL     1       9.201  -1.535  24.440  0.00  0.00    -0.166 NA
ATOM      6  C   UNL     1       8.658  -1.434  25.830  0.00  0.00    +0.129 C 
ATOM      7  C   UNL     1       7.720  -2.606  26.189  0.00  0.00    +0.125 C 
ENDROOT
BRANCH   5   8
ATOM      8  S   UNL     1       8.205  -1.002  23.167  0.00  0.00    +0.068 S 
ATOM      9  O   UNL     1       6.836  -1.299  23.525  0.00  0.00    -0.152 OA
ATOM     10  O   UNL     1       8.767  -1.431  21.909  0.00  0.00    -0.152 OA
BRANCH   8  11
ATOM     11  C   UNL     1       8.286   0.773  23.131  0.00  0.00    +0.144 A 
ATOM     12  S   UNL     1       7.028   1.573  22.308  0.00  0.00    -0.068 S 
ATOM     13  C   UNL     1       7.661   3.128  22.690  0.00  0.00    +0.023 A 
ATOM     14  C   UNL     1       7.112   4.376  22.332  0.00  0.00    +0.035 A 
ATOM     15  C   UNL     1       7.780   5.534  22.734  0.00  0.00    +0.042 A 
ATOM     16  C   UNL     1       8.951   5.467  23.473  0.00  0.00    +0.020 A 
ATOM     17  C   UNL     1       9.485   4.227  23.822  0.00  0.00    +0.010 A 
ATOM     18 CL   UNL     1       7.134   7.071  22.305  0.00  0.00    -0.084 Cl
ATOM     19  C   UNL     1       8.840   3.030  23.431  0.00  0.00    -0.009 A 
ATOM     20  C   UNL     1       9.188   1.661  23.671  0.00  0.00    +0.045 A 
ENDBRANCH   8  11
ENDBRANCH   5   8
BRANCH   1  21
ATOM     21  C   UNL     1       7.945  -5.116  26.514  0.00  0.00    +0.143 C 
BRANCH  21  26
ATOM     22  C   UNL     1       4.557  -6.543  25.444  0.00  0.00    +0.065 A 
ATOM     23  C   UNL     1       3.907  -6.648  26.677  0.00  0.00    +0.016 A 
ATOM     24  C   UNL     1       4.573  -6.270  27.841  0.00  0.00    +0.001 A 
ATOM     25  C   UNL     1       5.877  -5.770  27.766  0.00  0.00    +0.005 A 
ATOM     26  C   UNL     1       6.532  -5.633  26.528  0.00  0.00    -0.029 A 
ATOM     27  C   UNL     1       5.858  -6.031  25.373  0.00  0.00    +0.021 A 
BRANCH  22  31
ATOM     28  N   UNL     1       4.127  -6.296  23.028  0.00  0.00    -0.247 N 
ATOM     29  H   UNL     1       5.008  -5.788  22.981  0.00  0.00    +0.288 HD
ATOM     30  H   UNL     1       3.927  -6.782  22.164  0.00  0.00    +0.288 HD
ATOM     31  C   UNL     1       3.891  -6.975  24.188  0.00  0.00    +0.308 C 
ATOM     32  N   UNL     1       3.089  -7.989  24.204  0.00  0.00    -0.099 NA
ATOM     33  H   UNL     1       2.683  -8.105  23.275  0.00  0.00    +0.363 HD
ENDBRANCH  22  31
ENDBRANCH  21  26
ENDBRANCH   1  21
TORSDOF 5
ENDMDL
MODEL 6
REMARK VINA RESULT:      -8.2      4.227     10.053
REMARK  Name = 
REMARK  5 active torsions:
REMARK  status: ('A' for Active; 'I' for Inactive)
REMARK    1  A    between atoms: C_2  and  C_4
REMARK    2  A    between atoms: C_6  and  C_7
REMARK    3  A    between atoms: C_7  and  N_8
REMARK    4  A    between atoms: N_11  and  S_15
REMARK    5  A    between atoms: S_15  and  C_18
REMARK                            x       y       z     vdW  Elec       q    Type
REMARK                         _______ _______ _______ _____ _____    ______ ____
ROOT
ATOM      1  N   UNL     1       7.022  -4.026  23.265  0.00  0.00    -0.295 N 
ATOM      2  C   UNL     1       8.216  -3.863  23.969  0.00  0.00    +0.232 C 
ATOM      3  O   UNL     1       9.043  -4.751  24.140  0.00  0.00    -0.274 OA
ATOM      4  C   UNL     1       8.270  -2.533  24.699  0.00  0.00    +0.205 C 
ATOM      5  N   UNL     1       7.981  -1.370  23.827  0.00  0.00    -0.166 NA
ATOM      6  C   UNL     1       6.675  -1.547  23.119  0.00  0.00    +0.129 C 
ATOM      7  C   UNL     1       6.555  -2.921  22.426  0.00  0.00    +0.125 C 
ENDROOT
BRANCH   5   8
ATOM      8  S   UNL     1       9.325  -0.907  22.892  0.00  0.00    +0.068 S 
ATOM      9  O   UNL     1       8.954  -1.025  21.498  0.00  0.00    -0.152 OA
ATOM     10  O   UNL     1      10.512  -1.541  23.413  0.00  0.00    -0.152 OA
BRANCH   8  11
ATOM     11  C   UNL     1       9.579   0.834  23.144  0.00  0.00    +0.144 A 
ATOM     12  S   UNL     1       8.207   1.746  23.574  0.00  0.00    -0.068 S 
ATOM     13  C   UNL     1       9.117   3.201  23.702  0.00  0.00    +0.023 A 
ATOM     14  C   UNL     1       8.630   4.476  24.059  0.00  0.00    +0.035 A 
ATOM     15  C   UNL     1       9.531   5.541  24.103  0.00  0.00    +0.042 A 
ATOM     16  C   UNL     1      10.873   5.358  23.810  0.00  0.00    +0.020 A 
ATOM     17  C   UNL     1      11.345   4.093  23.459  0.00  0.00    +0.010 A 
ATOM     18 CL   UNL     1       8.960   7.108  24.530  0.00  0.00    -0.084 Cl
ATOM     19  C   UNL     1      10.463   2.988  23.400  0.00  0.00    -0.009 A 
ATOM     20  C   UNL     1      10.709   1.615  23.074  0.00  0.00    +0.045 A 
ENDBRANCH   8  11
ENDBRANCH   5   8
BRANCH   1  21
ATOM     21  C   UNL     1       6.431  -5.351  23.156  0.00  0.00    +0.143 C 
BRANCH  21  26
ATOM     22  C   UNL     1       5.135  -6.361  26.614  0.00  0.00    +0.065 A 
ATOM     23  C   UNL     1       3.826  -6.749  26.309  0.00  0.00    +0.016 A 
ATOM     24  C   UNL     1       3.373  -6.667  24.994  0.00  0.00    +0.001 A 
ATOM     25  C   UNL     1       4.234  -6.219  23.988  0.00  0.00    +0.005 A 
ATOM     26  C   UNL     1       5.561  -5.853  24.277  0.00  0.00    -0.029 A 
ATOM     27  C   UNL     1       5.996  -5.925  25.601  0.00  0.00    +0.021 A 
BRANCH  22  31
ATOM     28  N   UNL     1       5.376  -7.485  28.797  0.00  0.00    -0.247 N 
ATOM     29  H   UNL     1       5.196  -8.357  28.304  0.00  0.00    +0.288 HD
ATOM     30  H   UNL     1       5.976  -7.624  29.599  0.00  0.00    +0.288 HD
ATOM     31  C   UNL     1       5.637  -6.398  28.012  0.00  0.00    +0.308 C 
ATOM     32  N   UNL     1       6.314  -5.400  28.476  0.00  0.00    -0.099 NA
ATOM     33  H   UNL     1       6.526  -5.572  29.460  0.00  0.00    +0.363 HD
ENDBRANCH  22  31
ENDBRANCH  21  26
ENDBRANCH   1  21
TORSDOF 5
ENDMDL
MODEL 7
REMARK VINA RESULT:      -8.1      4.397     10.092
REMARK  Name = 
REMARK  5 active torsions:
REMARK  status: ('A' for Active; 'I' for Inactive)
REMARK    1  A    between atoms: C_2  and  C_4
REMARK    2  A    between atoms: C_6  and  C_7
REMARK    3  A    between atoms: C_7  and  N_8
REMARK    4  A    between atoms: N_11  and  S_15
REMARK    5  A    between atoms: S_15  and  C_18
REMARK                            x       y       z     vdW  Elec       q    Type
REMARK                         _______ _______ _______ _____ _____    ______ ____
ROOT
ATOM      1  N   UNL     1       7.500  -3.930  23.333  0.00  0.00    -0.295 N 
ATOM      2  C   UNL     1       6.809  -2.842  22.799  0.00  0.00    +0.232 C 
ATOM      3  O   UNL     1       5.609  -2.840  22.550  0.00  0.00    -0.274 OA
ATOM      4  C   UNL     1       7.748  -1.741  22.341  0.00  0.00    +0.205 C 
ATOM      5  N   UNL     1       8.717  -1.322  23.382  0.00  0.00    -0.166 NA
ATOM      6  C   UNL     1       9.477  -2.499  23.905  0.00  0.00    +0.129 C 
ATOM      7  C   UNL     1       8.556  -3.668  24.313  0.00  0.00    +0.125 C 
ENDROOT
BRANCH   5   8
ATOM      8  S   UNL     1       8.032  -0.259  24.520  0.00  0.00    +0.068 S 
ATOM      9  O   UNL     1       8.420  -0.714  25.837  0.00  0.00    -0.152 OA
ATOM     10  O   UNL     1       6.650  -0.021  24.180  0.00  0.00    -0.152 OA
BRANCH   8  11
ATOM     11  C   UNL     1       8.834   1.316  24.333  0.00  0.00    +0.144 A 
ATOM     12  S   UNL     1      10.415   1.291  23.701  0.00  0.00    -0.068 S 
ATOM     13  C   UNL     1      10.541   3.008  23.738  0.00  0.00    +0.023 A 
ATOM     14  C   UNL     1      11.643   3.785  23.324  0.00  0.00    +0.035 A 
ATOM     15  C   UNL     1      11.555   5.173  23.438  0.00  0.00    +0.042 A 
ATOM     16  C   UNL     1      10.414   5.781  23.938  0.00  0.00    +0.020 A 
ATOM     17  C   UNL     1       9.330   5.003  24.345  0.00  0.00    +0.010 A 
ATOM     18 CL   UNL     1      12.888   6.144  22.944  0.00  0.00    -0.084 Cl
ATOM     19  C   UNL     1       9.381   3.592  24.248  0.00  0.00    -0.009 A 
ATOM     20  C   UNL     1       8.409   2.598  24.592  0.00  0.00    +0.045 A 
ENDBRANCH   8  11
ENDBRANCH   5   8
BRANCH   1  21
ATOM     21  C   UNL     1       6.983  -5.276  23.131  0.00  0.00    +0.143 C 
BRANCH  21  26
ATOM     22  C   UNL     1       5.210  -6.338  26.353  0.00  0.00    +0.065 A 
ATOM     23  C   UNL     1       3.992  -6.806  25.849  0.00  0.00    +0.016 A 
ATOM     24  C   UNL     1       3.753  -6.761  24.477  0.00  0.00    +0.001 A 
ATOM     25  C   UNL     1       4.736  -6.269  23.614  0.00  0.00    +0.005 A 
ATOM     26  C   UNL     1       5.975  -5.821  24.106  0.00  0.00    -0.029 A 
ATOM     27  C   UNL     1       6.196  -5.857  25.483  0.00  0.00    +0.021 A 
BRANCH  22  31
ATOM     28  N   UNL     1       5.916  -5.189  28.418  0.00  0.00    -0.247 N 
ATOM     29  H   UNL     1       5.674  -4.319  27.949  0.00  0.00    +0.288 HD
ATOM     30  H   UNL     1       5.789  -5.125  29.420  0.00  0.00    +0.288 HD
ATOM     31  C   UNL     1       5.482  -6.334  27.813  0.00  0.00    +0.308 C 
ATOM     32  N   UNL     1       5.310  -7.415  28.500  0.00  0.00    -0.099 NA
ATOM     33  H   UNL     1       5.598  -7.245  29.465  0.00  0.00    +0.363 HD
ENDBRANCH  22  31
ENDBRANCH  21  26
ENDBRANCH   1  21
TORSDOF 5
ENDMDL
MODEL 8
REMARK VINA RESULT:      -8.1      4.448     10.006
REMARK  Name = 
REMARK  5 active torsions:
REMARK  status: ('A' for Active; 'I' for Inactive)
REMARK    1  A    between atoms: C_2  and  C_4
REMARK    2  A    between atoms: C_6  and  C_7
REMARK    3  A    between atoms: C_7  and  N_8
REMARK    4  A    between atoms: N_11  and  S_15
REMARK    5  A    between atoms: S_15  and  C_18
REMARK                            x       y       z     vdW  Elec       q    Type
REMARK                         _______ _______ _______ _____ _____    ______ ____
ROOT
ATOM      1  N   UNL     1       7.966  -3.952  25.509  0.00  0.00    -0.295 N 
ATOM      2  C   UNL     1       7.888  -2.574  25.712  0.00  0.00    +0.232 C 
ATOM      3  O   UNL     1       8.146  -2.017  26.773  0.00  0.00    -0.274 OA
ATOM      4  C   UNL     1       7.224  -1.864  24.547  0.00  0.00    +0.205 C 
ATOM      5  N   UNL     1       7.827  -2.194  23.235  0.00  0.00    -0.166 NA
ATOM      6  C   UNL     1       7.857  -3.674  23.020  0.00  0.00    +0.129 C 
ATOM      7  C   UNL     1       8.460  -4.436  24.219  0.00  0.00    +0.125 C 
ENDROOT
BRANCH   5   8
ATOM      8  S   UNL     1       9.261  -1.327  22.940  0.00  0.00    +0.068 S 
ATOM      9  O   UNL     1       9.674  -1.608  21.582  0.00  0.00    -0.152 OA
ATOM     10  O   UNL     1      10.162  -1.502  24.053  0.00  0.00    -0.152 OA
BRANCH   8  11
ATOM     11  C   UNL     1       8.852   0.402  22.938  0.00  0.00    +0.144 A 
ATOM     12  S   UNL     1       9.852   1.418  23.869  0.00  0.00    -0.068 S 
ATOM     13  C   UNL     1       8.987   2.831  23.401  0.00  0.00    +0.023 A 
ATOM     14  C   UNL     1       9.258   4.158  23.791  0.00  0.00    +0.035 A 
ATOM     15  C   UNL     1       8.433   5.173  23.305  0.00  0.00    +0.042 A 
ATOM     16  C   UNL     1       7.376   4.893  22.454  0.00  0.00    +0.020 A 
ATOM     17  C   UNL     1       7.116   3.577  22.073  0.00  0.00    +0.010 A 
ATOM     18 CL   UNL     1       8.740   6.802  23.772  0.00  0.00    -0.084 Cl
ATOM     19  C   UNL     1       7.928   2.518  22.547  0.00  0.00    -0.009 A 
ATOM     20  C   UNL     1       7.863   1.110  22.296  0.00  0.00    +0.045 A 
ENDBRANCH   8  11
ENDBRANCH   5   8
BRANCH   1  21
ATOM     21  C   UNL     1       7.832  -4.852  26.645  0.00  0.00    +0.143 C 
BRANCH  21  26
ATOM     22  C   UNL     1       4.493  -6.699  26.333  0.00  0.00    +0.065 A 
ATOM     23  C   UNL     1       3.994  -6.575  27.634  0.00  0.00    +0.016 A 
ATOM     24  C   UNL     1       4.746  -5.909  28.599  0.00  0.00    +0.001 A 
ATOM     25  C   UNL     1       5.982  -5.353  28.257  0.00  0.00    +0.005 A 
ATOM     26  C   UNL     1       6.483  -5.446  26.946  0.00  0.00    -0.029 A 
ATOM     27  C   UNL     1       5.726  -6.130  25.993  0.00  0.00    +0.021 A 
BRANCH  22  31
ATOM     28  N   UNL     1       2.600  -8.116  25.630  0.00  0.00    -0.247 N 
ATOM     29  H   UNL     1       2.118  -7.786  26.464  0.00  0.00    +0.288 HD
ATOM     30  H   UNL     1       1.954  -8.331  24.883  0.00  0.00    +0.288 HD
ATOM     31  C   UNL     1       3.736  -7.438  25.290  0.00  0.00    +0.308 C 
ATOM     32  N   UNL     1       4.159  -7.437  24.069  0.00  0.00    -0.099 NA
ATOM     33  H   UNL     1       3.552  -8.036  23.507  0.00  0.00    +0.363 HD
ENDBRANCH  22  31
ENDBRANCH  21  26
ENDBRANCH   1  21
TORSDOF 5
ENDMDL
MODEL 9
REMARK VINA RESULT:      -8.1      2.718      3.559
REMARK  Name = 
REMARK  5 active torsions:
REMARK  status: ('A' for Active; 'I' for Inactive)
REMARK    1  A    between atoms: C_2  and  C_4
REMARK    2  A    between atoms: C_6  and  C_7
REMARK    3  A    between atoms: C_7  and  N_8
REMARK    4  A    between atoms: N_11  and  S_15
REMARK    5  A    between atoms: S_15  and  C_18
REMARK                            x       y       z     vdW  Elec       q    Type
REMARK                         _______ _______ _______ _____ _____    ______ ____
ROOT
ATOM      1  N   UNL     1       8.797  -1.081  22.666  0.00  0.00    -0.295 N 
ATOM      2  C   UNL     1       7.598  -1.417  23.295  0.00  0.00    +0.232 C 
ATOM      3  O   UNL     1       6.487  -1.139  22.857  0.00  0.00    -0.274 OA
ATOM      4  C   UNL     1       7.821  -1.957  24.696  0.00  0.00    +0.205 C 
ATOM      5  N   UNL     1       8.802  -3.066  24.750  0.00  0.00    -0.166 NA
ATOM      6  C   UNL     1      10.094  -2.666  24.111  0.00  0.00    +0.129 C 
ATOM      7  C   UNL     1       9.899  -2.045  22.712  0.00  0.00    +0.125 C 
ENDROOT
BRANCH   5   8
ATOM      8  S   UNL     1       8.125  -4.558  24.288  0.00  0.00    +0.068 S 
ATOM      9  O   UNL     1       9.194  -5.532  24.246  0.00  0.00    -0.152 OA
ATOM     10  O   UNL     1       7.245  -4.355  23.162  0.00  0.00    -0.152 OA
BRANCH   8  11
ATOM     11  C   UNL     1       7.071  -5.101  25.611  0.00  0.00    +0.144 A 
ATOM     12  S   UNL     1       5.522  -5.653  25.168  0.00  0.00    -0.068 S 
ATOM     13  C   UNL     1       5.109  -6.039  26.795  0.00  0.00    +0.023 A 
ATOM     14  C   UNL     1       3.896  -6.594  27.251  0.00  0.00    +0.035 A 
ATOM     15  C   UNL     1       3.748  -6.832  28.618  0.00  0.00    +0.042 A 
ATOM     16  C   UNL     1       4.766  -6.537  29.511  0.00  0.00    +0.020 A 
ATOM     17  C   UNL     1       5.962  -5.988  29.050  0.00  0.00    +0.010 A 
ATOM     18 CL   UNL     1       2.275  -7.505  29.201  0.00  0.00    -0.084 Cl
ATOM     19  C   UNL     1       6.150  -5.730  27.671  0.00  0.00    -0.009 A 
ATOM     20  C   UNL     1       7.273  -5.183  26.969  0.00  0.00    +0.045 A 
ENDBRANCH   8  11
ENDBRANCH   5   8
BRANCH   1  21
ATOM     21  C   UNL     1       8.836   0.059  21.761  0.00  0.00    +0.143 C 
BRANCH  21  26
ATOM     22  C   UNL     1       8.060   3.720  22.567  0.00  0.00    +0.065 A 
ATOM     23  C   UNL     1       9.027   3.992  23.540  0.00  0.00    +0.016 A 
ATOM     24  C   UNL     1       9.908   2.988  23.935  0.00  0.00    +0.001 A 
ATOM     25  C   UNL     1       9.834   1.724  23.342  0.00  0.00    +0.005 A 
ATOM     26  C   UNL     1       8.885   1.446  22.342  0.00  0.00    -0.029 A 
ATOM     27  C   UNL     1       7.999   2.456  21.968  0.00  0.00    +0.021 A 
BRANCH  22  31
ATOM     28  N   UNL     1       7.519   5.912  21.574  0.00  0.00    -0.247 N 
ATOM     29  H   UNL     1       8.425   5.862  21.112  0.00  0.00    +0.288 HD
ATOM     30  H   UNL     1       6.848   6.436  21.030  0.00  0.00    +0.288 HD
ATOM     31  C   UNL     1       7.079   4.756  22.152  0.00  0.00    +0.308 C 
ATOM     32  N   UNL     1       5.817   4.556  22.344  0.00  0.00    -0.099 NA
ATOM     33  H   UNL     1       5.302   5.389  22.053  0.00  0.00    +0.363 HD
ENDBRANCH  22  31
ENDBRANCH  21  26
ENDBRANCH   1  21
TORSDOF 5
ENDMDL
