MODEL 1
REMARK VINA RESULT:      -5.4      0.000      0.000
REMARK  Name = 
REMARK  33 active torsions:
REMARK  status: ('A' for Active; 'I' for Inactive)
REMARK    1  A    between atoms: N_1  and  C_2
REMARK    2  A    between atoms: C_2  and  C_4
REMARK    3  A    between atoms: C_2  and  C_50
REMARK    4  A    between atoms: C_4  and  C_5
REMARK    5  A    between atoms: C_5  and  C_6
REMARK    6  A    between atoms: N_8  and  C_9
REMARK    7  A    between atoms: C_9  and  C_11
REMARK    8  A    between atoms: C_9  and  C_13
REMARK    9  A    between atoms: C_11  and  S_12
REMARK   10  A    between atoms: N_15  and  C_16
REMARK   11  A    between atoms: C_16  and  C_17
REMARK   12  A    between atoms: N_19  and  C_20
REMARK   13  A    between atoms: C_20  and  C_21
REMARK   14  A    between atoms: C_21  and  C_22
REMARK   15  A    between atoms: C_22  and  C_23
REMARK   16  A    between atoms: C_23  and  N_24
REMARK   17  A    between atoms: N_24  and  C_25
REMARK   18  A    between atoms: C_25  and  C_26
REMARK   19  A    between atoms: C_26  and  C_27
REMARK   20  A    between atoms: C_27  and  N_28
REMARK   21  A    between atoms: C_29  and  C_31
REMARK   22  A    between atoms: C_31  and  N_32
REMARK   23  A    between atoms: C_33  and  C_35
REMARK   24  A    between atoms: C_35  and  C_37
REMARK   25  A    between atoms: C_35  and  N_39
REMARK   26  A    between atoms: C_37  and  S_38
REMARK   27  A    between atoms: C_40  and  C_42
REMARK   28  A    between atoms: C_42  and  C_43
REMARK   29  A    between atoms: C_43  and  C_44
REMARK   30  A    between atoms: C_44  and  N_46
REMARK   31  A    between atoms: C_44  and  C_47
REMARK   32  A    between atoms: C_47  and  O_48
REMARK   33  A    between atoms: C_50  and  O_51
REMARK                            x       y       z     vdW  Elec       q    Type
REMARK                         _______ _______ _______ _____ _____    ______ ____
ROOT
ATOM      1  N   UNK     1       8.630   1.254  21.109  0.00  0.00    -0.316 NA
ATOM      2  H   UNK     1       7.644   0.994  21.129  0.00  0.00    +0.122 HD
ENDROOT
BRANCH   1   3
ATOM      3  C   UNK     1       8.916   2.219  22.171  0.00  0.00    +0.082 C 
BRANCH   3   4
ATOM      4  C   UNK     1      10.420   2.261  22.453  0.00  0.00    +0.034 C 
BRANCH   4   5
ATOM      5  C   UNK     1      10.796   3.394  23.403  0.00  0.00    +0.105 C 
BRANCH   5   6
ATOM      6  N   UNK     1       9.811   4.458  23.418  0.00  0.00    -0.314 N 
ATOM      7  H   UNK     1       8.956   4.358  22.879  0.00  0.00    +0.149 HD
ATOM      8  C   UNK     1      10.144   5.727  23.838  0.00  0.00    +0.230 C 
ATOM      9  O   UNK     1      11.273   6.063  24.170  0.00  0.00    -0.274 OA
BRANCH   8  10
ATOM     10  C   UNK     1       8.988   6.724  23.743  0.00  0.00    +0.200 C 
BRANCH  10  11
ATOM     11  N   UNK     1       7.833   6.219  24.458  0.00  0.00    -0.305 N 
ATOM     12  H   UNK     1       7.683   6.573  25.400  0.00  0.00    +0.149 HD
ATOM     13  C   UNK     1       6.848   5.471  23.862  0.00  0.00    +0.235 C 
ATOM     14  O   UNK     1       6.885   5.170  22.667  0.00  0.00    -0.274 OA
BRANCH  13  15
ATOM     15  C   UNK     1       5.660   5.084  24.778  0.00  0.00    +0.168 C 
BRANCH  15  16
ATOM     16  N   UNK     1       5.825   3.665  25.141  0.00  0.00    -0.303 N 
ATOM     17  H   UNK     1       6.548   3.434  25.818  0.00  0.00    +0.149 HD
ATOM     18  C   UNK     1       5.075   2.694  24.533  0.00  0.00    +0.214 C 
ATOM     19  O   UNK     1       4.204   2.961  23.712  0.00  0.00    -0.276 OA
BRANCH  18  20
ATOM     20  C   UNK     1       5.386   1.273  24.948  0.00  0.00    +0.098 C 
BRANCH  20  21
ATOM     21  C   UNK     1       6.895   1.004  24.857  0.00  0.00    +0.039 C 
BRANCH  21  22
ATOM     22  C   UNK     1       7.537   0.611  26.199  0.00  0.00    +0.161 C 
BRANCH  22  23
ATOM     23  N   UNK     1       7.415   1.722  27.190  0.00  0.00    -0.318 NA
ATOM     24  H   UNK     1       7.907   2.534  26.798  0.00  0.00    +0.119 HD
ATOM     25  H   UNK     1       6.439   2.027  27.205  0.00  0.00    +0.119 HD
ENDBRANCH  22  23
BRANCH  22  26
ATOM     26  C   UNK     1       6.824  -0.625  26.768  0.00  0.00    +0.322 C 
ATOM     27  O   UNK     1       6.886  -1.753  26.307  0.00  0.00    -0.249 OA
BRANCH  26  28
ATOM     28  O   UNK     1       6.090  -0.304  27.866  0.00  0.00    -0.480 OA
ATOM     29  H   UNK     1       6.209  -1.045  28.507  0.00  0.00    +0.295 HD
ENDBRANCH  26  28
ENDBRANCH  22  26
ENDBRANCH  21  22
ENDBRANCH  20  21
ENDBRANCH  18  20
ENDBRANCH  15  16
BRANCH  15  30
ATOM     30  C   UNK     1       5.522   5.945  26.048  0.00  0.00    +0.097 C 
BRANCH  30  31
ATOM     31  S   UNK     1       6.082   5.192  27.610  0.00  0.00    -0.176 S 
ATOM     32  H   UNK     1       6.108   3.927  27.158  0.00  0.00    +0.102 HD
ENDBRANCH  30  31
ENDBRANCH  15  30
ENDBRANCH  13  15
ENDBRANCH  10  11
ENDBRANCH   8  10
ENDBRANCH   5   6
ENDBRANCH   4   5
ENDBRANCH   3   4
ENDBRANCH   1   3
BRANCH   1  33
ATOM     33  C   UNK     1       9.451   0.053  21.260  0.00  0.00    +0.081 C 
BRANCH  33  34
ATOM     34  C   UNK     1       8.809  -0.930  22.246  0.00  0.00    +0.017 C 
BRANCH  34  35
ATOM     35  C   UNK     1       9.596  -1.151  23.548  0.00  0.00    +0.020 C 
BRANCH  35  36
ATOM     36  C   UNK     1       9.869  -2.625  23.827  0.00  0.00    +0.104 C 
BRANCH  36  38
ATOM     37  C   UNK     1       9.439  -4.373  25.487  0.00  0.00    +0.230 C 
ATOM     38  N   UNK     1       9.106  -3.147  24.943  0.00  0.00    -0.314 N 
ATOM     39  H   UNK     1       8.542  -2.518  25.515  0.00  0.00    +0.149 HD
ATOM     40  O   UNK     1      10.365  -5.068  25.072  0.00  0.00    -0.274 OA
BRANCH  37  41
ATOM     41  C   UNK     1       8.611  -4.787  26.702  0.00  0.00    +0.200 C 
BRANCH  41  43
ATOM     42  C   UNK     1       6.413  -5.712  27.253  0.00  0.00    +0.235 C 
ATOM     43  N   UNK     1       7.216  -5.030  26.353  0.00  0.00    -0.305 N 
ATOM     44  H   UNK     1       6.980  -5.104  25.368  0.00  0.00    +0.149 HD
ATOM     45  O   UNK     1       6.895  -6.162  28.288  0.00  0.00    -0.274 OA
BRANCH  42  46
ATOM     46  C   UNK     1       4.951  -5.973  26.787  0.00  0.00    +0.168 C 
BRANCH  46  48
ATOM     47  C   UNK     1       4.435  -6.386  24.378  0.00  0.00    +0.214 C 
ATOM     48  N   UNK     1       4.775  -5.517  25.388  0.00  0.00    -0.303 N 
ATOM     49  H   UNK     1       4.790  -4.520  25.211  0.00  0.00    +0.149 HD
ATOM     50  O   UNK     1       4.277  -7.591  24.538  0.00  0.00    -0.276 OA
BRANCH  47  51
ATOM     51  C   UNK     1       4.266  -5.760  23.009  0.00  0.00    +0.098 C 
BRANCH  51  52
ATOM     52  C   UNK     1       5.479  -5.926  22.088  0.00  0.00    +0.039 C 
BRANCH  52  53
ATOM     53  C   UNK     1       6.640  -4.940  22.299  0.00  0.00    +0.161 C 
BRANCH  53  54
ATOM     54  N   UNK     1       7.646  -5.418  23.289  0.00  0.00    -0.318 NA
ATOM     55  H   UNK     1       8.195  -6.185  22.892  0.00  0.00    +0.119 HD
ATOM     56  H   UNK     1       8.327  -4.666  23.433  0.00  0.00    +0.119 HD
ENDBRANCH  53  54
BRANCH  53  57
ATOM     57  C   UNK     1       6.148  -3.534  22.688  0.00  0.00    +0.322 C 
ATOM     58  O   UNK     1       5.637  -2.739  21.911  0.00  0.00    -0.249 OA
BRANCH  57  59
ATOM     59  O   UNK     1       6.347  -3.282  24.005  0.00  0.00    -0.480 OA
ATOM     60  H   UNK     1       5.731  -2.546  24.244  0.00  0.00    +0.295 HD
ENDBRANCH  57  59
ENDBRANCH  53  57
ENDBRANCH  52  53
ENDBRANCH  51  52
ENDBRANCH  47  51
ENDBRANCH  46  48
BRANCH  46  61
ATOM     61  C   UNK     1       3.935  -5.271  27.713  0.00  0.00    +0.097 C 
BRANCH  61  62
ATOM     62  S   UNK     1       3.957  -3.445  27.737  0.00  0.00    -0.176 S 
ATOM     63  H   UNK     1       2.702  -3.257  27.310  0.00  0.00    +0.102 HD
ENDBRANCH  61  62
ENDBRANCH  46  61
ENDBRANCH  42  46
ENDBRANCH  41  43
ENDBRANCH  37  41
ENDBRANCH  36  38
ENDBRANCH  35  36
ENDBRANCH  34  35
ENDBRANCH  33  34
ENDBRANCH   1  33
TORSDOF 33
ENDMDL
MODEL 2
REMARK VINA RESULT:      -5.3      2.208      3.983
REMARK  Name = 
REMARK  33 active torsions:
REMARK  status: ('A' for Active; 'I' for Inactive)
REMARK    1  A    between atoms: N_1  and  C_2
REMARK    2  A    between atoms: C_2  and  C_4
REMARK    3  A    between atoms: C_2  and  C_50
REMARK    4  A    between atoms: C_4  and  C_5
REMARK    5  A    between atoms: C_5  and  C_6
REMARK    6  A    between atoms: N_8  and  C_9
REMARK    7  A    between atoms: C_9  and  C_11
REMARK    8  A    between atoms: C_9  and  C_13
REMARK    9  A    between atoms: C_11  and  S_12
REMARK   10  A    between atoms: N_15  and  C_16
REMARK   11  A    between atoms: C_16  and  C_17
REMARK   12  A    between atoms: N_19  and  C_20
REMARK   13  A    between atoms: C_20  and  C_21
REMARK   14  A    between atoms: C_21  and  C_22
REMARK   15  A    between atoms: C_22  and  C_23
REMARK   16  A    between atoms: C_23  and  N_24
REMARK   17  A    between atoms: N_24  and  C_25
REMARK   18  A    between atoms: C_25  and  C_26
REMARK   19  A    between atoms: C_26  and  C_27
REMARK   20  A    between atoms: C_27  and  N_28
REMARK   21  A    between atoms: C_29  and  C_31
REMARK   22  A    between atoms: C_31  and  N_32
REMARK   23  A    between atoms: C_33  and  C_35
REMARK   24  A    between atoms: C_35  and  C_37
REMARK   25  A    between atoms: C_35  and  N_39
REMARK   26  A    between atoms: C_37  and  S_38
REMARK   27  A    between atoms: C_40  and  C_42
REMARK   28  A    between atoms: C_42  and  C_43
REMARK   29  A    between atoms: C_43  and  C_44
REMARK   30  A    between atoms: C_44  and  N_46
REMARK   31  A    between atoms: C_44  and  C_47
REMARK   32  A    between atoms: C_47  and  O_48
REMARK   33  A    between atoms: C_50  and  O_51
REMARK                            x       y       z     vdW  Elec       q    Type
REMARK                         _______ _______ _______ _____ _____    ______ ____
ROOT
ATOM      1  N   UNK     1      11.338   5.151  22.982  0.00  0.00    -0.316 NA
ATOM      2  H   UNK     1      11.108   5.195  21.990  0.00  0.00    +0.122 HD
ENDROOT
BRANCH   1   3
ATOM      3  C   UNK     1      10.248   5.719  23.776  0.00  0.00    +0.082 C 
BRANCH   3   4
ATOM      4  C   UNK     1      10.811   6.645  24.857  0.00  0.00    +0.034 C 
BRANCH   4   5
ATOM      5  C   UNK     1       9.865   6.784  26.045  0.00  0.00    +0.105 C 
BRANCH   5   6
ATOM      6  N   UNK     1       8.470   6.779  25.651  0.00  0.00    -0.314 N 
ATOM      7  H   UNK     1       8.116   7.518  25.049  0.00  0.00    +0.149 HD
ATOM      8  C   UNK     1       7.540   6.029  26.337  0.00  0.00    +0.230 C 
ATOM      9  O   UNK     1       7.797   5.369  27.336  0.00  0.00    -0.274 OA
BRANCH   8  10
ATOM     10  C   UNK     1       6.116   6.184  25.803  0.00  0.00    +0.200 C 
BRANCH  10  11
ATOM     11  N   UNK     1       5.763   5.043  24.981  0.00  0.00    -0.305 N 
ATOM     12  H   UNK     1       5.168   4.336  25.406  0.00  0.00    +0.149 HD
ATOM     13  C   UNK     1       6.014   4.981  23.633  0.00  0.00    +0.235 C 
ATOM     14  O   UNK     1       6.569   5.900  23.026  0.00  0.00    -0.274 OA
BRANCH  13  15
ATOM     15  C   UNK     1       5.500   3.707  22.918  0.00  0.00    +0.168 C 
BRANCH  15  16
ATOM     16  N   UNK     1       5.717   2.570  23.829  0.00  0.00    -0.303 N 
ATOM     17  H   UNK     1       5.417   2.676  24.795  0.00  0.00    +0.149 HD
ATOM     18  C   UNK     1       6.364   1.441  23.400  0.00  0.00    +0.214 C 
ATOM     19  O   UNK     1       6.734   1.303  22.239  0.00  0.00    -0.276 OA
BRANCH  18  20
ATOM     20  C   UNK     1       6.581   0.373  24.450  0.00  0.00    +0.098 C 
BRANCH  20  21
ATOM     21  C   UNK     1       7.618   0.837  25.482  0.00  0.00    +0.039 C 
BRANCH  21  22
ATOM     22  C   UNK     1       7.195   0.588  26.940  0.00  0.00    +0.161 C 
BRANCH  22  23
ATOM     23  N   UNK     1       8.286  -0.091  27.700  0.00  0.00    -0.318 NA
ATOM     24  H   UNK     1       8.920  -0.513  27.010  0.00  0.00    +0.119 HD
ATOM     25  H   UNK     1       8.865   0.631  28.136  0.00  0.00    +0.119 HD
ENDBRANCH  22  23
BRANCH  22  26
ATOM     26  C   UNK     1       6.892   1.930  27.624  0.00  0.00    +0.322 C 
ATOM     27  O   UNK     1       7.199   2.228  28.766  0.00  0.00    -0.249 OA
BRANCH  26  28
ATOM     28  O   UNK     1       6.214   2.761  26.790  0.00  0.00    -0.480 OA
ATOM     29  H   UNK     1       6.808   2.925  26.018  0.00  0.00    +0.295 HD
ENDBRANCH  26  28
ENDBRANCH  22  26
ENDBRANCH  21  22
ENDBRANCH  20  21
ENDBRANCH  18  20
ENDBRANCH  15  16
BRANCH  15  30
ATOM     30  C   UNK     1       4.022   3.766  22.486  0.00  0.00    +0.097 C 
BRANCH  30  31
ATOM     31  S   UNK     1       2.778   3.516  23.794  0.00  0.00    -0.176 S 
ATOM     32  H   UNK     1       3.493   4.078  24.782  0.00  0.00    +0.102 HD
ENDBRANCH  30  31
ENDBRANCH  15  30
ENDBRANCH  13  15
ENDBRANCH  10  11
ENDBRANCH   8  10
ENDBRANCH   5   6
ENDBRANCH   4   5
ENDBRANCH   3   4
ENDBRANCH   1   3
BRANCH   1  33
ATOM     33  C   UNK     1      11.589   3.761  23.361  0.00  0.00    +0.081 C 
BRANCH  33  34
ATOM     34  C   UNK     1      10.284   2.957  23.390  0.00  0.00    +0.017 C 
BRANCH  34  35
ATOM     35  C   UNK     1      10.104   1.967  22.228  0.00  0.00    +0.020 C 
BRANCH  35  36
ATOM     36  C   UNK     1      10.288   0.516  22.658  0.00  0.00    +0.104 C 
BRANCH  36  38
ATOM     37  C   UNK     1       9.090  -1.619  22.703  0.00  0.00    +0.230 C 
ATOM     38  N   UNK     1       9.265  -0.369  22.139  0.00  0.00    -0.314 N 
ATOM     39  H   UNK     1       8.495   0.009  21.587  0.00  0.00    +0.149 HD
ATOM     40  O   UNK     1       9.765  -2.040  23.640  0.00  0.00    -0.274 OA
BRANCH  37  41
ATOM     41  C   UNK     1       7.937  -2.435  22.119  0.00  0.00    +0.200 C 
BRANCH  41  43
ATOM     42  C   UNK     1       5.756  -3.299  22.815  0.00  0.00    +0.235 C 
ATOM     43  N   UNK     1       7.052  -2.947  23.158  0.00  0.00    -0.305 N 
ATOM     44  H   UNK     1       7.217  -2.644  24.112  0.00  0.00    +0.149 HD
ATOM     45  O   UNK     1       5.349  -3.108  21.673  0.00  0.00    -0.274 OA
BRANCH  42  46
ATOM     46  C   UNK     1       4.860  -3.792  23.988  0.00  0.00    +0.168 C 
BRANCH  46  48
ATOM     47  C   UNK     1       5.322  -3.936  26.439  0.00  0.00    +0.214 C 
ATOM     48  N   UNK     1       5.704  -4.184  25.142  0.00  0.00    -0.303 N 
ATOM     49  H   UNK     1       6.520  -4.755  24.958  0.00  0.00    +0.149 HD
ATOM     50  O   UNK     1       4.285  -3.358  26.747  0.00  0.00    -0.276 OA
BRANCH  47  51
ATOM     51  C   UNK     1       6.281  -4.421  27.506  0.00  0.00    +0.098 C 
BRANCH  51  52
ATOM     52  C   UNK     1       7.493  -5.184  26.963  0.00  0.00    +0.039 C 
BRANCH  52  53
ATOM     53  C   UNK     1       8.703  -4.337  26.537  0.00  0.00    +0.161 C 
BRANCH  53  54
ATOM     54  N   UNK     1       8.358  -2.915  26.255  0.00  0.00    -0.318 NA
ATOM     55  H   UNK     1       9.119  -2.301  26.559  0.00  0.00    +0.119 HD
ATOM     56  H   UNK     1       8.324  -2.795  25.239  0.00  0.00    +0.119 HD
ENDBRANCH  53  54
BRANCH  53  57
ATOM     57  C   UNK     1       9.445  -4.945  25.332  0.00  0.00    +0.322 C 
ATOM     58  O   UNK     1      10.611  -5.315  25.351  0.00  0.00    -0.249 OA
BRANCH  57  59
ATOM     59  O   UNK     1       8.643  -5.026  24.241  0.00  0.00    -0.480 OA
ATOM     60  H   UNK     1       8.872  -5.876  23.791  0.00  0.00    +0.295 HD
ENDBRANCH  57  59
ENDBRANCH  53  57
ENDBRANCH  52  53
ENDBRANCH  51  52
ENDBRANCH  47  51
ENDBRANCH  46  48
BRANCH  46  61
ATOM     61  C   UNK     1       3.966  -4.972  23.552  0.00  0.00    +0.097 C 
BRANCH  61  62
ATOM     62  S   UNK     1       4.570  -6.654  23.928  0.00  0.00    -0.176 S 
ATOM     63  H   UNK     1       3.379  -7.266  23.916  0.00  0.00    +0.102 HD
ENDBRANCH  61  62
ENDBRANCH  46  61
ENDBRANCH  42  46
ENDBRANCH  41  43
ENDBRANCH  37  41
ENDBRANCH  36  38
ENDBRANCH  35  36
ENDBRANCH  34  35
ENDBRANCH  33  34
ENDBRANCH   1  33
TORSDOF 33
ENDMDL
MODEL 3
REMARK VINA RESULT:      -5.3      1.883      9.129
REMARK  Name = 
REMARK  33 active torsions:
REMARK  status: ('A' for Active; 'I' for Inactive)
REMARK    1  A    between atoms: N_1  and  C_2
REMARK    2  A    between atoms: C_2  and  C_4
REMARK    3  A    between atoms: C_2  and  C_50
REMARK    4  A    between atoms: C_4  and  C_5
REMARK    5  A    between atoms: C_5  and  C_6
REMARK    6  A    between atoms: N_8  and  C_9
REMARK    7  A    between atoms: C_9  and  C_11
REMARK    8  A    between atoms: C_9  and  C_13
REMARK    9  A    between atoms: C_11  and  S_12
REMARK   10  A    between atoms: N_15  and  C_16
REMARK   11  A    between atoms: C_16  and  C_17
REMARK   12  A    between atoms: N_19  and  C_20
REMARK   13  A    between atoms: C_20  and  C_21
REMARK   14  A    between atoms: C_21  and  C_22
REMARK   15  A    between atoms: C_22  and  C_23
REMARK   16  A    between atoms: C_23  and  N_24
REMARK   17  A    between atoms: N_24  and  C_25
REMARK   18  A    between atoms: C_25  and  C_26
REMARK   19  A    between atoms: C_26  and  C_27
REMARK   20  A    between atoms: C_27  and  N_28
REMARK   21  A    between atoms: C_29  and  C_31
REMARK   22  A    between atoms: C_31  and  N_32
REMARK   23  A    between atoms: C_33  and  C_35
REMARK   24  A    between atoms: C_35  and  C_37
REMARK   25  A    between atoms: C_35  and  N_39
REMARK   26  A    between atoms: C_37  and  S_38
REMARK   27  A    between atoms: C_40  and  C_42
REMARK   28  A    between atoms: C_42  and  C_43
REMARK   29  A    between atoms: C_43  and  C_44
REMARK   30  A    between atoms: C_44  and  N_46
REMARK   31  A    between atoms: C_44  and  C_47
REMARK   32  A    between atoms: C_47  and  O_48
REMARK   33  A    between atoms: C_50  and  O_51
REMARK                            x       y       z     vdW  Elec       q    Type
REMARK                         _______ _______ _______ _____ _____    ______ ____
ROOT
ATOM      1  N   UNK     1       9.366  -1.820  23.435  0.00  0.00    -0.316 NA
ATOM      2  H   UNK     1       8.755  -1.826  24.251  0.00  0.00    +0.122 HD
ENDROOT
BRANCH   1   3
ATOM      3  C   UNK     1       8.577  -1.981  22.214  0.00  0.00    +0.082 C 
BRANCH   3   4
ATOM      4  C   UNK     1       7.300  -2.771  22.513  0.00  0.00    +0.034 C 
BRANCH   4   5
ATOM      5  C   UNK     1       7.590  -4.235  22.827  0.00  0.00    +0.105 C 
BRANCH   5   6
ATOM      6  N   UNK     1       7.474  -4.536  24.240  0.00  0.00    -0.314 N 
ATOM      7  H   UNK     1       6.607  -4.327  24.728  0.00  0.00    +0.149 HD
ATOM      8  C   UNK     1       8.592  -4.756  25.014  0.00  0.00    +0.230 C 
ATOM      9  O   UNK     1       9.739  -4.666  24.598  0.00  0.00    -0.274 OA
BRANCH   8  10
ATOM     10  C   UNK     1       8.274  -5.015  26.487  0.00  0.00    +0.200 C 
BRANCH  10  11
ATOM     11  N   UNK     1       6.959  -4.499  26.813  0.00  0.00    -0.305 N 
ATOM     12  H   UNK     1       6.811  -3.501  26.685  0.00  0.00    +0.149 HD
ATOM     13  C   UNK     1       5.879  -5.305  27.077  0.00  0.00    +0.235 C 
ATOM     14  O   UNK     1       5.959  -6.535  27.060  0.00  0.00    -0.274 OA
BRANCH  13  15
ATOM     15  C   UNK     1       4.543  -4.565  27.337  0.00  0.00    +0.168 C 
BRANCH  15  16
ATOM     16  N   UNK     1       3.674  -4.799  26.170  0.00  0.00    -0.303 N 
ATOM     17  H   UNK     1       2.971  -5.530  26.247  0.00  0.00    +0.149 HD
ATOM     18  C   UNK     1       3.858  -4.101  25.007  0.00  0.00    +0.214 C 
ATOM     19  O   UNK     1       4.706  -3.220  24.902  0.00  0.00    -0.276 OA
BRANCH  18  20
ATOM     20  C   UNK     1       2.942  -4.481  23.864  0.00  0.00    +0.098 C 
BRANCH  20  21
ATOM     21  C   UNK     1       3.333  -5.852  23.294  0.00  0.00    +0.039 C 
BRANCH  21  22
ATOM     22  C   UNK     1       2.288  -6.951  23.553  0.00  0.00    +0.161 C 
BRANCH  22  23
ATOM     23  N   UNK     1       1.920  -7.642  22.282  0.00  0.00    -0.318 NA
ATOM     24  H   UNK     1       2.719  -8.227  22.011  0.00  0.00    +0.119 HD
ATOM     25  H   UNK     1       1.192  -8.329  22.495  0.00  0.00    +0.119 HD
ENDBRANCH  22  23
BRANCH  22  26
ATOM     26  C   UNK     1       2.868  -7.995  24.520  0.00  0.00    +0.322 C 
ATOM     27  O   UNK     1       2.314  -9.025  24.867  0.00  0.00    -0.249 OA
BRANCH  26  28
ATOM     28  O   UNK     1       4.097  -7.620  24.964  0.00  0.00    -0.480 OA
ATOM     29  H   UNK     1       4.241  -8.095  25.818  0.00  0.00    +0.295 HD
ENDBRANCH  26  28
ENDBRANCH  22  26
ENDBRANCH  21  22
ENDBRANCH  20  21
ENDBRANCH  18  20
ENDBRANCH  15  16
BRANCH  15  30
ATOM     30  C   UNK     1       3.820  -4.982  28.632  0.00  0.00    +0.097 C 
BRANCH  30  31
ATOM     31  S   UNK     1       4.825  -5.026  30.151  0.00  0.00    -0.176 S 
ATOM     32  H   UNK     1       5.148  -3.722  30.148  0.00  0.00    +0.102 HD
ENDBRANCH  30  31
ENDBRANCH  15  30
ENDBRANCH  13  15
ENDBRANCH  10  11
ENDBRANCH   8  10
ENDBRANCH   5   6
ENDBRANCH   4   5
ENDBRANCH   3   4
ENDBRANCH   1   3
BRANCH   1  33
ATOM     33  C   UNK     1      10.122  -0.568  23.406  0.00  0.00    +0.081 C 
BRANCH  33  34
ATOM     34  C   UNK     1       9.966   0.135  22.052  0.00  0.00    +0.017 C 
BRANCH  34  35
ATOM     35  C   UNK     1       9.949   1.671  22.117  0.00  0.00    +0.020 C 
BRANCH  35  36
ATOM     36  C   UNK     1      10.534   2.212  23.417  0.00  0.00    +0.104 C 
BRANCH  36  38
ATOM     37  C   UNK     1      10.928   4.621  23.597  0.00  0.00    +0.230 C 
ATOM     38  N   UNK     1      10.071   3.546  23.741  0.00  0.00    -0.314 N 
ATOM     39  H   UNK     1       9.072   3.745  23.782  0.00  0.00    +0.149 HD
ATOM     40  O   UNK     1      12.087   4.515  23.202  0.00  0.00    -0.274 OA
BRANCH  37  41
ATOM     41  C   UNK     1      10.309   5.984  23.902  0.00  0.00    +0.200 C 
BRANCH  41  43
ATOM     42  C   UNK     1       7.897   6.104  23.507  0.00  0.00    +0.235 C 
ATOM     43  N   UNK     1       8.940   5.864  24.388  0.00  0.00    -0.305 N 
ATOM     44  H   UNK     1       8.770   6.041  25.373  0.00  0.00    +0.149 HD
ATOM     45  O   UNK     1       8.132   6.481  22.364  0.00  0.00    -0.274 OA
BRANCH  42  46
ATOM     46  C   UNK     1       6.467   6.002  24.114  0.00  0.00    +0.168 C 
BRANCH  46  48
ATOM     47  C   UNK     1       6.373   3.531  24.466  0.00  0.00    +0.214 C 
ATOM     48  N   UNK     1       5.896   4.661  23.846  0.00  0.00    -0.303 N 
ATOM     49  H   UNK     1       5.055   4.610  23.284  0.00  0.00    +0.149 HD
ATOM     50  O   UNK     1       7.310   3.529  25.257  0.00  0.00    -0.276 OA
BRANCH  47  51
ATOM     51  C   UNK     1       5.665   2.241  24.105  0.00  0.00    +0.098 C 
BRANCH  51  52
ATOM     52  C   UNK     1       6.595   1.033  23.960  0.00  0.00    +0.039 C 
BRANCH  52  53
ATOM     53  C   UNK     1       6.304  -0.171  24.872  0.00  0.00    +0.161 C 
BRANCH  53  54
ATOM     54  N   UNK     1       4.958  -0.118  25.508  0.00  0.00    -0.318 NA
ATOM     55  H   UNK     1       4.451   0.712  25.190  0.00  0.00    +0.119 HD
ATOM     56  H   UNK     1       4.410  -0.905  25.149  0.00  0.00    +0.119 HD
ENDBRANCH  53  54
BRANCH  53  57
ATOM     57  C   UNK     1       7.387  -0.361  25.949  0.00  0.00    +0.322 C 
ATOM     58  O   UNK     1       7.625  -1.419  26.515  0.00  0.00    -0.249 OA
BRANCH  57  59
ATOM     59  O   UNK     1       8.054   0.794  26.195  0.00  0.00    -0.480 OA
ATOM     60  H   UNK     1       7.920   1.367  25.401  0.00  0.00    +0.295 HD
ENDBRANCH  57  59
ENDBRANCH  53  57
ENDBRANCH  52  53
ENDBRANCH  51  52
ENDBRANCH  47  51
ENDBRANCH  46  48
BRANCH  46  61
ATOM     61  C   UNK     1       5.542   7.102  23.553  0.00  0.00    +0.097 C 
BRANCH  61  62
ATOM     62  S   UNK     1       3.783   6.669  23.321  0.00  0.00    -0.176 S 
ATOM     63  H   UNK     1       3.470   7.676  22.496  0.00  0.00    +0.102 HD
ENDBRANCH  61  62
ENDBRANCH  46  61
ENDBRANCH  42  46
ENDBRANCH  41  43
ENDBRANCH  37  41
ENDBRANCH  36  38
ENDBRANCH  35  36
ENDBRANCH  34  35
ENDBRANCH  33  34
ENDBRANCH   1  33
TORSDOF 33
ENDMDL
MODEL 4
REMARK VINA RESULT:      -5.3      2.061      8.325
REMARK  Name = 
REMARK  33 active torsions:
REMARK  status: ('A' for Active; 'I' for Inactive)
REMARK    1  A    between atoms: N_1  and  C_2
REMARK    2  A    between atoms: C_2  and  C_4
REMARK    3  A    between atoms: C_2  and  C_50
REMARK    4  A    between atoms: C_4  and  C_5
REMARK    5  A    between atoms: C_5  and  C_6
REMARK    6  A    between atoms: N_8  and  C_9
REMARK    7  A    between atoms: C_9  and  C_11
REMARK    8  A    between atoms: C_9  and  C_13
REMARK    9  A    between atoms: C_11  and  S_12
REMARK   10  A    between atoms: N_15  and  C_16
REMARK   11  A    between atoms: C_16  and  C_17
REMARK   12  A    between atoms: N_19  and  C_20
REMARK   13  A    between atoms: C_20  and  C_21
REMARK   14  A    between atoms: C_21  and  C_22
REMARK   15  A    between atoms: C_22  and  C_23
REMARK   16  A    between atoms: C_23  and  N_24
REMARK   17  A    between atoms: N_24  and  C_25
REMARK   18  A    between atoms: C_25  and  C_26
REMARK   19  A    between atoms: C_26  and  C_27
REMARK   20  A    between atoms: C_27  and  N_28
REMARK   21  A    between atoms: C_29  and  C_31
REMARK   22  A    between atoms: C_31  and  N_32
REMARK   23  A    between atoms: C_33  and  C_35
REMARK   24  A    between atoms: C_35  and  C_37
REMARK   25  A    between atoms: C_35  and  N_39
REMARK   26  A    between atoms: C_37  and  S_38
REMARK   27  A    between atoms: C_40  and  C_42
REMARK   28  A    between atoms: C_42  and  C_43
REMARK   29  A    between atoms: C_43  and  C_44
REMARK   30  A    between atoms: C_44  and  N_46
REMARK   31  A    between atoms: C_44  and  C_47
REMARK   32  A    between atoms: C_47  and  O_48
REMARK   33  A    between atoms: C_50  and  O_51
REMARK                            x       y       z     vdW  Elec       q    Type
REMARK                         _______ _______ _______ _____ _____    ______ ____
ROOT
ATOM      1  N   UNK     1       8.665  -2.225  22.935  0.00  0.00    -0.316 NA
ATOM      2  H   UNK     1       8.573  -1.806  23.860  0.00  0.00    +0.122 HD
ENDROOT
BRANCH   1   3
ATOM      3  C   UNK     1       7.378  -2.198  22.241  0.00  0.00    +0.082 C 
BRANCH   3   4
ATOM      4  C   UNK     1       6.809  -3.615  22.131  0.00  0.00    +0.034 C 
BRANCH   4   5
ATOM      5  C   UNK     1       7.668  -4.638  22.870  0.00  0.00    +0.105 C 
BRANCH   5   6
ATOM      6  N   UNK     1       7.412  -4.654  24.296  0.00  0.00    -0.314 N 
ATOM      7  H   UNK     1       6.660  -4.087  24.678  0.00  0.00    +0.149 HD
ATOM      8  C   UNK     1       8.358  -5.120  25.182  0.00  0.00    +0.230 C 
ATOM      9  O   UNK     1       9.476  -5.496  24.853  0.00  0.00    -0.274 OA
BRANCH   8  10
ATOM     10  C   UNK     1       7.926  -5.019  26.646  0.00  0.00    +0.200 C 
BRANCH  10  11
ATOM     11  N   UNK     1       6.713  -4.233  26.756  0.00  0.00    -0.305 N 
ATOM     12  H   UNK     1       6.424  -3.713  25.931  0.00  0.00    +0.149 HD
ATOM     13  C   UNK     1       5.852  -4.325  27.822  0.00  0.00    +0.235 C 
ATOM     14  O   UNK     1       6.060  -5.086  28.769  0.00  0.00    -0.274 OA
BRANCH  13  15
ATOM     15  C   UNK     1       4.575  -3.454  27.723  0.00  0.00    +0.168 C 
BRANCH  15  16
ATOM     16  N   UNK     1       3.705  -4.060  26.700  0.00  0.00    -0.303 N 
ATOM     17  H   UNK     1       3.179  -4.889  26.961  0.00  0.00    +0.149 HD
ATOM     18  C   UNK     1       3.667  -3.557  25.426  0.00  0.00    +0.214 C 
ATOM     19  O   UNK     1       4.301  -2.560  25.099  0.00  0.00    -0.276 OA
BRANCH  18  20
ATOM     20  C   UNK     1       2.784  -4.309  24.453  0.00  0.00    +0.098 C 
BRANCH  20  21
ATOM     21  C   UNK     1       2.384  -5.673  25.033  0.00  0.00    +0.039 C 
BRANCH  21  22
ATOM     22  C   UNK     1       3.025  -6.867  24.305  0.00  0.00    +0.161 C 
BRANCH  22  23
ATOM     23  N   UNK     1       2.683  -6.847  22.851  0.00  0.00    -0.318 NA
ATOM     24  H   UNK     1       1.671  -6.689  22.779  0.00  0.00    +0.119 HD
ATOM     25  H   UNK     1       3.080  -5.997  22.445  0.00  0.00    +0.119 HD
ENDBRANCH  22  23
BRANCH  22  26
ATOM     26  C   UNK     1       4.553  -6.795  24.444  0.00  0.00    +0.322 C 
ATOM     27  O   UNK     1       5.165  -6.693  25.494  0.00  0.00    -0.249 OA
BRANCH  26  28
ATOM     28  O   UNK     1       5.158  -6.850  23.228  0.00  0.00    -0.480 OA
ATOM     29  H   UNK     1       5.831  -7.571  23.284  0.00  0.00    +0.295 HD
ENDBRANCH  26  28
ENDBRANCH  22  26
ENDBRANCH  21  22
ENDBRANCH  20  21
ENDBRANCH  18  20
ENDBRANCH  15  16
BRANCH  15  30
ATOM     30  C   UNK     1       3.804  -3.293  29.048  0.00  0.00    +0.097 C 
BRANCH  30  31
ATOM     31  S   UNK     1       2.468  -4.490  29.366  0.00  0.00    -0.176 S 
ATOM     32  H   UNK     1       1.475  -3.586  29.416  0.00  0.00    +0.102 HD
ENDBRANCH  30  31
ENDBRANCH  15  30
ENDBRANCH  13  15
ENDBRANCH  10  11
ENDBRANCH   8  10
ENDBRANCH   5   6
ENDBRANCH   4   5
ENDBRANCH   3   4
ENDBRANCH   1   3
BRANCH   1  33
ATOM     33  C   UNK     1       9.683  -1.501  22.174  0.00  0.00    +0.081 C 
BRANCH  33  34
ATOM     34  C   UNK     1       9.114  -0.200  21.596  0.00  0.00    +0.017 C 
BRANCH  34  35
ATOM     35  C   UNK     1       9.952   1.057  21.879  0.00  0.00    +0.020 C 
BRANCH  35  36
ATOM     36  C   UNK     1      10.206   1.273  23.366  0.00  0.00    +0.104 C 
BRANCH  36  38
ATOM     37  C   UNK     1       9.416   3.481  24.068  0.00  0.00    +0.230 C 
ATOM     38  N   UNK     1       9.213   2.115  24.001  0.00  0.00    -0.314 N 
ATOM     39  H   UNK     1       8.259   1.776  24.125  0.00  0.00    +0.149 HD
ATOM     40  O   UNK     1      10.411   4.041  23.613  0.00  0.00    -0.274 OA
BRANCH  37  41
ATOM     41  C   UNK     1       8.270   4.273  24.695  0.00  0.00    +0.200 C 
BRANCH  41  43
ATOM     42  C   UNK     1       5.838   4.291  24.421  0.00  0.00    +0.235 C 
ATOM     43  N   UNK     1       7.002   3.560  24.605  0.00  0.00    -0.305 N 
ATOM     44  H   UNK     1       6.923   2.670  25.088  0.00  0.00    +0.149 HD
ATOM     45  O   UNK     1       5.878   5.517  24.410  0.00  0.00    -0.274 OA
BRANCH  42  46
ATOM     46  C   UNK     1       4.522   3.461  24.382  0.00  0.00    +0.168 C 
BRANCH  46  48
ATOM     47  C   UNK     1       4.206   1.788  26.210  0.00  0.00    +0.214 C 
ATOM     48  N   UNK     1       4.744   2.128  24.991  0.00  0.00    -0.303 N 
ATOM     49  H   UNK     1       5.202   1.422  24.428  0.00  0.00    +0.149 HD
ATOM     50  O   UNK     1       3.533   2.549  26.897  0.00  0.00    -0.276 OA
BRANCH  47  51
ATOM     51  C   UNK     1       4.502   0.379  26.683  0.00  0.00    +0.098 C 
BRANCH  51  52
ATOM     52  C   UNK     1       5.718   0.269  27.609  0.00  0.00    +0.039 C 
BRANCH  52  53
ATOM     53  C   UNK     1       7.099   0.299  26.934  0.00  0.00    +0.161 C 
BRANCH  53  54
ATOM     54  N   UNK     1       7.687   1.665  26.852  0.00  0.00    -0.318 NA
ATOM     55  H   UNK     1       8.700   1.606  26.724  0.00  0.00    +0.119 HD
ATOM     56  H   UNK     1       7.346   2.103  25.991  0.00  0.00    +0.119 HD
ENDBRANCH  53  54
BRANCH  53  57
ATOM     57  C   UNK     1       7.079  -0.348  25.537  0.00  0.00    +0.322 C 
ATOM     58  O   UNK     1       7.056   0.274  24.484  0.00  0.00    -0.249 OA
BRANCH  57  59
ATOM     59  O   UNK     1       7.094  -1.702  25.614  0.00  0.00    -0.480 OA
ATOM     60  H   UNK     1       6.988  -2.035  24.689  0.00  0.00    +0.295 HD
ENDBRANCH  57  59
ENDBRANCH  53  57
ENDBRANCH  52  53
ENDBRANCH  51  52
ENDBRANCH  47  51
ENDBRANCH  46  48
BRANCH  46  61
ATOM     61  C   UNK     1       3.997   3.311  22.939  0.00  0.00    +0.097 C 
BRANCH  61  62
ATOM     62  S   UNK     1       2.853   4.599  22.333  0.00  0.00    -0.176 S 
ATOM     63  H   UNK     1       2.487   3.980  21.203  0.00  0.00    +0.102 HD
ENDBRANCH  61  62
ENDBRANCH  46  61
ENDBRANCH  42  46
ENDBRANCH  41  43
ENDBRANCH  37  41
ENDBRANCH  36  38
ENDBRANCH  35  36
ENDBRANCH  34  35
ENDBRANCH  33  34
ENDBRANCH   1  33
TORSDOF 33
ENDMDL
MODEL 5
REMARK VINA RESULT:      -5.3      2.363      9.160
REMARK  Name = 
REMARK  33 active torsions:
REMARK  status: ('A' for Active; 'I' for Inactive)
REMARK    1  A    between atoms: N_1  and  C_2
REMARK    2  A    between atoms: C_2  and  C_4
REMARK    3  A    between atoms: C_2  and  C_50
REMARK    4  A    between atoms: C_4  and  C_5
REMARK    5  A    between atoms: C_5  and  C_6
REMARK    6  A    between atoms: N_8  and  C_9
REMARK    7  A    between atoms: C_9  and  C_11
REMARK    8  A    between atoms: C_9  and  C_13
REMARK    9  A    between atoms: C_11  and  S_12
REMARK   10  A    between atoms: N_15  and  C_16
REMARK   11  A    between atoms: C_16  and  C_17
REMARK   12  A    between atoms: N_19  and  C_20
REMARK   13  A    between atoms: C_20  and  C_21
REMARK   14  A    between atoms: C_21  and  C_22
REMARK   15  A    between atoms: C_22  and  C_23
REMARK   16  A    between atoms: C_23  and  N_24
REMARK   17  A    between atoms: N_24  and  C_25
REMARK   18  A    between atoms: C_25  and  C_26
REMARK   19  A    between atoms: C_26  and  C_27
REMARK   20  A    between atoms: C_27  and  N_28
REMARK   21  A    between atoms: C_29  and  C_31
REMARK   22  A    between atoms: C_31  and  N_32
REMARK   23  A    between atoms: C_33  and  C_35
REMARK   24  A    between atoms: C_35  and  C_37
REMARK   25  A    between atoms: C_35  and  N_39
REMARK   26  A    between atoms: C_37  and  S_38
REMARK   27  A    between atoms: C_40  and  C_42
REMARK   28  A    between atoms: C_42  and  C_43
REMARK   29  A    between atoms: C_43  and  C_44
REMARK   30  A    between atoms: C_44  and  N_46
REMARK   31  A    between atoms: C_44  and  C_47
REMARK   32  A    between atoms: C_47  and  O_48
REMARK   33  A    between atoms: C_50  and  O_51
REMARK                            x       y       z     vdW  Elec       q    Type
REMARK                         _______ _______ _______ _____ _____    ______ ____
ROOT
ATOM      1  N   UNK     1       5.367  -2.386  24.882  0.00  0.00    -0.316 NA
ATOM      2  H   UNK     1       4.596  -2.621  24.258  0.00  0.00    +0.122 HD
ENDROOT
BRANCH   1   3
ATOM      3  C   UNK     1       6.312  -1.501  24.201  0.00  0.00    +0.082 C 
BRANCH   3   4
ATOM      4  C   UNK     1       6.378  -1.847  22.712  0.00  0.00    +0.034 C 
BRANCH   4   5
ATOM      5  C   UNK     1       7.489  -2.846  22.402  0.00  0.00    +0.105 C 
BRANCH   5   6
ATOM      6  N   UNK     1       7.051  -4.223  22.523  0.00  0.00    -0.314 N 
ATOM      7  H   UNK     1       7.584  -4.870  23.099  0.00  0.00    +0.149 HD
ATOM      8  C   UNK     1       6.166  -4.769  21.621  0.00  0.00    +0.230 C 
ATOM      9  O   UNK     1       5.731  -4.172  20.644  0.00  0.00    -0.274 OA
BRANCH   8  10
ATOM     10  C   UNK     1       5.855  -6.242  21.885  0.00  0.00    +0.200 C 
BRANCH  10  11
ATOM     11  N   UNK     1       5.315  -6.408  23.220  0.00  0.00    -0.305 N 
ATOM     12  H   UNK     1       5.979  -6.615  23.963  0.00  0.00    +0.149 HD
ATOM     13  C   UNK     1       4.018  -6.101  23.550  0.00  0.00    +0.235 C 
ATOM     14  O   UNK     1       3.217  -5.664  22.722  0.00  0.00    -0.274 OA
BRANCH  13  15
ATOM     15  C   UNK     1       3.651  -6.283  25.044  0.00  0.00    +0.168 C 
BRANCH  15  16
ATOM     16  N   UNK     1       4.533  -5.399  25.827  0.00  0.00    -0.303 N 
ATOM     17  H   UNK     1       4.564  -4.416  25.568  0.00  0.00    +0.149 HD
ATOM     18  C   UNK     1       5.329  -5.904  26.820  0.00  0.00    +0.214 C 
ATOM     19  O   UNK     1       5.303  -7.089  27.138  0.00  0.00    -0.276 OA
BRANCH  18  20
ATOM     20  C   UNK     1       6.235  -4.904  27.504  0.00  0.00    +0.098 C 
BRANCH  20  21
ATOM     21  C   UNK     1       7.701  -5.159  27.126  0.00  0.00    +0.039 C 
BRANCH  21  22
ATOM     22  C   UNK     1       8.185  -4.329  25.924  0.00  0.00    +0.161 C 
BRANCH  22  23
ATOM     23  N   UNK     1       8.587  -2.957  26.354  0.00  0.00    -0.318 NA
ATOM     24  H   UNK     1       7.819  -2.580  26.922  0.00  0.00    +0.119 HD
ATOM     25  H   UNK     1       9.351  -3.048  27.028  0.00  0.00    +0.119 HD
ENDBRANCH  22  23
BRANCH  22  26
ATOM     26  C   UNK     1       9.403  -5.013  25.284  0.00  0.00    +0.322 C 
ATOM     27  O   UNK     1      10.220  -4.470  24.559  0.00  0.00    -0.249 OA
BRANCH  26  28
ATOM     28  O   UNK     1       9.457  -6.329  25.620  0.00  0.00    -0.480 OA
ATOM     29  H   UNK     1       8.901  -6.432  26.430  0.00  0.00    +0.295 HD
ENDBRANCH  26  28
ENDBRANCH  22  26
ENDBRANCH  21  22
ENDBRANCH  20  21
ENDBRANCH  18  20
ENDBRANCH  15  16
BRANCH  15  30
ATOM     30  C   UNK     1       2.175  -5.995  25.382  0.00  0.00    +0.097 C 
BRANCH  30  31
ATOM     31  S   UNK     1       0.996  -7.358  25.112  0.00  0.00    -0.176 S 
ATOM     32  H   UNK     1       0.164  -6.671  24.312  0.00  0.00    +0.102 HD
ENDBRANCH  30  31
ENDBRANCH  15  30
ENDBRANCH  13  15
ENDBRANCH  10  11
ENDBRANCH   8  10
ENDBRANCH   5   6
ENDBRANCH   4   5
ENDBRANCH   3   4
ENDBRANCH   1   3
BRANCH   1  33
ATOM     33  C   UNK     1       4.839  -1.754  26.091  0.00  0.00    +0.081 C 
BRANCH  33  34
ATOM     34  C   UNK     1       5.972  -1.184  26.952  0.00  0.00    +0.017 C 
BRANCH  34  35
ATOM     35  C   UNK     1       5.629   0.115  27.699  0.00  0.00    +0.020 C 
BRANCH  35  36
ATOM     36  C   UNK     1       6.865   0.821  28.248  0.00  0.00    +0.104 C 
BRANCH  36  38
ATOM     37  C   UNK     1       6.712   3.265  28.265  0.00  0.00    +0.230 C 
ATOM     38  N   UNK     1       7.113   2.106  27.626  0.00  0.00    -0.314 N 
ATOM     39  H   UNK     1       7.821   2.193  26.897  0.00  0.00    +0.149 HD
ATOM     40  O   UNK     1       6.144   3.275  29.355  0.00  0.00    -0.274 OA
BRANCH  37  41
ATOM     41  C   UNK     1       7.089   4.560  27.548  0.00  0.00    +0.200 C 
BRANCH  41  43
ATOM     42  C   UNK     1       8.141   4.953  25.374  0.00  0.00    +0.235 C 
ATOM     43  N   UNK     1       7.099   4.398  26.100  0.00  0.00    -0.305 N 
ATOM     44  H   UNK     1       6.205   4.292  25.629  0.00  0.00    +0.149 HD
ATOM     45  O   UNK     1       8.992   5.630  25.941  0.00  0.00    -0.274 OA
BRANCH  42  46
ATOM     46  C   UNK     1       8.053   4.778  23.830  0.00  0.00    +0.168 C 
BRANCH  46  48
ATOM     47  C   UNK     1       8.625   2.818  22.389  0.00  0.00    +0.214 C 
ATOM     48  N   UNK     1       8.968   3.697  23.389  0.00  0.00    -0.303 N 
ATOM     49  H   UNK     1       9.911   3.696  23.759  0.00  0.00    +0.149 HD
ATOM     50  O   UNK     1       7.546   2.834  21.806  0.00  0.00    -0.276 OA
BRANCH  47  51
ATOM     51  C   UNK     1       9.678   1.789  22.036  0.00  0.00    +0.098 C 
BRANCH  51  52
ATOM     52  C   UNK     1       9.359   0.371  22.521  0.00  0.00    +0.039 C 
BRANCH  52  53
ATOM     53  C   UNK     1       9.998  -0.059  23.852  0.00  0.00    +0.161 C 
BRANCH  53  54
ATOM     54  N   UNK     1      10.217  -1.529  23.953  0.00  0.00    -0.318 NA
ATOM     55  H   UNK     1       9.336  -2.029  23.807  0.00  0.00    +0.119 HD
ATOM     56  H   UNK     1      10.806  -1.814  23.164  0.00  0.00    +0.119 HD
ENDBRANCH  53  54
BRANCH  53  57
ATOM     57  C   UNK     1       9.197   0.437  25.069  0.00  0.00    +0.322 C 
ATOM     58  O   UNK     1       8.239   1.196  25.008  0.00  0.00    -0.249 OA
BRANCH  57  59
ATOM     59  O   UNK     1       9.682  -0.076  26.228  0.00  0.00    -0.480 OA
ATOM     60  H   UNK     1       9.566  -1.056  26.168  0.00  0.00    +0.295 HD
ENDBRANCH  57  59
ENDBRANCH  53  57
ENDBRANCH  52  53
ENDBRANCH  51  52
ENDBRANCH  47  51
ENDBRANCH  46  48
BRANCH  46  61
ATOM     61  C   UNK     1       8.387   6.095  23.097  0.00  0.00    +0.097 C 
BRANCH  61  62
ATOM     62  S   UNK     1       7.123   6.752  21.954  0.00  0.00    -0.176 S 
ATOM     63  H   UNK     1       7.846   7.773  21.476  0.00  0.00    +0.102 HD
ENDBRANCH  61  62
ENDBRANCH  46  61
ENDBRANCH  42  46
ENDBRANCH  41  43
ENDBRANCH  37  41
ENDBRANCH  36  38
ENDBRANCH  35  36
ENDBRANCH  34  35
ENDBRANCH  33  34
ENDBRANCH   1  33
TORSDOF 33
ENDMDL
MODEL 6
REMARK VINA RESULT:      -5.2      2.062      8.538
REMARK  Name = 
REMARK  33 active torsions:
REMARK  status: ('A' for Active; 'I' for Inactive)
REMARK    1  A    between atoms: N_1  and  C_2
REMARK    2  A    between atoms: C_2  and  C_4
REMARK    3  A    between atoms: C_2  and  C_50
REMARK    4  A    between atoms: C_4  and  C_5
REMARK    5  A    between atoms: C_5  and  C_6
REMARK    6  A    between atoms: N_8  and  C_9
REMARK    7  A    between atoms: C_9  and  C_11
REMARK    8  A    between atoms: C_9  and  C_13
REMARK    9  A    between atoms: C_11  and  S_12
REMARK   10  A    between atoms: N_15  and  C_16
REMARK   11  A    between atoms: C_16  and  C_17
REMARK   12  A    between atoms: N_19  and  C_20
REMARK   13  A    between atoms: C_20  and  C_21
REMARK   14  A    between atoms: C_21  and  C_22
REMARK   15  A    between atoms: C_22  and  C_23
REMARK   16  A    between atoms: C_23  and  N_24
REMARK   17  A    between atoms: N_24  and  C_25
REMARK   18  A    between atoms: C_25  and  C_26
REMARK   19  A    between atoms: C_26  and  C_27
REMARK   20  A    between atoms: C_27  and  N_28
REMARK   21  A    between atoms: C_29  and  C_31
REMARK   22  A    between atoms: C_31  and  N_32
REMARK   23  A    between atoms: C_33  and  C_35
REMARK   24  A    between atoms: C_35  and  C_37
REMARK   25  A    between atoms: C_35  and  N_39
REMARK   26  A    between atoms: C_37  and  S_38
REMARK   27  A    between atoms: C_40  and  C_42
REMARK   28  A    between atoms: C_42  and  C_43
REMARK   29  A    between atoms: C_43  and  C_44
REMARK   30  A    between atoms: C_44  and  N_46
REMARK   31  A    between atoms: C_44  and  C_47
REMARK   32  A    between atoms: C_47  and  O_48
REMARK   33  A    between atoms: C_50  and  O_51
REMARK                            x       y       z     vdW  Elec       q    Type
REMARK                         _______ _______ _______ _____ _____    ______ ____
ROOT
ATOM      1  N   UNK     1       9.074   2.072  21.581  0.00  0.00    -0.316 NA
ATOM      2  H   UNK     1       9.201   2.668  20.764  0.00  0.00    +0.122 HD
ENDROOT
BRANCH   1   3
ATOM      3  C   UNK     1       8.786   0.700  21.162  0.00  0.00    +0.082 C 
BRANCH   3   4
ATOM      4  C   UNK     1       9.845  -0.254  21.718  0.00  0.00    +0.034 C 
BRANCH   4   5
ATOM      5  C   UNK     1       9.303  -1.667  21.909  0.00  0.00    +0.105 C 
BRANCH   5   6
ATOM      6  N   UNK     1       7.855  -1.705  21.971  0.00  0.00    -0.314 N 
ATOM      7  H   UNK     1       7.335  -0.839  22.081  0.00  0.00    +0.149 HD
ATOM      8  C   UNK     1       7.186  -2.878  22.245  0.00  0.00    +0.230 C 
ATOM      9  O   UNK     1       7.742  -3.938  22.501  0.00  0.00    -0.274 OA
BRANCH   8  10
ATOM     10  C   UNK     1       5.668  -2.713  22.312  0.00  0.00    +0.200 C 
BRANCH  10  11
ATOM     11  N   UNK     1       5.136  -3.441  23.448  0.00  0.00    -0.305 N 
ATOM     12  H   UNK     1       5.066  -2.935  24.328  0.00  0.00    +0.149 HD
ATOM     13  C   UNK     1       4.545  -4.676  23.340  0.00  0.00    +0.235 C 
ATOM     14  O   UNK     1       4.432  -5.257  22.259  0.00  0.00    -0.274 OA
BRANCH  13  15
ATOM     15  C   UNK     1       3.977  -5.260  24.657  0.00  0.00    +0.168 C 
BRANCH  15  16
ATOM     16  N   UNK     1       4.867  -4.831  25.751  0.00  0.00    -0.303 N 
ATOM     17  H   UNK     1       5.051  -3.836  25.845  0.00  0.00    +0.149 HD
ATOM     18  C   UNK     1       5.475  -5.753  26.562  0.00  0.00    +0.214 C 
ATOM     19  O   UNK     1       5.264  -6.956  26.454  0.00  0.00    -0.276 OA
BRANCH  18  20
ATOM     20  C   UNK     1       6.415  -5.186  27.604  0.00  0.00    +0.098 C 
BRANCH  20  21
ATOM     21  C   UNK     1       7.869  -5.275  27.122  0.00  0.00    +0.039 C 
BRANCH  21  22
ATOM     22  C   UNK     1       8.093  -4.692  25.716  0.00  0.00    +0.161 C 
BRANCH  22  23
ATOM     23  N   UNK     1       7.577  -3.294  25.633  0.00  0.00    -0.318 NA
ATOM     24  H   UNK     1       6.999  -3.133  26.467  0.00  0.00    +0.119 HD
ATOM     25  H   UNK     1       8.366  -2.657  25.772  0.00  0.00    +0.119 HD
ENDBRANCH  22  23
BRANCH  22  26
ATOM     26  C   UNK     1       9.596  -4.673  25.400  0.00  0.00    +0.322 C 
ATOM     27  O   UNK     1      10.450  -5.324  25.978  0.00  0.00    -0.249 OA
BRANCH  26  28
ATOM     28  O   UNK     1       9.870  -3.815  24.382  0.00  0.00    -0.480 OA
ATOM     29  H   UNK     1       9.138  -3.152  24.372  0.00  0.00    +0.295 HD
ENDBRANCH  26  28
ENDBRANCH  22  26
ENDBRANCH  21  22
ENDBRANCH  20  21
ENDBRANCH  18  20
ENDBRANCH  15  16
BRANCH  15  30
ATOM     30  C   UNK     1       2.523  -4.852  24.965  0.00  0.00    +0.097 C 
BRANCH  30  31
ATOM     31  S   UNK     1       2.291  -3.347  25.966  0.00  0.00    -0.176 S 
ATOM     32  H   UNK     1       3.117  -3.709  26.962  0.00  0.00    +0.102 HD
ENDBRANCH  30  31
ENDBRANCH  15  30
ENDBRANCH  13  15
ENDBRANCH  10  11
ENDBRANCH   8  10
ENDBRANCH   5   6
ENDBRANCH   4   5
ENDBRANCH   3   4
ENDBRANCH   1   3
BRANCH   1  33
ATOM     33  C   UNK     1      10.279   2.122  22.409  0.00  0.00    +0.081 C 
BRANCH  33  34
ATOM     34  C   UNK     1      10.115   3.130  23.554  0.00  0.00    +0.017 C 
BRANCH  34  35
ATOM     35  C   UNK     1      11.260   4.147  23.692  0.00  0.00    +0.020 C 
BRANCH  35  36
ATOM     36  C   UNK     1      10.768   5.590  23.674  0.00  0.00    +0.104 C 
BRANCH  36  38
ATOM     37  C   UNK     1       8.524   6.544  23.451  0.00  0.00    +0.230 C 
ATOM     38  N   UNK     1       9.540   5.768  22.925  0.00  0.00    -0.314 N 
ATOM     39  H   UNK     1       9.524   5.590  21.921  0.00  0.00    +0.149 HD
ATOM     40  O   UNK     1       8.597   7.108  24.541  0.00  0.00    -0.274 OA
BRANCH  37  41
ATOM     41  C   UNK     1       7.308   6.715  22.542  0.00  0.00    +0.200 C 
BRANCH  41  43
ATOM     42  C   UNK     1       6.022   4.670  22.933  0.00  0.00    +0.235 C 
ATOM     43  N   UNK     1       6.130   6.044  23.078  0.00  0.00    -0.305 N 
ATOM     44  H   UNK     1       5.268   6.577  23.137  0.00  0.00    +0.149 HD
ATOM     45  O   UNK     1       6.871   4.051  22.300  0.00  0.00    -0.274 OA
BRANCH  42  46
ATOM     46  C   UNK     1       4.714   4.036  23.488  0.00  0.00    +0.168 C 
BRANCH  46  48
ATOM     47  C   UNK     1       5.334   2.824  25.582  0.00  0.00    +0.214 C 
ATOM     48  N   UNK     1       5.029   2.799  24.242  0.00  0.00    -0.303 N 
ATOM     49  H   UNK     1       4.894   1.912  23.773  0.00  0.00    +0.149 HD
ATOM     50  O   UNK     1       5.396   3.851  26.250  0.00  0.00    -0.276 OA
BRANCH  47  51
ATOM     51  C   UNK     1       5.606   1.474  26.215  0.00  0.00    +0.098 C 
BRANCH  51  52
ATOM     52  C   UNK     1       7.078   1.226  26.557  0.00  0.00    +0.039 C 
BRANCH  52  53
ATOM     53  C   UNK     1       7.976   0.736  25.409  0.00  0.00    +0.161 C 
BRANCH  53  54
ATOM     54  N   UNK     1       7.211   0.193  24.252  0.00  0.00    -0.318 NA
ATOM     55  H   UNK     1       7.595  -0.712  23.968  0.00  0.00    +0.119 HD
ATOM     56  H   UNK     1       6.263  -0.023  24.575  0.00  0.00    +0.119 HD
ENDBRANCH  53  54
BRANCH  53  57
ATOM     57  C   UNK     1       9.015  -0.297  25.883  0.00  0.00    +0.322 C 
ATOM     58  O   UNK     1       9.716  -0.968  25.137  0.00  0.00    -0.249 OA
BRANCH  57  59
ATOM     59  O   UNK     1       9.063  -0.372  27.236  0.00  0.00    -0.480 OA
ATOM     60  H   UNK     1       9.618  -1.161  27.451  0.00  0.00    +0.295 HD
ENDBRANCH  57  59
ENDBRANCH  53  57
ENDBRANCH  52  53
ENDBRANCH  51  52
ENDBRANCH  47  51
ENDBRANCH  46  48
BRANCH  46  61
ATOM     61  C   UNK     1       3.714   3.731  22.352  0.00  0.00    +0.097 C 
BRANCH  61  62
ATOM     62  S   UNK     1       2.673   5.113  21.769  0.00  0.00    -0.176 S 
ATOM     63  H   UNK     1       2.023   5.329  22.920  0.00  0.00    +0.102 HD
ENDBRANCH  61  62
ENDBRANCH  46  61
ENDBRANCH  42  46
ENDBRANCH  41  43
ENDBRANCH  37  41
ENDBRANCH  36  38
ENDBRANCH  35  36
ENDBRANCH  34  35
ENDBRANCH  33  34
ENDBRANCH   1  33
TORSDOF 33
ENDMDL
MODEL 7
REMARK VINA RESULT:      -5.2      2.082      8.657
REMARK  Name = 
REMARK  33 active torsions:
REMARK  status: ('A' for Active; 'I' for Inactive)
REMARK    1  A    between atoms: N_1  and  C_2
REMARK    2  A    between atoms: C_2  and  C_4
REMARK    3  A    between atoms: C_2  and  C_50
REMARK    4  A    between atoms: C_4  and  C_5
REMARK    5  A    between atoms: C_5  and  C_6
REMARK    6  A    between atoms: N_8  and  C_9
REMARK    7  A    between atoms: C_9  and  C_11
REMARK    8  A    between atoms: C_9  and  C_13
REMARK    9  A    between atoms: C_11  and  S_12
REMARK   10  A    between atoms: N_15  and  C_16
REMARK   11  A    between atoms: C_16  and  C_17
REMARK   12  A    between atoms: N_19  and  C_20
REMARK   13  A    between atoms: C_20  and  C_21
REMARK   14  A    between atoms: C_21  and  C_22
REMARK   15  A    between atoms: C_22  and  C_23
REMARK   16  A    between atoms: C_23  and  N_24
REMARK   17  A    between atoms: N_24  and  C_25
REMARK   18  A    between atoms: C_25  and  C_26
REMARK   19  A    between atoms: C_26  and  C_27
REMARK   20  A    between atoms: C_27  and  N_28
REMARK   21  A    between atoms: C_29  and  C_31
REMARK   22  A    between atoms: C_31  and  N_32
REMARK   23  A    between atoms: C_33  and  C_35
REMARK   24  A    between atoms: C_35  and  C_37
REMARK   25  A    between atoms: C_35  and  N_39
REMARK   26  A    between atoms: C_37  and  S_38
REMARK   27  A    between atoms: C_40  and  C_42
REMARK   28  A    between atoms: C_42  and  C_43
REMARK   29  A    between atoms: C_43  and  C_44
REMARK   30  A    between atoms: C_44  and  N_46
REMARK   31  A    between atoms: C_44  and  C_47
REMARK   32  A    between atoms: C_47  and  O_48
REMARK   33  A    between atoms: C_50  and  O_51
REMARK                            x       y       z     vdW  Elec       q    Type
REMARK                         _______ _______ _______ _____ _____    ______ ____
ROOT
ATOM      1  N   UNK     1       8.573   0.281  21.951  0.00  0.00    -0.316 NA
ATOM      2  H   UNK     1       7.968   0.405  21.141  0.00  0.00    +0.122 HD
ENDROOT
BRANCH   1   3
ATOM      3  C   UNK     1       9.066  -1.096  22.003  0.00  0.00    +0.082 C 
BRANCH   3   4
ATOM      4  C   UNK     1       8.561  -1.789  23.270  0.00  0.00    +0.034 C 
BRANCH   4   5
ATOM      5  C   UNK     1       9.596  -2.748  23.852  0.00  0.00    +0.105 C 
BRANCH   5   6
ATOM      6  N   UNK     1       9.172  -3.327  25.112  0.00  0.00    -0.314 N 
ATOM      7  H   UNK     1       9.203  -2.765  25.958  0.00  0.00    +0.149 HD
ATOM      8  C   UNK     1       9.074  -4.692  25.269  0.00  0.00    +0.230 C 
ATOM      9  O   UNK     1       9.376  -5.503  24.404  0.00  0.00    -0.274 OA
BRANCH   8  10
ATOM     10  C   UNK     1       8.655  -5.116  26.677  0.00  0.00    +0.200 C 
BRANCH  10  11
ATOM     11  N   UNK     1       7.229  -4.926  26.853  0.00  0.00    -0.305 N 
ATOM     12  H   UNK     1       6.742  -4.396  26.135  0.00  0.00    +0.149 HD
ATOM     13  C   UNK     1       6.494  -5.588  27.806  0.00  0.00    +0.235 C 
ATOM     14  O   UNK     1       7.006  -6.392  28.587  0.00  0.00    -0.274 OA
BRANCH  13  15
ATOM     15  C   UNK     1       4.972  -5.302  27.790  0.00  0.00    +0.168 C 
BRANCH  15  16
ATOM     16  N   UNK     1       4.619  -4.855  26.431  0.00  0.00    -0.303 N 
ATOM     17  H   UNK     1       5.007  -5.377  25.649  0.00  0.00    +0.149 HD
ATOM     18  C   UNK     1       3.854  -3.736  26.237  0.00  0.00    +0.214 C 
ATOM     19  O   UNK     1       3.385  -3.096  27.173  0.00  0.00    -0.276 OA
BRANCH  18  20
ATOM     20  C   UNK     1       3.618  -3.348  24.794  0.00  0.00    +0.098 C 
BRANCH  20  21
ATOM     21  C   UNK     1       4.954  -3.187  24.055  0.00  0.00    +0.039 C 
BRANCH  21  22
ATOM     22  C   UNK     1       5.110  -4.125  22.845  0.00  0.00    +0.161 C 
BRANCH  22  23
ATOM     23  N   UNK     1       5.598  -3.373  21.651  0.00  0.00    -0.318 NA
ATOM     24  H   UNK     1       6.351  -2.753  21.970  0.00  0.00    +0.119 HD
ATOM     25  H   UNK     1       6.085  -4.033  21.039  0.00  0.00    +0.119 HD
ENDBRANCH  22  23
BRANCH  22  26
ATOM     26  C   UNK     1       6.129  -5.225  23.175  0.00  0.00    +0.322 C 
ATOM     27  O   UNK     1       6.051  -6.008  24.107  0.00  0.00    -0.249 OA
BRANCH  26  28
ATOM     28  O   UNK     1       7.161  -5.217  22.289  0.00  0.00    -0.480 OA
ATOM     29  H   UNK     1       6.754  -5.234  21.389  0.00  0.00    +0.295 HD
ENDBRANCH  26  28
ENDBRANCH  22  26
ENDBRANCH  21  22
ENDBRANCH  20  21
ENDBRANCH  18  20
ENDBRANCH  15  16
BRANCH  15  30
ATOM     30  C   UNK     1       4.090  -6.496  28.203  0.00  0.00    +0.097 C 
BRANCH  30  31
ATOM     31  S   UNK     1       3.560  -6.557  29.945  0.00  0.00    -0.176 S 
ATOM     32  H   UNK     1       2.313  -6.107  29.732  0.00  0.00    +0.102 HD
ENDBRANCH  30  31
ENDBRANCH  15  30
ENDBRANCH  13  15
ENDBRANCH  10  11
ENDBRANCH   8  10
ENDBRANCH   5   6
ENDBRANCH   4   5
ENDBRANCH   3   4
ENDBRANCH   1   3
BRANCH   1  33
ATOM     33  C   UNK     1       9.683   1.230  21.879  0.00  0.00    +0.081 C 
BRANCH  33  34
ATOM     34  C   UNK     1      10.053   1.748  23.274  0.00  0.00    +0.017 C 
BRANCH  34  35
ATOM     35  C   UNK     1      10.882   3.043  23.288  0.00  0.00    +0.020 C 
BRANCH  35  36
ATOM     36  C   UNK     1      10.087   4.244  23.786  0.00  0.00    +0.104 C 
BRANCH  36  38
ATOM     37  C   UNK     1       8.300   5.735  23.025  0.00  0.00    +0.230 C 
ATOM     38  N   UNK     1       8.868   4.475  23.036  0.00  0.00    -0.314 N 
ATOM     39  H   UNK     1       8.594   3.829  22.296  0.00  0.00    +0.149 HD
ATOM     40  O   UNK     1       8.773   6.697  23.626  0.00  0.00    -0.274 OA
BRANCH  37  41
ATOM     41  C   UNK     1       7.059   5.874  22.145  0.00  0.00    +0.200 C 
BRANCH  41  43
ATOM     42  C   UNK     1       5.023   4.868  23.057  0.00  0.00    +0.235 C 
ATOM     43  N   UNK     1       6.163   4.732  22.282  0.00  0.00    -0.305 N 
ATOM     44  H   UNK     1       6.565   3.803  22.201  0.00  0.00    +0.149 HD
ATOM     45  O   UNK     1       4.819   5.909  23.672  0.00  0.00    -0.274 OA
BRANCH  42  46
ATOM     46  C   UNK     1       4.144   3.590  23.192  0.00  0.00    +0.168 C 
BRANCH  46  48
ATOM     47  C   UNK     1       5.248   1.899  24.662  0.00  0.00    +0.214 C 
ATOM     48  N   UNK     1       5.005   2.403  23.407  0.00  0.00    -0.303 N 
ATOM     49  H   UNK     1       5.314   1.890  22.590  0.00  0.00    +0.149 HD
ATOM     50  O   UNK     1       4.806   2.393  25.694  0.00  0.00    -0.276 OA
BRANCH  47  51
ATOM     51  C   UNK     1       6.126   0.665  24.712  0.00  0.00    +0.098 C 
BRANCH  51  52
ATOM     52  C   UNK     1       7.424   0.848  25.505  0.00  0.00    +0.039 C 
BRANCH  52  53
ATOM     53  C   UNK     1       7.544   0.055  26.816  0.00  0.00    +0.161 C 
BRANCH  53  54
ATOM     54  N   UNK     1       8.914  -0.480  27.059  0.00  0.00    -0.318 NA
ATOM     55  H   UNK     1       9.439  -0.514  26.182  0.00  0.00    +0.119 HD
ATOM     56  H   UNK     1       9.419   0.201  27.634  0.00  0.00    +0.119 HD
ENDBRANCH  53  54
BRANCH  53  57
ATOM     57  C   UNK     1       6.512  -1.085  26.905  0.00  0.00    +0.322 C 
ATOM     58  O   UNK     1       6.682  -2.210  26.458  0.00  0.00    -0.249 OA
BRANCH  57  59
ATOM     59  O   UNK     1       5.385  -0.688  27.546  0.00  0.00    -0.480 OA
ATOM     60  H   UNK     1       4.743  -0.425  26.843  0.00  0.00    +0.295 HD
ENDBRANCH  57  59
ENDBRANCH  53  57
ENDBRANCH  52  53
ENDBRANCH  51  52
ENDBRANCH  47  51
ENDBRANCH  46  48
BRANCH  46  61
ATOM     61  C   UNK     1       3.253   3.390  21.948  0.00  0.00    +0.097 C 
BRANCH  61  62
ATOM     62  S   UNK     1       2.050   4.709  21.567  0.00  0.00    -0.176 S 
ATOM     63  H   UNK     1       1.499   4.129  20.493  0.00  0.00    +0.102 HD
ENDBRANCH  61  62
ENDBRANCH  46  61
ENDBRANCH  42  46
ENDBRANCH  41  43
ENDBRANCH  37  41
ENDBRANCH  36  38
ENDBRANCH  35  36
ENDBRANCH  34  35
ENDBRANCH  33  34
ENDBRANCH   1  33
TORSDOF 33
ENDMDL
MODEL 8
REMARK VINA RESULT:      -5.2      1.822      2.743
REMARK  Name = 
REMARK  33 active torsions:
REMARK  status: ('A' for Active; 'I' for Inactive)
REMARK    1  A    between atoms: N_1  and  C_2
REMARK    2  A    between atoms: C_2  and  C_4
REMARK    3  A    between atoms: C_2  and  C_50
REMARK    4  A    between atoms: C_4  and  C_5
REMARK    5  A    between atoms: C_5  and  C_6
REMARK    6  A    between atoms: N_8  and  C_9
REMARK    7  A    between atoms: C_9  and  C_11
REMARK    8  A    between atoms: C_9  and  C_13
REMARK    9  A    between atoms: C_11  and  S_12
REMARK   10  A    between atoms: N_15  and  C_16
REMARK   11  A    between atoms: C_16  and  C_17
REMARK   12  A    between atoms: N_19  and  C_20
REMARK   13  A    between atoms: C_20  and  C_21
REMARK   14  A    between atoms: C_21  and  C_22
REMARK   15  A    between atoms: C_22  and  C_23
REMARK   16  A    between atoms: C_23  and  N_24
REMARK   17  A    between atoms: N_24  and  C_25
REMARK   18  A    between atoms: C_25  and  C_26
REMARK   19  A    between atoms: C_26  and  C_27
REMARK   20  A    between atoms: C_27  and  N_28
REMARK   21  A    between atoms: C_29  and  C_31
REMARK   22  A    between atoms: C_31  and  N_32
REMARK   23  A    between atoms: C_33  and  C_35
REMARK   24  A    between atoms: C_35  and  C_37
REMARK   25  A    between atoms: C_35  and  N_39
REMARK   26  A    between atoms: C_37  and  S_38
REMARK   27  A    between atoms: C_40  and  C_42
REMARK   28  A    between atoms: C_42  and  C_43
REMARK   29  A    between atoms: C_43  and  C_44
REMARK   30  A    between atoms: C_44  and  N_46
REMARK   31  A    between atoms: C_44  and  C_47
REMARK   32  A    between atoms: C_47  and  O_48
REMARK   33  A    between atoms: C_50  and  O_51
REMARK                            x       y       z     vdW  Elec       q    Type
REMARK                         _______ _______ _______ _____ _____    ______ ____
ROOT
ATOM      1  N   UNK     1       9.668   2.215  21.839  0.00  0.00    -0.316 NA
ATOM      2  H   UNK     1      10.275   2.395  21.040  0.00  0.00    +0.122 HD
ENDROOT
BRANCH   1   3
ATOM      3  C   UNK     1       8.466   1.502  21.405  0.00  0.00    +0.082 C 
BRANCH   3   4
ATOM      4  C   UNK     1       7.217   2.317  21.749  0.00  0.00    +0.034 C 
BRANCH   4   5
ATOM      5  C   UNK     1       7.564   3.714  22.256  0.00  0.00    +0.105 C 
BRANCH   5   6
ATOM      6  N   UNK     1       7.173   3.920  23.636  0.00  0.00    -0.314 N 
ATOM      7  H   UNK     1       7.547   3.312  24.360  0.00  0.00    +0.149 HD
ATOM      8  C   UNK     1       6.057   4.662  23.956  0.00  0.00    +0.230 C 
ATOM      9  O   UNK     1       5.300   5.149  23.126  0.00  0.00    -0.274 OA
BRANCH   8  10
ATOM     10  C   UNK     1       5.780   4.732  25.458  0.00  0.00    +0.200 C 
BRANCH  10  11
ATOM     11  N   UNK     1       4.983   3.594  25.872  0.00  0.00    -0.305 N 
ATOM     12  H   UNK     1       5.472   2.836  26.343  0.00  0.00    +0.149 HD
ATOM     13  C   UNK     1       3.610   3.588  25.847  0.00  0.00    +0.235 C 
ATOM     14  O   UNK     1       2.957   4.558  25.459  0.00  0.00    -0.274 OA
BRANCH  13  15
ATOM     15  C   UNK     1       2.940   2.303  26.395  0.00  0.00    +0.168 C 
BRANCH  15  16
ATOM     16  N   UNK     1       3.884   1.680  27.339  0.00  0.00    -0.303 N 
ATOM     17  H   UNK     1       4.270   2.267  28.074  0.00  0.00    +0.149 HD
ATOM     18  C   UNK     1       4.274   0.376  27.183  0.00  0.00    +0.214 C 
ATOM     19  O   UNK     1       3.818  -0.339  26.298  0.00  0.00    -0.276 OA
BRANCH  18  20
ATOM     20  C   UNK     1       5.296  -0.123  28.181  0.00  0.00    +0.098 C 
BRANCH  20  21
ATOM     21  C   UNK     1       6.638   0.595  27.982  0.00  0.00    +0.039 C 
BRANCH  21  22
ATOM     22  C   UNK     1       7.464   0.049  26.805  0.00  0.00    +0.161 C 
BRANCH  22  23
ATOM     23  N   UNK     1       6.932  -1.270  26.349  0.00  0.00    -0.318 NA
ATOM     24  H   UNK     1       6.153  -1.077  25.708  0.00  0.00    +0.119 HD
ATOM     25  H   UNK     1       7.632  -1.700  25.740  0.00  0.00    +0.119 HD
ENDBRANCH  22  23
BRANCH  22  26
ATOM     26  C   UNK     1       7.394   1.032  25.627  0.00  0.00    +0.322 C 
ATOM     27  O   UNK     1       6.563   1.011  24.734  0.00  0.00    -0.249 OA
BRANCH  26  28
ATOM     28  O   UNK     1       8.399   1.945  25.692  0.00  0.00    -0.480 OA
ATOM     29  H   UNK     1       9.243   1.436  25.623  0.00  0.00    +0.295 HD
ENDBRANCH  26  28
ENDBRANCH  22  26
ENDBRANCH  21  22
ENDBRANCH  20  21
ENDBRANCH  18  20
ENDBRANCH  15  16
BRANCH  15  30
ATOM     30  C   UNK     1       1.577   2.531  27.078  0.00  0.00    +0.097 C 
BRANCH  30  31
ATOM     31  S   UNK     1       1.593   3.481  28.633  0.00  0.00    -0.176 S 
ATOM     32  H   UNK     1       1.524   4.694  28.061  0.00  0.00    +0.102 HD
ENDBRANCH  30  31
ENDBRANCH  15  30
ENDBRANCH  13  15
ENDBRANCH  10  11
ENDBRANCH   8  10
ENDBRANCH   5   6
ENDBRANCH   4   5
ENDBRANCH   3   4
ENDBRANCH   1   3
BRANCH   1  33
ATOM     33  C   UNK     1      10.400   1.441  22.840  0.00  0.00    +0.081 C 
BRANCH  33  34
ATOM     34  C   UNK     1      10.118  -0.059  22.688  0.00  0.00    +0.017 C 
BRANCH  34  35
ATOM     35  C   UNK     1      10.089  -0.852  24.005  0.00  0.00    +0.020 C 
BRANCH  35  36
ATOM     36  C   UNK     1       9.721  -2.317  23.801  0.00  0.00    +0.104 C 
BRANCH  36  38
ATOM     37  C   UNK     1       9.367  -4.161  25.372  0.00  0.00    +0.230 C 
ATOM     38  N   UNK     1       9.025  -2.895  24.933  0.00  0.00    -0.314 N 
ATOM     39  H   UNK     1       8.518  -2.294  25.582  0.00  0.00    +0.149 HD
ATOM     40  O   UNK     1      10.244  -4.845  24.850  0.00  0.00    -0.274 OA
BRANCH  37  41
ATOM     41  C   UNK     1       8.615  -4.637  26.614  0.00  0.00    +0.200 C 
BRANCH  41  43
ATOM     42  C   UNK     1       6.494  -5.676  27.256  0.00  0.00    +0.235 C 
ATOM     43  N   UNK     1       7.226  -4.965  26.318  0.00  0.00    -0.305 N 
ATOM     44  H   UNK     1       6.961  -5.067  25.343  0.00  0.00    +0.149 HD
ATOM     45  O   UNK     1       7.036  -6.081  28.279  0.00  0.00    -0.274 OA
BRANCH  42  46
ATOM     46  C   UNK     1       5.035  -6.028  26.845  0.00  0.00    +0.168 C 
BRANCH  46  48
ATOM     47  C   UNK     1       4.479  -6.343  24.430  0.00  0.00    +0.214 C 
ATOM     48  N   UNK     1       4.750  -5.507  25.487  0.00  0.00    -0.303 N 
ATOM     49  H   UNK     1       4.636  -4.506  25.378  0.00  0.00    +0.149 HD
ATOM     50  O   UNK     1       4.475  -7.567  24.511  0.00  0.00    -0.276 OA
BRANCH  47  51
ATOM     51  C   UNK     1       4.182  -5.656  23.113  0.00  0.00    +0.098 C 
BRANCH  51  52
ATOM     52  C   UNK     1       5.327  -5.720  22.098  0.00  0.00    +0.039 C 
BRANCH  52  53
ATOM     53  C   UNK     1       6.499  -4.750  22.325  0.00  0.00    +0.161 C 
BRANCH  53  54
ATOM     54  N   UNK     1       7.605  -5.339  23.130  0.00  0.00    -0.318 NA
ATOM     55  H   UNK     1       7.972  -4.645  23.787  0.00  0.00    +0.119 HD
ATOM     56  H   UNK     1       7.205  -6.069  23.728  0.00  0.00    +0.119 HD
ENDBRANCH  53  54
BRANCH  53  57
ATOM     57  C   UNK     1       6.043  -3.421  22.953  0.00  0.00    +0.322 C 
ATOM     58  O   UNK     1       6.163  -3.135  24.136  0.00  0.00    -0.249 OA
BRANCH  57  59
ATOM     59  O   UNK     1       5.490  -2.596  22.028  0.00  0.00    -0.480 OA
ATOM     60  H   UNK     1       6.208  -2.381  21.383  0.00  0.00    +0.295 HD
ENDBRANCH  57  59
ENDBRANCH  53  57
ENDBRANCH  52  53
ENDBRANCH  51  52
ENDBRANCH  47  51
ENDBRANCH  46  48
BRANCH  46  61
ATOM     61  C   UNK     1       4.017  -5.465  27.860  0.00  0.00    +0.097 C 
BRANCH  61  62
ATOM     62  S   UNK     1       3.719  -3.664  27.825  0.00  0.00    -0.176 S 
ATOM     63  H   UNK     1       2.883  -3.652  26.778  0.00  0.00    +0.102 HD
ENDBRANCH  61  62
ENDBRANCH  46  61
ENDBRANCH  42  46
ENDBRANCH  41  43
ENDBRANCH  37  41
ENDBRANCH  36  38
ENDBRANCH  35  36
ENDBRANCH  34  35
ENDBRANCH  33  34
ENDBRANCH   1  33
TORSDOF 33
ENDMDL
MODEL 9
REMARK VINA RESULT:      -5.1      2.156      4.164
REMARK  Name = 
REMARK  33 active torsions:
REMARK  status: ('A' for Active; 'I' for Inactive)
REMARK    1  A    between atoms: N_1  and  C_2
REMARK    2  A    between atoms: C_2  and  C_4
REMARK    3  A    between atoms: C_2  and  C_50
REMARK    4  A    between atoms: C_4  and  C_5
REMARK    5  A    between atoms: C_5  and  C_6
REMARK    6  A    between atoms: N_8  and  C_9
REMARK    7  A    between atoms: C_9  and  C_11
REMARK    8  A    between atoms: C_9  and  C_13
REMARK    9  A    between atoms: C_11  and  S_12
REMARK   10  A    between atoms: N_15  and  C_16
REMARK   11  A    between atoms: C_16  and  C_17
REMARK   12  A    between atoms: N_19  and  C_20
REMARK   13  A    between atoms: C_20  and  C_21
REMARK   14  A    between atoms: C_21  and  C_22
REMARK   15  A    between atoms: C_22  and  C_23
REMARK   16  A    between atoms: C_23  and  N_24
REMARK   17  A    between atoms: N_24  and  C_25
REMARK   18  A    between atoms: C_25  and  C_26
REMARK   19  A    between atoms: C_26  and  C_27
REMARK   20  A    between atoms: C_27  and  N_28
REMARK   21  A    between atoms: C_29  and  C_31
REMARK   22  A    between atoms: C_31  and  N_32
REMARK   23  A    between atoms: C_33  and  C_35
REMARK   24  A    between atoms: C_35  and  C_37
REMARK   25  A    between atoms: C_35  and  N_39
REMARK   26  A    between atoms: C_37  and  S_38
REMARK   27  A    between atoms: C_40  and  C_42
REMARK   28  A    between atoms: C_42  and  C_43
REMARK   29  A    between atoms: C_43  and  C_44
REMARK   30  A    between atoms: C_44  and  N_46
REMARK   31  A    between atoms: C_44  and  C_47
REMARK   32  A    between atoms: C_47  and  O_48
REMARK   33  A    between atoms: C_50  and  O_51
REMARK                            x       y       z     vdW  Elec       q    Type
REMARK                         _______ _______ _______ _____ _____    ______ ____
ROOT
ATOM      1  N   UNK     1       4.537   2.282  23.743  0.00  0.00    -0.316 NA
ATOM      2  H   UNK     1       4.138   2.799  24.526  0.00  0.00    +0.122 HD
ENDROOT
BRANCH   1   3
ATOM      3  C   UNK     1       4.854   3.197  22.646  0.00  0.00    +0.082 C 
BRANCH   3   4
ATOM      4  C   UNK     1       3.757   4.256  22.511  0.00  0.00    +0.034 C 
BRANCH   4   5
ATOM      5  C   UNK     1       3.380   4.869  23.856  0.00  0.00    +0.105 C 
BRANCH   5   6
ATOM      6  N   UNK     1       4.535   5.323  24.605  0.00  0.00    -0.314 N 
ATOM      7  H   UNK     1       5.318   5.744  24.113  0.00  0.00    +0.149 HD
ATOM      8  C   UNK     1       4.763   4.886  25.892  0.00  0.00    +0.230 C 
ATOM      9  O   UNK     1       4.062   4.066  26.470  0.00  0.00    -0.274 OA
BRANCH   8  10
ATOM     10  C   UNK     1       6.051   5.438  26.504  0.00  0.00    +0.200 C 
BRANCH  10  11
ATOM     11  N   UNK     1       7.082   5.543  25.490  0.00  0.00    -0.305 N 
ATOM     12  H   UNK     1       7.200   6.450  25.046  0.00  0.00    +0.149 HD
ATOM     13  C   UNK     1       8.014   4.561  25.260  0.00  0.00    +0.235 C 
ATOM     14  O   UNK     1       8.032   3.511  25.905  0.00  0.00    -0.274 OA
BRANCH  13  15
ATOM     15  C   UNK     1       9.075   4.890  24.181  0.00  0.00    +0.168 C 
BRANCH  15  16
ATOM     16  N   UNK     1       9.102   3.764  23.230  0.00  0.00    -0.303 N 
ATOM     17  H   UNK     1       8.220   3.479  22.814  0.00  0.00    +0.149 HD
ATOM     18  C   UNK     1      10.267   3.090  22.975  0.00  0.00    +0.214 C 
ATOM     19  O   UNK     1      11.336   3.423  23.475  0.00  0.00    -0.276 OA
BRANCH  18  20
ATOM     20  C   UNK     1      10.147   1.914  22.030  0.00  0.00    +0.098 C 
BRANCH  20  21
ATOM     21  C   UNK     1       9.475   0.726  22.732  0.00  0.00    +0.039 C 
BRANCH  21  22
ATOM     22  C   UNK     1      10.468  -0.244  23.397  0.00  0.00    +0.161 C 
BRANCH  22  23
ATOM     23  N   UNK     1      10.310  -0.230  24.881  0.00  0.00    -0.318 NA
ATOM     24  H   UNK     1      11.229  -0.009  25.282  0.00  0.00    +0.119 HD
ATOM     25  H   UNK     1       9.746   0.586  25.132  0.00  0.00    +0.119 HD
ENDBRANCH  22  23
BRANCH  22  26
ATOM     26  C   UNK     1      10.205  -1.672  22.896  0.00  0.00    +0.322 C 
ATOM     27  O   UNK     1      10.197  -2.676  23.589  0.00  0.00    -0.249 OA
BRANCH  26  28
ATOM     28  O   UNK     1       9.989  -1.687  21.554  0.00  0.00    -0.480 OA
ATOM     29  H   UNK     1      10.881  -1.699  21.129  0.00  0.00    +0.295 HD
ENDBRANCH  26  28
ENDBRANCH  22  26
ENDBRANCH  21  22
ENDBRANCH  20  21
ENDBRANCH  18  20
ENDBRANCH  15  16
BRANCH  15  30
ATOM     30  C   UNK     1       8.837   6.214  23.430  0.00  0.00    +0.097 C 
BRANCH  30  31
ATOM     31  S   UNK     1       7.555   6.200  22.135  0.00  0.00    -0.176 S 
ATOM     32  H   UNK     1       7.961   5.063  21.544  0.00  0.00    +0.102 HD
ENDBRANCH  30  31
ENDBRANCH  15  30
ENDBRANCH  13  15
ENDBRANCH  10  11
ENDBRANCH   8  10
ENDBRANCH   5   6
ENDBRANCH   4   5
ENDBRANCH   3   4
ENDBRANCH   1   3
BRANCH   1  33
ATOM     33  C   UNK     1       5.734   1.571  24.191  0.00  0.00    +0.081 C 
BRANCH  33  34
ATOM     34  C   UNK     1       5.516   0.948  25.575  0.00  0.00    +0.017 C 
BRANCH  34  35
ATOM     35  C   UNK     1       5.627  -0.585  25.622  0.00  0.00    +0.020 C 
BRANCH  35  36
ATOM     36  C   UNK     1       6.806  -1.113  24.811  0.00  0.00    +0.104 C 
BRANCH  36  38
ATOM     37  C   UNK     1       8.080  -2.789  26.062  0.00  0.00    +0.230 C 
ATOM     38  N   UNK     1       7.128  -2.496  25.104  0.00  0.00    -0.314 N 
ATOM     39  H   UNK     1       6.476  -3.237  24.848  0.00  0.00    +0.149 HD
ATOM     40  O   UNK     1       8.688  -1.930  26.697  0.00  0.00    -0.274 OA
BRANCH  37  41
ATOM     41  C   UNK     1       8.284  -4.278  26.333  0.00  0.00    +0.200 C 
BRANCH  41  43
ATOM     42  C   UNK     1       6.266  -5.351  27.208  0.00  0.00    +0.235 C 
ATOM     43  N   UNK     1       7.063  -5.044  26.116  0.00  0.00    -0.305 N 
ATOM     44  H   UNK     1       7.036  -5.679  25.325  0.00  0.00    +0.149 HD
ATOM     45  O   UNK     1       6.630  -5.045  28.339  0.00  0.00    -0.274 OA
BRANCH  42  46
ATOM     46  C   UNK     1       5.006  -6.211  26.901  0.00  0.00    +0.168 C 
BRANCH  46  48
ATOM     47  C   UNK     1       4.203  -4.743  25.046  0.00  0.00    +0.214 C 
ATOM     48  N   UNK     1       4.567  -5.987  25.503  0.00  0.00    -0.303 N 
ATOM     49  H   UNK     1       4.660  -6.756  24.850  0.00  0.00    +0.149 HD
ATOM     50  O   UNK     1       4.184  -3.736  25.747  0.00  0.00    -0.276 OA
BRANCH  47  51
ATOM     51  C   UNK     1       3.805  -4.675  23.586  0.00  0.00    +0.098 C 
BRANCH  51  52
ATOM     52  C   UNK     1       4.896  -4.127  22.662  0.00  0.00    +0.039 C 
BRANCH  52  53
ATOM     53  C   UNK     1       5.923  -5.144  22.135  0.00  0.00    +0.161 C 
BRANCH  53  54
ATOM     54  N   UNK     1       5.601  -6.552  22.501  0.00  0.00    -0.318 NA
ATOM     55  H   UNK     1       4.654  -6.788  22.192  0.00  0.00    +0.119 HD
ATOM     56  H   UNK     1       6.209  -7.166  21.951  0.00  0.00    +0.119 HD
ENDBRANCH  53  54
BRANCH  53  57
ATOM     57  C   UNK     1       7.359  -4.803  22.575  0.00  0.00    +0.322 C 
ATOM     58  O   UNK     1       8.124  -5.589  23.116  0.00  0.00    -0.249 OA
BRANCH  57  59
ATOM     59  O   UNK     1       7.677  -3.517  22.285  0.00  0.00    -0.480 OA
ATOM     60  H   UNK     1       6.831  -3.006  22.323  0.00  0.00    +0.295 HD
ENDBRANCH  57  59
ENDBRANCH  53  57
ENDBRANCH  52  53
ENDBRANCH  51  52
ENDBRANCH  47  51
ENDBRANCH  46  48
BRANCH  46  61
ATOM     61  C   UNK     1       3.858  -5.890  27.882  0.00  0.00    +0.097 C 
BRANCH  61  62
ATOM     62  S   UNK     1       3.725  -6.933  29.375  0.00  0.00    -0.176 S 
ATOM     63  H   UNK     1       2.442  -7.282  29.222  0.00  0.00    +0.102 HD
ENDBRANCH  61  62
ENDBRANCH  46  61
ENDBRANCH  42  46
ENDBRANCH  41  43
ENDBRANCH  37  41
ENDBRANCH  36  38
ENDBRANCH  35  36
ENDBRANCH  34  35
ENDBRANCH  33  34
ENDBRANCH   1  33
TORSDOF 33
ENDMDL
