MODEL 1
REMARK VINA RESULT:      -6.7      0.000      0.000
REMARK  Name = 
REMARK  12 active torsions:
REMARK  status: ('A' for Active; 'I' for Inactive)
REMARK    1  A    between atoms: C_2  and  C_3
REMARK    2  A    between atoms: C_2  and  N_7
REMARK    3  A    between atoms: C_2  and  C_11
REMARK    4  A    between atoms: C_3  and  C_4
REMARK    5  A    between atoms: C_4  and  C_5
REMARK    6  A    between atoms: C_4  and  C_6
REMARK    7  A    between atoms: C_8  and  C_9
REMARK    8  A    between atoms: N_13  and  C_14
REMARK    9  A    between atoms: C_14  and  C_16
REMARK   10  A    between atoms: C_14  and  C_23
REMARK   11  A    between atoms: C_16  and  C_17
REMARK   12  A    between atoms: C_23  and  C_25
REMARK                            x       y       z     vdW  Elec       q    Type
REMARK                         _______ _______ _______ _____ _____    ______ ____
ROOT
ATOM      1  C   UNL     1       8.837  -1.344  22.193  0.00  0.00    +0.234 C 
ATOM      2  N   UNL     1       7.715  -2.095  22.453  0.00  0.00    -0.304 N 
ATOM      3  H   UNL     1       6.815  -1.634  22.349  0.00  0.00    +0.149 HD
ATOM      4  O   UNL     1       9.941  -1.864  22.059  0.00  0.00    -0.274 OA
ENDROOT
BRANCH   1   5
ATOM      5  C   UNL     1       8.573   0.193  22.088  0.00  0.00    +0.159 C 
BRANCH   5   6
ATOM      6  N   UNL     1       7.639   0.617  23.160  0.00  0.00    -0.304 N 
ATOM      7  H   UNL     1       7.519  -0.004  23.947  0.00  0.00    +0.149 HD
ATOM      8  C   UNL     1       6.714   1.620  22.973  0.00  0.00    +0.211 C 
ATOM      9  O   UNL     1       6.651   2.299  21.958  0.00  0.00    -0.276 OA
ATOM     10  C   UNL     1       5.708   1.737  24.092  0.00  0.00    +0.109 C 
ENDBRANCH   5   6
BRANCH   5  11
ATOM     11  C   UNL     1       9.858   1.032  22.231  0.00  0.00    +0.034 C 
BRANCH  11  12
ATOM     12  C   UNL     1      10.178   1.648  23.609  0.00  0.00    -0.015 C 
ATOM     13  C   UNL     1      10.869   3.006  23.419  0.00  0.00    +0.007 C 
ATOM     14  C   UNL     1      11.061   0.758  24.482  0.00  0.00    +0.007 C 
ENDBRANCH  11  12
ENDBRANCH   5  11
ENDBRANCH   1   5
BRANCH   2  15
ATOM     15  C   UNL     1       7.661  -3.549  22.625  0.00  0.00    +0.153 C 
BRANCH  15  16
ATOM     16  C   UNL     1       6.417  -4.016  21.860  0.00  0.00    +0.256 C 
ATOM     17  O   UNL     1       5.492  -3.225  21.618  0.00  0.00    -0.286 OA
BRANCH  16  18
ATOM     18  C   UNL     1       6.395  -5.462  21.407  0.00  0.00    +0.453 C 
ATOM     19  F   UNL     1       5.532  -6.221  22.137  0.00  0.00    -0.163 F 
ATOM     20  F   UNL     1       7.616  -6.053  21.516  0.00  0.00    -0.163 F 
ATOM     21  F   UNL     1       6.017  -5.613  20.108  0.00  0.00    -0.163 F 
ENDBRANCH  16  18
ENDBRANCH  15  16
BRANCH  15  22
ATOM     22  C   UNL     1       7.646  -3.964  24.109  0.00  0.00    +0.065 C 
BRANCH  22  23
ATOM     23  C   UNL     1       7.492  -2.838  25.113  0.00  0.00    -0.045 A 
ATOM     24  C   UNL     1       6.226  -2.329  25.435  0.00  0.00    +0.004 A 
ATOM     25  C   UNL     1       6.084  -1.271  26.333  0.00  0.00    +0.000 A 
ATOM     26  C   UNL     1       7.212  -0.690  26.904  0.00  0.00    +0.000 A 
ATOM     27  C   UNL     1       8.478  -1.173  26.584  0.00  0.00    +0.000 A 
ATOM     28  C   UNL     1       8.620  -2.244  25.698  0.00  0.00    +0.004 A 
ENDBRANCH  22  23
ENDBRANCH  15  22
ENDBRANCH   2  15
TORSDOF 9
ENDMDL
MODEL 2
REMARK VINA RESULT:      -6.2      2.801      4.313
REMARK  Name = 
REMARK  12 active torsions:
REMARK  status: ('A' for Active; 'I' for Inactive)
REMARK    1  A    between atoms: C_2  and  C_3
REMARK    2  A    between atoms: C_2  and  N_7
REMARK    3  A    between atoms: C_2  and  C_11
REMARK    4  A    between atoms: C_3  and  C_4
REMARK    5  A    between atoms: C_4  and  C_5
REMARK    6  A    between atoms: C_4  and  C_6
REMARK    7  A    between atoms: C_8  and  C_9
REMARK    8  A    between atoms: N_13  and  C_14
REMARK    9  A    between atoms: C_14  and  C_16
REMARK   10  A    between atoms: C_14  and  C_23
REMARK   11  A    between atoms: C_16  and  C_17
REMARK   12  A    between atoms: C_23  and  C_25
REMARK                            x       y       z     vdW  Elec       q    Type
REMARK                         _______ _______ _______ _____ _____    ______ ____
ROOT
ATOM      1  C   UNL     1      10.359   1.312  24.224  0.00  0.00    +0.234 C 
ATOM      2  N   UNL     1       9.287   0.455  24.301  0.00  0.00    -0.304 N 
ATOM      3  H   UNL     1       8.437   0.732  23.819  0.00  0.00    +0.149 HD
ATOM      4  O   UNL     1      11.486   0.964  24.564  0.00  0.00    -0.274 OA
ENDROOT
BRANCH   1   5
ATOM      5  C   UNL     1      10.008   2.733  23.675  0.00  0.00    +0.159 C 
BRANCH   5   6
ATOM      6  N   UNL     1      11.237   3.397  23.176  0.00  0.00    -0.304 N 
ATOM      7  H   UNL     1      11.991   2.805  22.856  0.00  0.00    +0.149 HD
ATOM      8  C   UNL     1      11.514   4.720  23.438  0.00  0.00    +0.211 C 
ATOM      9  O   UNL     1      10.736   5.472  24.009  0.00  0.00    -0.276 OA
ATOM     10  C   UNL     1      12.912   5.139  23.053  0.00  0.00    +0.109 C 
ENDBRANCH   5   6
BRANCH   5  11
ATOM     11  C   UNL     1       8.998   2.691  22.511  0.00  0.00    +0.034 C 
BRANCH  11  12
ATOM     12  C   UNL     1       7.664   3.449  22.675  0.00  0.00    -0.015 C 
ATOM     13  C   UNL     1       7.525   3.942  24.122  0.00  0.00    +0.007 C 
ATOM     14  C   UNL     1       6.439   2.609  22.315  0.00  0.00    +0.007 C 
ENDBRANCH  11  12
ENDBRANCH   5  11
ENDBRANCH   1   5
BRANCH   2  15
ATOM     15  C   UNL     1       9.310  -0.926  24.794  0.00  0.00    +0.153 C 
BRANCH  15  16
ATOM     16  C   UNL     1       9.497  -1.810  23.556  0.00  0.00    +0.256 C 
ATOM     17  O   UNL     1      10.352  -2.710  23.548  0.00  0.00    -0.286 OA
BRANCH  16  18
ATOM     18  C   UNL     1       8.580  -1.544  22.380  0.00  0.00    +0.453 C 
ATOM     19  F   UNL     1       8.031  -2.686  21.883  0.00  0.00    -0.163 F 
ATOM     20  F   UNL     1       9.231  -0.946  21.345  0.00  0.00    -0.163 F 
ATOM     21  F   UNL     1       7.533  -0.731  22.689  0.00  0.00    -0.163 F 
ENDBRANCH  16  18
ENDBRANCH  15  16
BRANCH  15  22
ATOM     22  C   UNL     1       8.046  -1.280  25.602  0.00  0.00    +0.065 C 
BRANCH  22  23
ATOM     23  C   UNL     1       7.726  -2.757  25.724  0.00  0.00    -0.045 A 
ATOM     24  C   UNL     1       6.601  -3.304  25.092  0.00  0.00    +0.004 A 
ATOM     25  C   UNL     1       6.286  -4.656  25.230  0.00  0.00    +0.000 A 
ATOM     26  C   UNL     1       7.081  -5.476  26.024  0.00  0.00    +0.000 A 
ATOM     27  C   UNL     1       8.195  -4.946  26.671  0.00  0.00    +0.000 A 
ATOM     28  C   UNL     1       8.521  -3.596  26.519  0.00  0.00    +0.004 A 
ENDBRANCH  22  23
ENDBRANCH  15  22
ENDBRANCH   2  15
TORSDOF 9
ENDMDL
MODEL 3
REMARK VINA RESULT:      -6.2      2.161      4.376
REMARK  Name = 
REMARK  12 active torsions:
REMARK  status: ('A' for Active; 'I' for Inactive)
REMARK    1  A    between atoms: C_2  and  C_3
REMARK    2  A    between atoms: C_2  and  N_7
REMARK    3  A    between atoms: C_2  and  C_11
REMARK    4  A    between atoms: C_3  and  C_4
REMARK    5  A    between atoms: C_4  and  C_5
REMARK    6  A    between atoms: C_4  and  C_6
REMARK    7  A    between atoms: C_8  and  C_9
REMARK    8  A    between atoms: N_13  and  C_14
REMARK    9  A    between atoms: C_14  and  C_16
REMARK   10  A    between atoms: C_14  and  C_23
REMARK   11  A    between atoms: C_16  and  C_17
REMARK   12  A    between atoms: C_23  and  C_25
REMARK                            x       y       z     vdW  Elec       q    Type
REMARK                         _______ _______ _______ _____ _____    ______ ____
ROOT
ATOM      1  C   UNL     1       6.434  -1.667  23.874  0.00  0.00    +0.234 C 
ATOM      2  N   UNL     1       7.585  -2.268  24.325  0.00  0.00    -0.304 N 
ATOM      3  H   UNL     1       7.643  -2.470  25.319  0.00  0.00    +0.149 HD
ATOM      4  O   UNL     1       6.171  -1.601  22.677  0.00  0.00    -0.274 OA
ENDROOT
BRANCH   1   5
ATOM      5  C   UNL     1       5.521  -1.095  25.006  0.00  0.00    +0.159 C 
BRANCH   5   6
ATOM      6  N   UNL     1       5.312  -2.126  26.052  0.00  0.00    -0.304 N 
ATOM      7  H   UNL     1       6.131  -2.491  26.518  0.00  0.00    +0.149 HD
ATOM      8  C   UNL     1       4.129  -2.821  26.172  0.00  0.00    +0.211 C 
ATOM      9  O   UNL     1       3.136  -2.582  25.501  0.00  0.00    -0.276 OA
ATOM     10  C   UNL     1       4.199  -3.982  27.134  0.00  0.00    +0.109 C 
ENDBRANCH   5   6
BRANCH   5  11
ATOM     11  C   UNL     1       6.124   0.148  25.691  0.00  0.00    +0.034 C 
BRANCH  11  12
ATOM     12  C   UNL     1       6.938   1.134  24.828  0.00  0.00    -0.015 C 
ATOM     13  C   UNL     1       7.595   2.188  25.730  0.00  0.00    +0.007 C 
ATOM     14  C   UNL     1       6.102   1.841  23.762  0.00  0.00    +0.007 C 
ENDBRANCH  11  12
ENDBRANCH   5  11
ENDBRANCH   1   5
BRANCH   2  15
ATOM     15  C   UNL     1       8.635  -2.870  23.498  0.00  0.00    +0.153 C 
BRANCH  15  16
ATOM     16  C   UNL     1       8.620  -4.368  23.828  0.00  0.00    +0.256 C 
ATOM     17  O   UNL     1       9.429  -4.842  24.641  0.00  0.00    -0.286 OA
BRANCH  16  18
ATOM     18  C   UNL     1       7.567  -5.210  23.136  0.00  0.00    +0.453 C 
ATOM     19  F   UNL     1       6.553  -5.561  23.973  0.00  0.00    -0.163 F 
ATOM     20  F   UNL     1       8.080  -6.370  22.642  0.00  0.00    -0.163 F 
ATOM     21  F   UNL     1       6.980  -4.579  22.083  0.00  0.00    -0.163 F 
ENDBRANCH  16  18
ENDBRANCH  15  16
BRANCH  15  22
ATOM     22  C   UNL     1      10.011  -2.216  23.729  0.00  0.00    +0.065 C 
BRANCH  22  23
ATOM     23  C   UNL     1      10.113  -0.742  23.390  0.00  0.00    -0.045 A 
ATOM     24  C   UNL     1      10.577   0.184  24.334  0.00  0.00    +0.004 A 
ATOM     25  C   UNL     1      10.640   1.545  24.035  0.00  0.00    +0.000 A 
ATOM     26  C   UNL     1      10.215   2.002  22.791  0.00  0.00    +0.000 A 
ATOM     27  C   UNL     1       9.737   1.098  21.846  0.00  0.00    +0.000 A 
ATOM     28  C   UNL     1       9.690  -0.267  22.139  0.00  0.00    +0.004 A 
ENDBRANCH  22  23
ENDBRANCH  15  22
ENDBRANCH   2  15
TORSDOF 9
ENDMDL
MODEL 4
REMARK VINA RESULT:      -6.2      3.635      6.805
REMARK  Name = 
REMARK  12 active torsions:
REMARK  status: ('A' for Active; 'I' for Inactive)
REMARK    1  A    between atoms: C_2  and  C_3
REMARK    2  A    between atoms: C_2  and  N_7
REMARK    3  A    between atoms: C_2  and  C_11
REMARK    4  A    between atoms: C_3  and  C_4
REMARK    5  A    between atoms: C_4  and  C_5
REMARK    6  A    between atoms: C_4  and  C_6
REMARK    7  A    between atoms: C_8  and  C_9
REMARK    8  A    between atoms: N_13  and  C_14
REMARK    9  A    between atoms: C_14  and  C_16
REMARK   10  A    between atoms: C_14  and  C_23
REMARK   11  A    between atoms: C_16  and  C_17
REMARK   12  A    between atoms: C_23  and  C_25
REMARK                            x       y       z     vdW  Elec       q    Type
REMARK                         _______ _______ _______ _____ _____    ______ ____
ROOT
ATOM      1  C   UNL     1       8.303  -2.031  22.665  0.00  0.00    +0.234 C 
ATOM      2  N   UNL     1       7.641  -1.026  23.328  0.00  0.00    -0.304 N 
ATOM      3  H   UNL     1       7.017  -1.301  24.081  0.00  0.00    +0.149 HD
ATOM      4  O   UNL     1       9.244  -1.793  21.912  0.00  0.00    -0.274 OA
ENDROOT
BRANCH   1   5
ATOM      5  C   UNL     1       7.756  -3.465  22.959  0.00  0.00    +0.159 C 
BRANCH   5   6
ATOM      6  N   UNL     1       7.754  -3.713  24.421  0.00  0.00    -0.304 N 
ATOM      7  H   UNL     1       7.339  -3.008  25.014  0.00  0.00    +0.149 HD
ATOM      8  C   UNL     1       8.562  -4.662  25.006  0.00  0.00    +0.211 C 
ATOM      9  O   UNL     1       9.264  -5.435  24.369  0.00  0.00    -0.276 OA
ATOM     10  C   UNL     1       8.589  -4.595  26.514  0.00  0.00    +0.109 C 
ENDBRANCH   5   6
BRANCH   5  11
ATOM     11  C   UNL     1       6.315  -3.671  22.450  0.00  0.00    +0.034 C 
BRANCH  11  12
ATOM     12  C   UNL     1       5.890  -5.089  22.015  0.00  0.00    -0.015 C 
ATOM     13  C   UNL     1       5.079  -5.753  23.137  0.00  0.00    +0.007 C 
ATOM     14  C   UNL     1       7.069  -5.992  21.652  0.00  0.00    +0.007 C 
ENDBRANCH  11  12
ENDBRANCH   5  11
ENDBRANCH   1   5
BRANCH   2  15
ATOM     15  C   UNL     1       7.917   0.411  23.232  0.00  0.00    +0.153 C 
BRANCH  15  16
ATOM     16  C   UNL     1       8.999   0.700  24.278  0.00  0.00    +0.256 C 
ATOM     17  O   UNL     1       8.884   0.275  25.438  0.00  0.00    -0.286 OA
BRANCH  16  18
ATOM     18  C   UNL     1      10.203   1.497  23.815  0.00  0.00    +0.453 C 
ATOM     19  F   UNL     1      10.387   1.420  22.468  0.00  0.00    -0.163 F 
ATOM     20  F   UNL     1      11.358   1.062  24.388  0.00  0.00    -0.163 F 
ATOM     21  F   UNL     1      10.113   2.823  24.104  0.00  0.00    -0.163 F 
ENDBRANCH  16  18
ENDBRANCH  15  16
BRANCH  15  22
ATOM     22  C   UNL     1       6.649   1.265  23.424  0.00  0.00    +0.065 C 
BRANCH  22  23
ATOM     23  C   UNL     1       6.854   2.768  23.430  0.00  0.00    -0.045 A 
ATOM     24  C   UNL     1       6.680   3.513  24.604  0.00  0.00    +0.004 A 
ATOM     25  C   UNL     1       6.835   4.900  24.604  0.00  0.00    +0.000 A 
ATOM     26  C   UNL     1       7.143   5.564  23.421  0.00  0.00    +0.000 A 
ATOM     27  C   UNL     1       7.304   4.840  22.242  0.00  0.00    +0.000 A 
ATOM     28  C   UNL     1       7.167   3.450  22.245  0.00  0.00    +0.004 A 
ENDBRANCH  22  23
ENDBRANCH  15  22
ENDBRANCH   2  15
TORSDOF 9
ENDMDL
MODEL 5
REMARK VINA RESULT:      -6.1      3.095      6.284
REMARK  Name = 
REMARK  12 active torsions:
REMARK  status: ('A' for Active; 'I' for Inactive)
REMARK    1  A    between atoms: C_2  and  C_3
REMARK    2  A    between atoms: C_2  and  N_7
REMARK    3  A    between atoms: C_2  and  C_11
REMARK    4  A    between atoms: C_3  and  C_4
REMARK    5  A    between atoms: C_4  and  C_5
REMARK    6  A    between atoms: C_4  and  C_6
REMARK    7  A    between atoms: C_8  and  C_9
REMARK    8  A    between atoms: N_13  and  C_14
REMARK    9  A    between atoms: C_14  and  C_16
REMARK   10  A    between atoms: C_14  and  C_23
REMARK   11  A    between atoms: C_16  and  C_17
REMARK   12  A    between atoms: C_23  and  C_25
REMARK                            x       y       z     vdW  Elec       q    Type
REMARK                         _______ _______ _______ _____ _____    ______ ____
ROOT
ATOM      1  C   UNL     1       7.374  -2.340  25.239  0.00  0.00    +0.234 C 
ATOM      2  N   UNL     1       8.096  -1.593  24.338  0.00  0.00    -0.304 N 
ATOM      3  H   UNL     1       8.547  -2.093  23.578  0.00  0.00    +0.149 HD
ATOM      4  O   UNL     1       6.608  -1.816  26.041  0.00  0.00    -0.274 OA
ENDROOT
BRANCH   1   5
ATOM      5  C   UNL     1       7.620  -3.881  25.139  0.00  0.00    +0.159 C 
BRANCH   5   6
ATOM      6  N   UNL     1       6.423  -4.614  25.618  0.00  0.00    -0.304 N 
ATOM      7  H   UNL     1       5.518  -4.213  25.414  0.00  0.00    +0.149 HD
ATOM      8  C   UNL     1       6.499  -5.595  26.580  0.00  0.00    +0.211 C 
ATOM      9  O   UNL     1       7.554  -6.007  27.041  0.00  0.00    -0.276 OA
ATOM     10  C   UNL     1       5.155  -6.047  27.099  0.00  0.00    +0.109 C 
ENDBRANCH   5   6
BRANCH   5  11
ATOM     11  C   UNL     1       7.906  -4.349  23.698  0.00  0.00    +0.034 C 
BRANCH  11  12
ATOM     12  C   UNL     1       6.721  -4.838  22.841  0.00  0.00    -0.015 C 
ATOM     13  C   UNL     1       7.184  -5.976  21.921  0.00  0.00    +0.007 C 
ATOM     14  C   UNL     1       6.090  -3.735  21.991  0.00  0.00    +0.007 C 
ENDBRANCH  11  12
ENDBRANCH   5  11
ENDBRANCH   1   5
BRANCH   2  15
ATOM     15  C   UNL     1       8.086  -0.133  24.213  0.00  0.00    +0.153 C 
BRANCH  15  16
ATOM     16  C   UNL     1       8.005   0.159  22.710  0.00  0.00    +0.256 C 
ATOM     17  O   UNL     1       7.131   0.918  22.261  0.00  0.00    -0.286 OA
BRANCH  16  18
ATOM     18  C   UNL     1       9.048  -0.499  21.829  0.00  0.00    +0.453 C 
ATOM     19  F   UNL     1       9.254   0.187  20.671  0.00  0.00    -0.163 F 
ATOM     20  F   UNL     1       8.693  -1.764  21.471  0.00  0.00    -0.163 F 
ATOM     21  F   UNL     1      10.267  -0.602  22.424  0.00  0.00    -0.163 F 
ENDBRANCH  16  18
ENDBRANCH  15  16
BRANCH  15  22
ATOM     22  C   UNL     1       9.307   0.522  24.889  0.00  0.00    +0.065 C 
BRANCH  22  23
ATOM     23  C   UNL     1       9.560   1.976  24.542  0.00  0.00    -0.045 A 
ATOM     24  C   UNL     1       8.647   2.973  24.914  0.00  0.00    +0.004 A 
ATOM     25  C   UNL     1       8.861   4.308  24.567  0.00  0.00    +0.000 A 
ATOM     26  C   UNL     1       9.981   4.660  23.821  0.00  0.00    +0.000 A 
ATOM     27  C   UNL     1      10.891   3.680  23.431  0.00  0.00    +0.000 A 
ATOM     28  C   UNL     1      10.686   2.346  23.793  0.00  0.00    +0.004 A 
ENDBRANCH  22  23
ENDBRANCH  15  22
ENDBRANCH   2  15
TORSDOF 9
ENDMDL
MODEL 6
REMARK VINA RESULT:      -6.1      2.645      4.190
REMARK  Name = 
REMARK  12 active torsions:
REMARK  status: ('A' for Active; 'I' for Inactive)
REMARK    1  A    between atoms: C_2  and  C_3
REMARK    2  A    between atoms: C_2  and  N_7
REMARK    3  A    between atoms: C_2  and  C_11
REMARK    4  A    between atoms: C_3  and  C_4
REMARK    5  A    between atoms: C_4  and  C_5
REMARK    6  A    between atoms: C_4  and  C_6
REMARK    7  A    between atoms: C_8  and  C_9
REMARK    8  A    between atoms: N_13  and  C_14
REMARK    9  A    between atoms: C_14  and  C_16
REMARK   10  A    between atoms: C_14  and  C_23
REMARK   11  A    between atoms: C_16  and  C_17
REMARK   12  A    between atoms: C_23  and  C_25
REMARK                            x       y       z     vdW  Elec       q    Type
REMARK                         _______ _______ _______ _____ _____    ______ ____
ROOT
ATOM      1  C   UNL     1       8.391  -0.228  25.366  0.00  0.00    +0.234 C 
ATOM      2  N   UNL     1       8.250  -1.454  24.761  0.00  0.00    -0.304 N 
ATOM      3  H   UNL     1       8.498  -1.517  23.778  0.00  0.00    +0.149 HD
ATOM      4  O   UNL     1       8.348  -0.106  26.587  0.00  0.00    -0.274 OA
ENDROOT
BRANCH   1   5
ATOM      5  C   UNL     1       8.608   0.959  24.373  0.00  0.00    +0.159 C 
BRANCH   5   6
ATOM      6  N   UNL     1       8.688   2.236  25.124  0.00  0.00    -0.304 N 
ATOM      7  H   UNL     1       9.268   2.255  25.951  0.00  0.00    +0.149 HD
ATOM      8  C   UNL     1       7.778   3.252  24.942  0.00  0.00    +0.211 C 
ATOM      9  O   UNL     1       6.901   3.228  24.090  0.00  0.00    -0.276 OA
ATOM     10  C   UNL     1       7.888   4.360  25.962  0.00  0.00    +0.109 C 
ENDBRANCH   5   6
BRANCH   5  11
ATOM     11  C   UNL     1       9.905   0.821  23.550  0.00  0.00    +0.034 C 
BRANCH  11  12
ATOM     12  C   UNL     1       9.787   0.703  22.016  0.00  0.00    -0.015 C 
ATOM     13  C   UNL     1       8.645   1.598  21.516  0.00  0.00    +0.007 C 
ATOM     14  C   UNL     1       9.548  -0.727  21.534  0.00  0.00    +0.007 C 
ENDBRANCH  11  12
ENDBRANCH   5  11
ENDBRANCH   1   5
BRANCH   2  15
ATOM     15  C   UNL     1       8.015  -2.735  25.433  0.00  0.00    +0.153 C 
BRANCH  15  16
ATOM     16  C   UNL     1       9.131  -3.671  24.954  0.00  0.00    +0.256 C 
ATOM     17  O   UNL     1       9.805  -3.387  23.952  0.00  0.00    -0.286 OA
BRANCH  16  18
ATOM     18  C   UNL     1       9.372  -4.924  25.773  0.00  0.00    +0.453 C 
ATOM     19  F   UNL     1       8.858  -4.827  27.029  0.00  0.00    -0.163 F 
ATOM     20  F   UNL     1      10.698  -5.195  25.918  0.00  0.00    -0.163 F 
ATOM     21  F   UNL     1       8.815  -6.039  25.227  0.00  0.00    -0.163 F 
ENDBRANCH  16  18
ENDBRANCH  15  16
BRANCH  15  22
ATOM     22  C   UNL     1       6.604  -3.291  25.159  0.00  0.00    +0.065 C 
BRANCH  22  23
ATOM     23  C   UNL     1       6.404  -3.968  23.817  0.00  0.00    -0.045 A 
ATOM     24  C   UNL     1       6.281  -5.361  23.725  0.00  0.00    +0.004 A 
ATOM     25  C   UNL     1       6.130  -5.988  22.488  0.00  0.00    +0.000 A 
ATOM     26  C   UNL     1       6.126  -5.230  21.321  0.00  0.00    +0.000 A 
ATOM     27  C   UNL     1       6.262  -3.846  21.393  0.00  0.00    +0.000 A 
ATOM     28  C   UNL     1       6.395  -3.216  22.633  0.00  0.00    +0.004 A 
ENDBRANCH  22  23
ENDBRANCH  15  22
ENDBRANCH   2  15
TORSDOF 9
ENDMDL
MODEL 7
REMARK VINA RESULT:      -6.0      3.000      4.146
REMARK  Name = 
REMARK  12 active torsions:
REMARK  status: ('A' for Active; 'I' for Inactive)
REMARK    1  A    between atoms: C_2  and  C_3
REMARK    2  A    between atoms: C_2  and  N_7
REMARK    3  A    between atoms: C_2  and  C_11
REMARK    4  A    between atoms: C_3  and  C_4
REMARK    5  A    between atoms: C_4  and  C_5
REMARK    6  A    between atoms: C_4  and  C_6
REMARK    7  A    between atoms: C_8  and  C_9
REMARK    8  A    between atoms: N_13  and  C_14
REMARK    9  A    between atoms: C_14  and  C_16
REMARK   10  A    between atoms: C_14  and  C_23
REMARK   11  A    between atoms: C_16  and  C_17
REMARK   12  A    between atoms: C_23  and  C_25
REMARK                            x       y       z     vdW  Elec       q    Type
REMARK                         _______ _______ _______ _____ _____    ______ ____
ROOT
ATOM      1  C   UNL     1       8.435  -0.647  25.274  0.00  0.00    +0.234 C 
ATOM      2  N   UNL     1       8.051  -1.671  24.440  0.00  0.00    -0.304 N 
ATOM      3  H   UNL     1       8.072  -1.487  23.442  0.00  0.00    +0.149 HD
ATOM      4  O   UNL     1       8.669  -0.840  26.463  0.00  0.00    -0.274 OA
ENDROOT
BRANCH   1   5
ATOM      5  C   UNL     1       8.540   0.747  24.574  0.00  0.00    +0.159 C 
BRANCH   5   6
ATOM      6  N   UNL     1       8.400   1.827  25.581  0.00  0.00    -0.304 N 
ATOM      7  H   UNL     1       8.868   1.702  26.468  0.00  0.00    +0.149 HD
ATOM      8  C   UNL     1       7.424   2.794  25.490  0.00  0.00    +0.211 C 
ATOM      9  O   UNL     1       6.667   2.899  24.535  0.00  0.00    -0.276 OA
ATOM     10  C   UNL     1       7.298   3.652  26.725  0.00  0.00    +0.109 C 
ENDBRANCH   5   6
BRANCH   5  11
ATOM     11  C   UNL     1       9.888   0.954  23.854  0.00  0.00    +0.034 C 
BRANCH  11  12
ATOM     12  C   UNL     1       9.884   1.056  22.314  0.00  0.00    -0.015 C 
ATOM     13  C   UNL     1       8.752   1.989  21.862  0.00  0.00    +0.007 C 
ATOM     14  C   UNL     1       9.727  -0.294  21.616  0.00  0.00    +0.007 C 
ENDBRANCH  11  12
ENDBRANCH   5  11
ENDBRANCH   1   5
BRANCH   2  15
ATOM     15  C   UNL     1       7.849  -3.072  24.819  0.00  0.00    +0.153 C 
BRANCH  15  16
ATOM     16  C   UNL     1       9.228  -3.736  24.720  0.00  0.00    +0.256 C 
ATOM     17  O   UNL     1      10.085  -3.295  23.939  0.00  0.00    -0.286 OA
BRANCH  16  18
ATOM     18  C   UNL     1       9.483  -4.921  25.630  0.00  0.00    +0.453 C 
ATOM     19  F   UNL     1      10.808  -5.216  25.734  0.00  0.00    -0.163 F 
ATOM     20  F   UNL     1       8.869  -6.051  25.187  0.00  0.00    -0.163 F 
ATOM     21  F   UNL     1       9.044  -4.725  26.903  0.00  0.00    -0.163 F 
ENDBRANCH  16  18
ENDBRANCH  15  16
BRANCH  15  22
ATOM     22  C   UNL     1       6.783  -3.766  23.950  0.00  0.00    +0.065 C 
BRANCH  22  23
ATOM     23  C   UNL     1       5.988  -4.868  24.624  0.00  0.00    -0.045 A 
ATOM     24  C   UNL     1       5.368  -5.873  23.869  0.00  0.00    +0.004 A 
ATOM     25  C   UNL     1       4.609  -6.869  24.484  0.00  0.00    +0.000 A 
ATOM     26  C   UNL     1       4.437  -6.857  25.865  0.00  0.00    +0.000 A 
ATOM     27  C   UNL     1       5.034  -5.856  26.629  0.00  0.00    +0.000 A 
ATOM     28  C   UNL     1       5.809  -4.870  26.015  0.00  0.00    +0.004 A 
ENDBRANCH  22  23
ENDBRANCH  15  22
ENDBRANCH   2  15
TORSDOF 9
ENDMDL
MODEL 8
REMARK VINA RESULT:      -6.0      3.247      6.237
REMARK  Name = 
REMARK  12 active torsions:
REMARK  status: ('A' for Active; 'I' for Inactive)
REMARK    1  A    between atoms: C_2  and  C_3
REMARK    2  A    between atoms: C_2  and  N_7
REMARK    3  A    between atoms: C_2  and  C_11
REMARK    4  A    between atoms: C_3  and  C_4
REMARK    5  A    between atoms: C_4  and  C_5
REMARK    6  A    between atoms: C_4  and  C_6
REMARK    7  A    between atoms: C_8  and  C_9
REMARK    8  A    between atoms: N_13  and  C_14
REMARK    9  A    between atoms: C_14  and  C_16
REMARK   10  A    between atoms: C_14  and  C_23
REMARK   11  A    between atoms: C_16  and  C_17
REMARK   12  A    between atoms: C_23  and  C_25
REMARK                            x       y       z     vdW  Elec       q    Type
REMARK                         _______ _______ _______ _____ _____    ______ ____
ROOT
ATOM      1  C   UNL     1       6.855  -1.874  23.618  0.00  0.00    +0.234 C 
ATOM      2  N   UNL     1       7.728  -1.102  24.346  0.00  0.00    -0.304 N 
ATOM      3  H   UNL     1       8.222  -1.555  25.109  0.00  0.00    +0.149 HD
ATOM      4  O   UNL     1       6.398  -1.490  22.545  0.00  0.00    -0.274 OA
ENDROOT
BRANCH   1   5
ATOM      5  C   UNL     1       6.515  -3.252  24.273  0.00  0.00    +0.159 C 
BRANCH   5   6
ATOM      6  N   UNL     1       6.803  -4.349  23.317  0.00  0.00    -0.304 N 
ATOM      7  H   UNL     1       7.773  -4.561  23.128  0.00  0.00    +0.149 HD
ATOM      8  C   UNL     1       5.848  -4.842  22.456  0.00  0.00    +0.211 C 
ATOM      9  O   UNL     1       4.677  -4.491  22.476  0.00  0.00    -0.276 OA
ATOM     10  C   UNL     1       6.397  -5.779  21.408  0.00  0.00    +0.109 C 
ENDBRANCH   5   6
BRANCH   5  11
ATOM     11  C   UNL     1       7.333  -3.524  25.552  0.00  0.00    +0.034 C 
BRANCH  11  12
ATOM     12  C   UNL     1       7.902  -4.942  25.767  0.00  0.00    -0.015 C 
ATOM     13  C   UNL     1       7.413  -5.496  27.112  0.00  0.00    +0.007 C 
ATOM     14  C   UNL     1       9.429  -4.995  25.731  0.00  0.00    +0.007 C 
ENDBRANCH  11  12
ENDBRANCH   5  11
ENDBRANCH   1   5
BRANCH   2  15
ATOM     15  C   UNL     1       8.208   0.238  23.993  0.00  0.00    +0.153 C 
BRANCH  15  16
ATOM     16  C   UNL     1       9.382   0.022  23.031  0.00  0.00    +0.256 C 
ATOM     17  O   UNL     1      10.343  -0.691  23.359  0.00  0.00    -0.286 OA
BRANCH  16  18
ATOM     18  C   UNL     1       9.288   0.696  21.676  0.00  0.00    +0.453 C 
ATOM     19  F   UNL     1       9.348  -0.197  20.650  0.00  0.00    -0.163 F 
ATOM     20  F   UNL     1      10.298   1.586  21.474  0.00  0.00    -0.163 F 
ATOM     21  F   UNL     1       8.131   1.389  21.499  0.00  0.00    -0.163 F 
ENDBRANCH  16  18
ENDBRANCH  15  16
BRANCH  15  22
ATOM     22  C   UNL     1       8.590   1.069  25.233  0.00  0.00    +0.065 C 
BRANCH  22  23
ATOM     23  C   UNL     1       8.493   2.574  25.082  0.00  0.00    -0.045 A 
ATOM     24  C   UNL     1       9.355   3.268  24.221  0.00  0.00    +0.004 A 
ATOM     25  C   UNL     1       9.289   4.657  24.105  0.00  0.00    +0.000 A 
ATOM     26  C   UNL     1       8.374   5.375  24.869  0.00  0.00    +0.000 A 
ATOM     27  C   UNL     1       7.520   4.702  25.740  0.00  0.00    +0.000 A 
ATOM     28  C   UNL     1       7.574   3.311  25.844  0.00  0.00    +0.004 A 
ENDBRANCH  22  23
ENDBRANCH  15  22
ENDBRANCH   2  15
TORSDOF 9
ENDMDL
MODEL 9
REMARK VINA RESULT:      -6.0      1.803      3.454
REMARK  Name = 
REMARK  12 active torsions:
REMARK  status: ('A' for Active; 'I' for Inactive)
REMARK    1  A    between atoms: C_2  and  C_3
REMARK    2  A    between atoms: C_2  and  N_7
REMARK    3  A    between atoms: C_2  and  C_11
REMARK    4  A    between atoms: C_3  and  C_4
REMARK    5  A    between atoms: C_4  and  C_5
REMARK    6  A    between atoms: C_4  and  C_6
REMARK    7  A    between atoms: C_8  and  C_9
REMARK    8  A    between atoms: N_13  and  C_14
REMARK    9  A    between atoms: C_14  and  C_16
REMARK   10  A    between atoms: C_14  and  C_23
REMARK   11  A    between atoms: C_16  and  C_17
REMARK   12  A    between atoms: C_23  and  C_25
REMARK                            x       y       z     vdW  Elec       q    Type
REMARK                         _______ _______ _______ _____ _____    ______ ____
ROOT
ATOM      1  C   UNL     1       8.702  -1.978  23.668  0.00  0.00    +0.234 C 
ATOM      2  N   UNL     1       7.624  -2.747  23.300  0.00  0.00    -0.304 N 
ATOM      3  H   UNL     1       6.720  -2.287  23.256  0.00  0.00    +0.149 HD
ATOM      4  O   UNL     1       9.854  -2.374  23.521  0.00  0.00    -0.274 OA
ENDROOT
BRANCH   1   5
ATOM      5  C   UNL     1       8.323  -0.587  24.271  0.00  0.00    +0.159 C 
BRANCH   5   6
ATOM      6  N   UNL     1       8.679   0.491  23.315  0.00  0.00    -0.304 N 
ATOM      7  H   UNL     1       8.134   0.561  22.467  0.00  0.00    +0.149 HD
ATOM      8  C   UNL     1       9.884   1.154  23.373  0.00  0.00    +0.211 C 
ATOM      9  O   UNL     1      10.706   0.983  24.261  0.00  0.00    -0.276 OA
ATOM     10  C   UNL     1      10.151   2.038  22.179  0.00  0.00    +0.109 C 
ENDBRANCH   5   6
BRANCH   5  11
ATOM     11  C   UNL     1       6.817  -0.458  24.577  0.00  0.00    +0.034 C 
BRANCH  11  12
ATOM     12  C   UNL     1       6.280  -1.088  25.879  0.00  0.00    -0.015 C 
ATOM     13  C   UNL     1       4.918  -1.744  25.612  0.00  0.00    +0.007 C 
ATOM     14  C   UNL     1       6.135  -0.086  27.024  0.00  0.00    +0.007 C 
ENDBRANCH  11  12
ENDBRANCH   5  11
ENDBRANCH   1   5
BRANCH   2  15
ATOM     15  C   UNL     1       7.672  -4.097  22.729  0.00  0.00    +0.153 C 
BRANCH  15  16
ATOM     16  C   UNL     1       6.362  -4.270  21.951  0.00  0.00    +0.256 C 
ATOM     17  O   UNL     1       5.569  -3.323  21.833  0.00  0.00    -0.286 OA
BRANCH  16  18
ATOM     18  C   UNL     1       6.112  -5.629  21.328  0.00  0.00    +0.453 C 
ATOM     19  F   UNL     1       4.970  -6.207  21.791  0.00  0.00    -0.163 F 
ATOM     20  F   UNL     1       7.120  -6.505  21.585  0.00  0.00    -0.163 F 
ATOM     21  F   UNL     1       5.985  -5.584  19.974  0.00  0.00    -0.163 F 
ENDBRANCH  16  18
ENDBRANCH  15  16
BRANCH  15  22
ATOM     22  C   UNL     1       7.882  -5.180  23.805  0.00  0.00    +0.065 C 
BRANCH  22  23
ATOM     23  C   UNL     1       7.002  -5.076  25.035  0.00  0.00    -0.045 A 
ATOM     24  C   UNL     1       7.508  -4.574  26.242  0.00  0.00    +0.004 A 
ATOM     25  C   UNL     1       6.710  -4.508  27.384  0.00  0.00    +0.000 A 
ATOM     26  C   UNL     1       5.397  -4.969  27.340  0.00  0.00    +0.000 A 
ATOM     27  C   UNL     1       4.883  -5.485  26.153  0.00  0.00    +0.000 A 
ATOM     28  C   UNL     1       5.676  -5.534  25.005  0.00  0.00    +0.004 A 
ENDBRANCH  22  23
ENDBRANCH  15  22
ENDBRANCH   2  15
TORSDOF 9
ENDMDL
