MODEL 1
REMARK VINA RESULT:      -6.8      0.000      0.000
REMARK  Name = 
REMARK  4 active torsions:
REMARK  status: ('A' for Active; 'I' for Inactive)
REMARK    1  A    between atoms: C_2  and  C_4
REMARK    2  A    between atoms: C_9  and  N_10
REMARK    3  A    between atoms: N_14  and  C_15
REMARK    4  A    between atoms: C_17  and  O_18
REMARK                            x       y       z     vdW  Elec       q    Type
REMARK                         _______ _______ _______ _____ _____    ______ ____
ROOT
ATOM      1  N   UNL     1       4.979  -4.120  24.894  0.00  0.00    -0.299 N 
ATOM      2  H   UNL     1       4.761  -4.762  25.656  0.00  0.00    +0.154 HD
ATOM      3  C   UNL     1       4.989  -2.763  25.300  0.00  0.00    +0.128 A 
ATOM      4  C   UNL     1       4.033  -2.339  26.198  0.00  0.00    +0.063 A 
ATOM      5  C   UNL     1       4.047  -1.003  26.521  0.00  0.00    +0.118 A 
ATOM      6  N   UNL     1       4.922  -0.117  26.015  0.00  0.00    -0.223 NA
ATOM      7  C   UNL     1       5.816  -0.592  25.138  0.00  0.00    +0.221 A 
ATOM      8  N   UNL     1       6.703   0.353  24.616  0.00  0.00    -0.283 N 
ATOM      9  H   UNL     1       6.490   1.260  25.004  0.00  0.00    +0.155 HD
ATOM     10  N   UNL     1       5.859  -1.884  24.770  0.00  0.00    -0.199 NA
ENDROOT
BRANCH   1  12
ATOM     11  C   UNL     1       7.070  -5.162  24.047  0.00  0.00    +0.058 A 
ATOM     12  C   UNL     1       5.728  -4.746  23.863  0.00  0.00    +0.045 A 
ATOM     13  C   UNL     1       5.140  -5.009  22.613  0.00  0.00    +0.024 A 
ATOM     14  C   UNL     1       5.849  -5.610  21.570  0.00  0.00    +0.002 A 
ATOM     15  C   UNL     1       7.161  -6.016  21.767  0.00  0.00    +0.001 A 
ATOM     16  C   UNL     1       7.762  -5.815  23.006  0.00  0.00    +0.015 A 
BRANCH  11  20
ATOM     17  N   UNL     1       8.561  -3.811  25.442  0.00  0.00    -0.325 N 
ATOM     18  H   UNL     1       8.501  -3.040  24.793  0.00  0.00    +0.145 HD
ATOM     19  H   UNL     1       9.008  -3.630  26.332  0.00  0.00    +0.145 HD
ATOM     20  C   UNL     1       7.779  -4.933  25.341  0.00  0.00    +0.243 C 
ATOM     21  O   UNL     1       7.647  -5.695  26.294  0.00  0.00    -0.270 OA
ENDBRANCH  11  20
ENDBRANCH   1  12
BRANCH   8  22
ATOM     22  C   UNL     1       7.668   0.295  23.602  0.00  0.00    +0.037 A 
ATOM     23  C   UNL     1       7.670   1.269  22.590  0.00  0.00    +0.023 A 
ATOM     24  C   UNL     1       8.560   1.194  21.509  0.00  0.00    +0.005 A 
ATOM     25  C   UNL     1       9.473   0.148  21.429  0.00  0.00    +0.045 A 
ATOM     26  C   UNL     1       9.517  -0.787  22.449  0.00  0.00    +0.119 A 
ATOM     27  C   UNL     1       8.631  -0.715  23.523  0.00  0.00    +0.068 A 
BRANCH  26  28
ATOM     28  O   UNL     1      10.455  -1.776  22.385  0.00  0.00    -0.507 OA
ATOM     29  H   UNL     1      10.661  -2.042  23.298  0.00  0.00    +0.292 HD
ENDBRANCH  26  28
ENDBRANCH   8  22
TORSDOF 4
ENDMDL
MODEL 2
REMARK VINA RESULT:      -6.7      1.944      2.257
REMARK  Name = 
REMARK  4 active torsions:
REMARK  status: ('A' for Active; 'I' for Inactive)
REMARK    1  A    between atoms: C_2  and  C_4
REMARK    2  A    between atoms: C_9  and  N_10
REMARK    3  A    between atoms: N_14  and  C_15
REMARK    4  A    between atoms: C_17  and  O_18
REMARK                            x       y       z     vdW  Elec       q    Type
REMARK                         _______ _______ _______ _____ _____    ______ ____
ROOT
ATOM      1  N   UNL     1       5.708  -3.120  26.295  0.00  0.00    -0.299 N 
ATOM      2  H   UNL     1       5.524  -3.800  27.032  0.00  0.00    +0.154 HD
ATOM      3  C   UNL     1       5.882  -1.803  26.786  0.00  0.00    +0.128 A 
ATOM      4  C   UNL     1       5.074  -1.376  27.818  0.00  0.00    +0.063 A 
ATOM      5  C   UNL     1       5.239  -0.074  28.226  0.00  0.00    +0.118 A 
ATOM      6  N   UNL     1       6.124   0.778  27.680  0.00  0.00    -0.223 NA
ATOM      7  C   UNL     1       6.868   0.303  26.673  0.00  0.00    +0.221 A 
ATOM      8  N   UNL     1       7.769   1.214  26.113  0.00  0.00    -0.283 N 
ATOM      9  H   UNL     1       7.680   2.102  26.583  0.00  0.00    +0.155 HD
ATOM     10  N   UNL     1       6.758  -0.956  26.217  0.00  0.00    -0.199 NA
ENDROOT
BRANCH   1  12
ATOM     11  C   UNL     1       7.398  -4.589  25.215  0.00  0.00    +0.058 A 
ATOM     12  C   UNL     1       6.280  -3.722  25.142  0.00  0.00    +0.045 A 
ATOM     13  C   UNL     1       5.722  -3.498  23.871  0.00  0.00    +0.024 A 
ATOM     14  C   UNL     1       6.264  -4.062  22.712  0.00  0.00    +0.002 A 
ATOM     15  C   UNL     1       7.356  -4.912  22.800  0.00  0.00    +0.001 A 
ATOM     16  C   UNL     1       7.907  -5.194  24.047  0.00  0.00    +0.015 A 
BRANCH  11  20
ATOM     17  N   UNL     1       9.425  -4.950  26.539  0.00  0.00    -0.325 N 
ATOM     18  H   UNL     1      10.000  -4.582  25.794  0.00  0.00    +0.145 HD
ATOM     19  H   UNL     1       9.876  -5.112  27.430  0.00  0.00    +0.145 HD
ATOM     20  C   UNL     1       8.055  -4.893  26.521  0.00  0.00    +0.243 C 
ATOM     21  O   UNL     1       7.406  -5.054  27.549  0.00  0.00    -0.270 OA
ENDBRANCH  11  20
ENDBRANCH   1  12
BRANCH   8  22
ATOM     22  C   UNL     1       8.604   1.159  24.990  0.00  0.00    +0.037 A 
ATOM     23  C   UNL     1       9.814   0.447  25.059  0.00  0.00    +0.023 A 
ATOM     24  C   UNL     1      10.718   0.443  23.988  0.00  0.00    +0.005 A 
ATOM     25  C   UNL     1      10.422   1.143  22.822  0.00  0.00    +0.045 A 
ATOM     26  C   UNL     1       9.208   1.802  22.723  0.00  0.00    +0.119 A 
ATOM     27  C   UNL     1       8.310   1.809  23.788  0.00  0.00    +0.068 A 
BRANCH  26  28
ATOM     28  O   UNL     1       8.908   2.438  21.553  0.00  0.00    -0.507 OA
ATOM     29  H   UNL     1       7.942   2.553  21.524  0.00  0.00    +0.292 HD
ENDBRANCH  26  28
ENDBRANCH   8  22
TORSDOF 4
ENDMDL
MODEL 3
REMARK VINA RESULT:      -6.5      2.827      5.115
REMARK  Name = 
REMARK  4 active torsions:
REMARK  status: ('A' for Active; 'I' for Inactive)
REMARK    1  A    between atoms: C_2  and  C_4
REMARK    2  A    between atoms: C_9  and  N_10
REMARK    3  A    between atoms: N_14  and  C_15
REMARK    4  A    between atoms: C_17  and  O_18
REMARK                            x       y       z     vdW  Elec       q    Type
REMARK                         _______ _______ _______ _____ _____    ______ ____
ROOT
ATOM      1  N   UNL     1       6.677  -2.886  26.778  0.00  0.00    -0.299 N 
ATOM      2  H   UNL     1       5.941  -3.578  26.923  0.00  0.00    +0.154 HD
ATOM      3  C   UNL     1       7.755  -3.379  26.002  0.00  0.00    +0.128 A 
ATOM      4  C   UNL     1       8.173  -4.676  26.208  0.00  0.00    +0.063 A 
ATOM      5  C   UNL     1       9.256  -5.094  25.474  0.00  0.00    +0.118 A 
ATOM      6  N   UNL     1       9.910  -4.318  24.591  0.00  0.00    -0.223 NA
ATOM      7  C   UNL     1       9.460  -3.065  24.449  0.00  0.00    +0.221 A 
ATOM      8  N   UNL     1      10.168  -2.276  23.537  0.00  0.00    -0.283 N 
ATOM      9  H   UNL     1      10.925  -2.816  23.146  0.00  0.00    +0.155 HD
ATOM     10  N   UNL     1       8.411  -2.585  25.137  0.00  0.00    -0.199 NA
ENDROOT
BRANCH   1  12
ATOM     11  C   UNL     1       4.840  -1.220  26.607  0.00  0.00    +0.058 A 
ATOM     12  C   UNL     1       6.189  -1.556  26.880  0.00  0.00    +0.045 A 
ATOM     13  C   UNL     1       7.039  -0.516  27.296  0.00  0.00    +0.024 A 
ATOM     14  C   UNL     1       6.599   0.807  27.395  0.00  0.00    +0.002 A 
ATOM     15  C   UNL     1       5.275   1.119  27.130  0.00  0.00    +0.001 A 
ATOM     16  C   UNL     1       4.392   0.108  26.760  0.00  0.00    +0.015 A 
BRANCH  11  20
ATOM     17  N   UNL     1       2.849  -2.579  27.035  0.00  0.00    -0.325 N 
ATOM     18  H   UNL     1       2.606  -2.007  27.831  0.00  0.00    +0.145 HD
ATOM     19  H   UNL     1       2.158  -3.249  26.722  0.00  0.00    +0.145 HD
ATOM     20  C   UNL     1       3.860  -2.257  26.167  0.00  0.00    +0.243 C 
ATOM     21  O   UNL     1       3.930  -2.783  25.060  0.00  0.00    -0.270 OA
ENDBRANCH  11  20
ENDBRANCH   1  12
BRANCH   8  22
ATOM     22  C   UNL     1      10.108  -0.915  23.209  0.00  0.00    +0.037 A 
ATOM     23  C   UNL     1      10.713   0.029  24.056  0.00  0.00    +0.023 A 
ATOM     24  C   UNL     1      10.598   1.405  23.812  0.00  0.00    +0.005 A 
ATOM     25  C   UNL     1       9.884   1.860  22.708  0.00  0.00    +0.045 A 
ATOM     26  C   UNL     1       9.332   0.937  21.837  0.00  0.00    +0.119 A 
ATOM     27  C   UNL     1       9.443  -0.430  22.079  0.00  0.00    +0.068 A 
BRANCH  26  28
ATOM     28  O   UNL     1       8.682   1.398  20.728  0.00  0.00    -0.507 OA
ATOM     29  H   UNL     1       9.296   1.318  19.977  0.00  0.00    +0.292 HD
ENDBRANCH  26  28
ENDBRANCH   8  22
TORSDOF 4
ENDMDL
MODEL 4
REMARK VINA RESULT:      -6.5      1.523      2.280
REMARK  Name = 
REMARK  4 active torsions:
REMARK  status: ('A' for Active; 'I' for Inactive)
REMARK    1  A    between atoms: C_2  and  C_4
REMARK    2  A    between atoms: C_9  and  N_10
REMARK    3  A    between atoms: N_14  and  C_15
REMARK    4  A    between atoms: C_17  and  O_18
REMARK                            x       y       z     vdW  Elec       q    Type
REMARK                         _______ _______ _______ _____ _____    ______ ____
ROOT
ATOM      1  N   UNL     1       4.927  -4.074  25.060  0.00  0.00    -0.299 N 
ATOM      2  H   UNL     1       4.711  -4.684  25.848  0.00  0.00    +0.154 HD
ATOM      3  C   UNL     1       4.943  -2.702  25.411  0.00  0.00    +0.128 A 
ATOM      4  C   UNL     1       3.991  -2.239  26.294  0.00  0.00    +0.063 A 
ATOM      5  C   UNL     1       4.010  -0.891  26.562  0.00  0.00    +0.118 A 
ATOM      6  N   UNL     1       4.886  -0.029  26.018  0.00  0.00    -0.223 NA
ATOM      7  C   UNL     1       5.775  -0.542  25.158  0.00  0.00    +0.221 A 
ATOM      8  N   UNL     1       6.664   0.379  24.595  0.00  0.00    -0.283 N 
ATOM      9  H   UNL     1       6.454   1.301  24.946  0.00  0.00    +0.155 HD
ATOM     10  N   UNL     1       5.813  -1.848  24.842  0.00  0.00    -0.199 NA
ENDROOT
BRANCH   1  12
ATOM     11  C   UNL     1       5.061  -5.597  23.100  0.00  0.00    +0.058 A 
ATOM     12  C   UNL     1       5.671  -4.744  24.053  0.00  0.00    +0.045 A 
ATOM     13  C   UNL     1       7.060  -4.552  23.946  0.00  0.00    +0.024 A 
ATOM     14  C   UNL     1       7.828  -5.204  22.977  0.00  0.00    +0.002 A 
ATOM     15  C   UNL     1       7.215  -6.032  22.049  0.00  0.00    +0.001 A 
ATOM     16  C   UNL     1       5.836  -6.211  22.094  0.00  0.00    +0.015 A 
BRANCH  11  20
ATOM     17  N   UNL     1       3.184  -7.149  23.345  0.00  0.00    -0.325 N 
ATOM     18  H   UNL     1       3.798  -7.866  23.705  0.00  0.00    +0.145 HD
ATOM     19  H   UNL     1       2.188  -7.323  23.408  0.00  0.00    +0.145 HD
ATOM     20  C   UNL     1       3.591  -5.858  23.128  0.00  0.00    +0.243 C 
ATOM     21  O   UNL     1       2.771  -4.954  22.996  0.00  0.00    -0.270 OA
ENDBRANCH  11  20
ENDBRANCH   1  12
BRANCH   8  22
ATOM     22  C   UNL     1       7.625   0.276  23.580  0.00  0.00    +0.037 A 
ATOM     23  C   UNL     1       7.637   1.220  22.539  0.00  0.00    +0.023 A 
ATOM     24  C   UNL     1       8.523   1.100  21.459  0.00  0.00    +0.005 A 
ATOM     25  C   UNL     1       9.421   0.038  21.408  0.00  0.00    +0.045 A 
ATOM     26  C   UNL     1       9.455  -0.866  22.456  0.00  0.00    +0.119 A 
ATOM     27  C   UNL     1       8.573  -0.749  23.529  0.00  0.00    +0.068 A 
BRANCH  26  28
ATOM     28  O   UNL     1      10.379  -1.870  22.420  0.00  0.00    -0.507 OA
ATOM     29  H   UNL     1      11.025  -1.697  23.127  0.00  0.00    +0.292 HD
ENDBRANCH  26  28
ENDBRANCH   8  22
TORSDOF 4
ENDMDL
MODEL 5
REMARK VINA RESULT:      -6.4      2.506      4.602
REMARK  Name = 
REMARK  4 active torsions:
REMARK  status: ('A' for Active; 'I' for Inactive)
REMARK    1  A    between atoms: C_2  and  C_4
REMARK    2  A    between atoms: C_9  and  N_10
REMARK    3  A    between atoms: N_14  and  C_15
REMARK    4  A    between atoms: C_17  and  O_18
REMARK                            x       y       z     vdW  Elec       q    Type
REMARK                         _______ _______ _______ _____ _____    ______ ____
ROOT
ATOM      1  N   UNL     1       8.018  -3.327  22.684  0.00  0.00    -0.299 N 
ATOM      2  H   UNL     1       7.975  -3.780  21.771  0.00  0.00    +0.154 HD
ATOM      3  C   UNL     1       8.310  -1.943  22.603  0.00  0.00    +0.128 A 
ATOM      4  C   UNL     1       9.233  -1.521  21.671  0.00  0.00    +0.063 A 
ATOM      5  C   UNL     1       9.525  -0.178  21.665  0.00  0.00    +0.118 A 
ATOM      6  N   UNL     1       8.970   0.716  22.503  0.00  0.00    -0.223 NA
ATOM      7  C   UNL     1       8.091   0.236  23.391  0.00  0.00    +0.221 A 
ATOM      8  N   UNL     1       7.541   1.184  24.260  0.00  0.00    -0.283 N 
ATOM      9  H   UNL     1       7.933   2.091  24.056  0.00  0.00    +0.155 HD
ATOM     10  N   UNL     1       7.761  -1.065  23.461  0.00  0.00    -0.199 NA
ENDROOT
BRANCH   1  12
ATOM     11  C   UNL     1       7.857  -4.692  24.755  0.00  0.00    +0.058 A 
ATOM     12  C   UNL     1       7.256  -4.021  23.662  0.00  0.00    +0.045 A 
ATOM     13  C   UNL     1       5.852  -4.034  23.593  0.00  0.00    +0.024 A 
ATOM     14  C   UNL     1       5.069  -4.716  24.528  0.00  0.00    +0.002 A 
ATOM     15  C   UNL     1       5.672  -5.365  25.595  0.00  0.00    +0.001 A 
ATOM     16  C   UNL     1       7.057  -5.335  25.723  0.00  0.00    +0.015 A 
BRANCH  11  20
ATOM     17  N   UNL     1       9.880  -5.821  25.547  0.00  0.00    -0.325 N 
ATOM     18  H   UNL     1       9.368  -6.678  25.694  0.00  0.00    +0.145 HD
ATOM     19  H   UNL     1      10.889  -5.869  25.621  0.00  0.00    +0.145 HD
ATOM     20  C   UNL     1       9.341  -4.728  24.918  0.00  0.00    +0.243 C 
ATOM     21  O   UNL     1      10.061  -3.836  24.480  0.00  0.00    -0.270 OA
ENDBRANCH  11  20
ENDBRANCH   1  12
BRANCH   8  22
ATOM     22  C   UNL     1       6.716   1.076  25.387  0.00  0.00    +0.037 A 
ATOM     23  C   UNL     1       7.289   0.820  26.644  0.00  0.00    +0.023 A 
ATOM     24  C   UNL     1       6.492   0.615  27.779  0.00  0.00    +0.005 A 
ATOM     25  C   UNL     1       5.106   0.675  27.678  0.00  0.00    +0.045 A 
ATOM     26  C   UNL     1       4.533   0.982  26.456  0.00  0.00    +0.119 A 
ATOM     27  C   UNL     1       5.323   1.183  25.326  0.00  0.00    +0.068 A 
BRANCH  26  28
ATOM     28  O   UNL     1       3.174   1.092  26.384  0.00  0.00    -0.507 OA
ATOM     29  H   UNL     1       2.973   1.814  25.764  0.00  0.00    +0.292 HD
ENDBRANCH  26  28
ENDBRANCH   8  22
TORSDOF 4
ENDMDL
MODEL 6
REMARK VINA RESULT:      -6.3      2.162      5.879
REMARK  Name = 
REMARK  4 active torsions:
REMARK  status: ('A' for Active; 'I' for Inactive)
REMARK    1  A    between atoms: C_2  and  C_4
REMARK    2  A    between atoms: C_9  and  N_10
REMARK    3  A    between atoms: N_14  and  C_15
REMARK    4  A    between atoms: C_17  and  O_18
REMARK                            x       y       z     vdW  Elec       q    Type
REMARK                         _______ _______ _______ _____ _____    ______ ____
ROOT
ATOM      1  N   UNL     1       6.835   1.676  24.873  0.00  0.00    -0.299 N 
ATOM      2  H   UNL     1       6.459   2.623  24.822  0.00  0.00    +0.154 HD
ATOM      3  C   UNL     1       5.897   0.732  25.357  0.00  0.00    +0.128 A 
ATOM      4  C   UNL     1       5.059   1.108  26.384  0.00  0.00    +0.063 A 
ATOM      5  C   UNL     1       4.203   0.143  26.859  0.00  0.00    +0.118 A 
ATOM      6  N   UNL     1       4.149  -1.113  26.384  0.00  0.00    -0.223 NA
ATOM      7  C   UNL     1       5.000  -1.416  25.395  0.00  0.00    +0.221 A 
ATOM      8  N   UNL     1       4.933  -2.733  24.931  0.00  0.00    -0.283 N 
ATOM      9  H   UNL     1       4.235  -3.237  25.457  0.00  0.00    +0.155 HD
ATOM     10  N   UNL     1       5.869  -0.527  24.885  0.00  0.00    -0.199 NA
ENDROOT
BRANCH   1  12
ATOM     11  C   UNL     1       7.967   2.125  22.706  0.00  0.00    +0.058 A 
ATOM     12  C   UNL     1       7.910   1.478  23.965  0.00  0.00    +0.045 A 
ATOM     13  C   UNL     1       8.988   0.643  24.308  0.00  0.00    +0.024 A 
ATOM     14  C   UNL     1      10.055   0.412  23.436  0.00  0.00    +0.002 A 
ATOM     15  C   UNL     1      10.100   1.057  22.209  0.00  0.00    +0.001 A 
ATOM     16  C   UNL     1       9.074   1.927  21.854  0.00  0.00    +0.015 A 
BRANCH  11  20
ATOM     17  N   UNL     1       7.237   4.266  21.770  0.00  0.00    -0.325 N 
ATOM     18  H   UNL     1       8.183   4.490  21.494  0.00  0.00    +0.145 HD
ATOM     19  H   UNL     1       6.502   4.869  21.423  0.00  0.00    +0.145 HD
ATOM     20  C   UNL     1       6.874   3.036  22.256  0.00  0.00    +0.243 C 
ATOM     21  O   UNL     1       5.695   2.696  22.285  0.00  0.00    -0.270 OA
ENDBRANCH  11  20
ENDBRANCH   1  12
BRANCH   8  22
ATOM     22  C   UNL     1       5.720  -3.466  24.033  0.00  0.00    +0.037 A 
ATOM     23  C   UNL     1       5.303  -3.605  22.698  0.00  0.00    +0.023 A 
ATOM     24  C   UNL     1       6.014  -4.405  21.793  0.00  0.00    +0.005 A 
ATOM     25  C   UNL     1       7.163  -5.072  22.205  0.00  0.00    +0.045 A 
ATOM     26  C   UNL     1       7.614  -4.898  23.502  0.00  0.00    +0.119 A 
ATOM     27  C   UNL     1       6.907  -4.105  24.404  0.00  0.00    +0.068 A 
BRANCH  26  28
ATOM     28  O   UNL     1       8.773  -5.514  23.876  0.00  0.00    -0.507 OA
ATOM     29  H   UNL     1       8.596  -5.988  24.707  0.00  0.00    +0.292 HD
ENDBRANCH  26  28
ENDBRANCH   8  22
TORSDOF 4
ENDMDL
MODEL 7
REMARK VINA RESULT:      -6.3      2.808      6.607
REMARK  Name = 
REMARK  4 active torsions:
REMARK  status: ('A' for Active; 'I' for Inactive)
REMARK    1  A    between atoms: C_2  and  C_4
REMARK    2  A    between atoms: C_9  and  N_10
REMARK    3  A    between atoms: N_14  and  C_15
REMARK    4  A    between atoms: C_17  and  O_18
REMARK                            x       y       z     vdW  Elec       q    Type
REMARK                         _______ _______ _______ _____ _____    ______ ____
ROOT
ATOM      1  N   UNL     1       7.992  -3.403  23.148  0.00  0.00    -0.299 N 
ATOM      2  H   UNL     1       8.897  -3.473  22.683  0.00  0.00    +0.154 HD
ATOM      3  C   UNL     1       7.100  -4.442  22.783  0.00  0.00    +0.128 A 
ATOM      4  C   UNL     1       7.077  -4.854  21.468  0.00  0.00    +0.063 A 
ATOM      5  C   UNL     1       6.159  -5.825  21.147  0.00  0.00    +0.118 A 
ATOM      6  N   UNL     1       5.305  -6.372  22.030  0.00  0.00    -0.223 NA
ATOM      7  C   UNL     1       5.372  -5.917  23.288  0.00  0.00    +0.221 A 
ATOM      8  N   UNL     1       4.463  -6.492  24.181  0.00  0.00    -0.283 N 
ATOM      9  H   UNL     1       3.892  -7.164  23.690  0.00  0.00    +0.155 HD
ATOM     10  N   UNL     1       6.239  -4.966  23.673  0.00  0.00    -0.199 NA
ENDROOT
BRANCH   1  12
ATOM     11  C   UNL     1       8.643  -3.254  25.542  0.00  0.00    +0.058 A 
ATOM     12  C   UNL     1       8.073  -2.690  24.374  0.00  0.00    +0.045 A 
ATOM     13  C   UNL     1       7.612  -1.365  24.459  0.00  0.00    +0.024 A 
ATOM     14  C   UNL     1       7.663  -0.636  25.651  0.00  0.00    +0.002 A 
ATOM     15  C   UNL     1       8.228  -1.200  26.785  0.00  0.00    +0.001 A 
ATOM     16  C   UNL     1       8.737  -2.494  26.726  0.00  0.00    +0.015 A 
BRANCH  11  20
ATOM     17  N   UNL     1       8.426  -5.600  26.208  0.00  0.00    -0.325 N 
ATOM     18  H   UNL     1       7.465  -5.453  26.482  0.00  0.00    +0.145 HD
ATOM     19  H   UNL     1       8.754  -6.557  26.178  0.00  0.00    +0.145 HD
ATOM     20  C   UNL     1       9.166  -4.653  25.548  0.00  0.00    +0.243 C 
ATOM     21  O   UNL     1      10.199  -4.959  24.961  0.00  0.00    -0.270 OA
ENDBRANCH  11  20
ENDBRANCH   1  12
BRANCH   8  22
ATOM     22  C   UNL     1       4.124  -6.205  25.510  0.00  0.00    +0.037 A 
ATOM     23  C   UNL     1       3.345  -5.071  25.798  0.00  0.00    +0.023 A 
ATOM     24  C   UNL     1       3.061  -4.700  27.120  0.00  0.00    +0.005 A 
ATOM     25  C   UNL     1       3.543  -5.465  28.178  0.00  0.00    +0.045 A 
ATOM     26  C   UNL     1       4.264  -6.615  27.904  0.00  0.00    +0.119 A 
ATOM     27  C   UNL     1       4.549  -6.983  26.591  0.00  0.00    +0.068 A 
BRANCH  26  28
ATOM     28  O   UNL     1       4.682  -7.385  28.950  0.00  0.00    -0.507 OA
ATOM     29  H   UNL     1       5.243  -6.826  29.517  0.00  0.00    +0.292 HD
ENDBRANCH  26  28
ENDBRANCH   8  22
TORSDOF 4
ENDMDL
MODEL 8
REMARK VINA RESULT:      -6.3      2.685      5.041
REMARK  Name = 
REMARK  4 active torsions:
REMARK  status: ('A' for Active; 'I' for Inactive)
REMARK    1  A    between atoms: C_2  and  C_4
REMARK    2  A    between atoms: C_9  and  N_10
REMARK    3  A    between atoms: N_14  and  C_15
REMARK    4  A    between atoms: C_17  and  O_18
REMARK                            x       y       z     vdW  Elec       q    Type
REMARK                         _______ _______ _______ _____ _____    ______ ____
ROOT
ATOM      1  N   UNL     1       8.604  -2.650  22.479  0.00  0.00    -0.299 N 
ATOM      2  H   UNL     1       8.603  -3.060  21.546  0.00  0.00    +0.154 HD
ATOM      3  C   UNL     1       8.599  -1.233  22.463  0.00  0.00    +0.128 A 
ATOM      4  C   UNL     1       9.362  -0.586  21.514  0.00  0.00    +0.063 A 
ATOM      5  C   UNL     1       9.371   0.787  21.570  0.00  0.00    +0.118 A 
ATOM      6  N   UNL     1       8.693   1.507  22.481  0.00  0.00    -0.223 NA
ATOM      7  C   UNL     1       7.982   0.815  23.381  0.00  0.00    +0.221 A 
ATOM      8  N   UNL     1       7.300   1.588  24.325  0.00  0.00    -0.283 N 
ATOM      9  H   UNL     1       7.485   2.564  24.154  0.00  0.00    +0.155 HD
ATOM     10  N   UNL     1       7.931  -0.527  23.392  0.00  0.00    -0.199 NA
ENDROOT
BRANCH   1  12
ATOM     11  C   UNL     1       6.908  -4.320  23.197  0.00  0.00    +0.058 A 
ATOM     12  C   UNL     1       8.056  -3.530  23.451  0.00  0.00    +0.045 A 
ATOM     13  C   UNL     1       8.670  -3.672  24.709  0.00  0.00    +0.024 A 
ATOM     14  C   UNL     1       8.153  -4.517  25.695  0.00  0.00    +0.002 A 
ATOM     15  C   UNL     1       7.031  -5.288  25.430  0.00  0.00    +0.001 A 
ATOM     16  C   UNL     1       6.424  -5.208  24.180  0.00  0.00    +0.015 A 
BRANCH  11  20
ATOM     17  N   UNL     1       6.214  -5.359  21.092  0.00  0.00    -0.325 N 
ATOM     18  H   UNL     1       6.482  -6.271  21.432  0.00  0.00    +0.145 HD
ATOM     19  H   UNL     1       5.694  -5.325  20.225  0.00  0.00    +0.145 HD
ATOM     20  C   UNL     1       6.192  -4.243  21.889  0.00  0.00    +0.243 C 
ATOM     21  O   UNL     1       5.578  -3.238  21.547  0.00  0.00    -0.270 OA
ENDBRANCH  11  20
ENDBRANCH   1  12
BRANCH   8  22
ATOM     22  C   UNL     1       6.579   1.260  25.482  0.00  0.00    +0.037 A 
ATOM     23  C   UNL     1       7.252   1.155  26.711  0.00  0.00    +0.023 A 
ATOM     24  C   UNL     1       6.584   0.741  27.872  0.00  0.00    +0.005 A 
ATOM     25  C   UNL     1       5.228   0.435  27.826  0.00  0.00    +0.045 A 
ATOM     26  C   UNL     1       4.544   0.589  26.632  0.00  0.00    +0.119 A 
ATOM     27  C   UNL     1       5.206   0.998  25.476  0.00  0.00    +0.068 A 
BRANCH  26  28
ATOM     28  O   UNL     1       3.202   0.339  26.615  0.00  0.00    -0.507 OA
ATOM     29  H   UNL     1       2.753   1.174  26.395  0.00  0.00    +0.292 HD
ENDBRANCH  26  28
ENDBRANCH   8  22
TORSDOF 4
ENDMDL
MODEL 9
REMARK VINA RESULT:      -6.2      2.608      4.721
REMARK  Name = 
REMARK  4 active torsions:
REMARK  status: ('A' for Active; 'I' for Inactive)
REMARK    1  A    between atoms: C_2  and  C_4
REMARK    2  A    between atoms: C_9  and  N_10
REMARK    3  A    between atoms: N_14  and  C_15
REMARK    4  A    between atoms: C_17  and  O_18
REMARK                            x       y       z     vdW  Elec       q    Type
REMARK                         _______ _______ _______ _____ _____    ______ ____
ROOT
ATOM      1  N   UNL     1       8.265  -3.056  23.275  0.00  0.00    -0.299 N 
ATOM      2  H   UNL     1       8.462  -3.318  22.309  0.00  0.00    +0.154 HD
ATOM      3  C   UNL     1       8.840  -1.814  23.640  0.00  0.00    +0.128 A 
ATOM      4  C   UNL     1      10.102  -1.514  23.175  0.00  0.00    +0.063 A 
ATOM      5  C   UNL     1      10.643  -0.324  23.600  0.00  0.00    +0.118 A 
ATOM      6  N   UNL     1      10.018   0.534  24.424  0.00  0.00    -0.223 NA
ATOM      7  C   UNL     1       8.800   0.175  24.849  0.00  0.00    +0.221 A 
ATOM      8  N   UNL     1       8.179   1.078  25.717  0.00  0.00    -0.283 N 
ATOM      9  H   UNL     1       8.794   1.861  25.880  0.00  0.00    +0.155 HD
ATOM     10  N   UNL     1       8.210  -0.975  24.482  0.00  0.00    -0.199 NA
ENDROOT
BRANCH   1  12
ATOM     11  C   UNL     1       7.098  -4.688  24.743  0.00  0.00    +0.058 A 
ATOM     12  C   UNL     1       7.077  -3.665  23.763  0.00  0.00    +0.045 A 
ATOM     13  C   UNL     1       5.818  -3.239  23.305  0.00  0.00    +0.024 A 
ATOM     14  C   UNL     1       4.630  -3.823  23.751  0.00  0.00    +0.002 A 
ATOM     15  C   UNL     1       4.666  -4.820  24.714  0.00  0.00    +0.001 A 
ATOM     16  C   UNL     1       5.892  -5.235  25.226  0.00  0.00    +0.015 A 
BRANCH  11  20
ATOM     17  N   UNL     1       8.386  -5.638  26.596  0.00  0.00    -0.325 N 
ATOM     18  H   UNL     1       7.538  -5.840  27.107  0.00  0.00    +0.145 HD
ATOM     19  H   UNL     1       9.246  -6.027  26.961  0.00  0.00    +0.145 HD
ATOM     20  C   UNL     1       8.387  -5.201  25.296  0.00  0.00    +0.243 C 
ATOM     21  O   UNL     1       9.404  -5.264  24.613  0.00  0.00    -0.270 OA
ENDBRANCH  11  20
ENDBRANCH   1  12
BRANCH   8  22
ATOM     22  C   UNL     1       7.000   1.015  26.472  0.00  0.00    +0.037 A 
ATOM     23  C   UNL     1       7.067   0.690  27.837  0.00  0.00    +0.023 A 
ATOM     24  C   UNL     1       5.904   0.528  28.604  0.00  0.00    +0.005 A 
ATOM     25  C   UNL     1       4.653   0.701  28.020  0.00  0.00    +0.045 A 
ATOM     26  C   UNL     1       4.578   1.077  26.689  0.00  0.00    +0.119 A 
ATOM     27  C   UNL     1       5.732   1.235  25.925  0.00  0.00    +0.068 A 
BRANCH  26  28
ATOM     28  O   UNL     1       3.346   1.297  26.145  0.00  0.00    -0.507 OA
ATOM     29  H   UNL     1       2.690   0.874  26.727  0.00  0.00    +0.292 HD
ENDBRANCH  26  28
ENDBRANCH   8  22
TORSDOF 4
ENDMDL
