MODEL 1
REMARK VINA RESULT:      -7.4      0.000      0.000
REMARK  Name = 
REMARK  2 active torsions:
REMARK  status: ('A' for Active; 'I' for Inactive)
REMARK    1  A    between atoms: C_6  and  C_8
REMARK    2  A    between atoms: C_6  and  C_14
REMARK                            x       y       z     vdW  Elec       q    Type
REMARK                         _______ _______ _______ _____ _____    ______ ____
ROOT
ATOM      1  O   UNL     1       6.898  -5.275  28.100  0.00  0.00    -0.252 OA
ATOM      2  C   UNL     1       7.489  -5.032  27.065  0.00  0.00    +0.307 C 
ATOM      3  N   UNL     1       7.141  -4.054  26.176  0.00  0.00    -0.278 N 
ATOM      4  H   UNL     1       6.392  -3.409  26.376  0.00  0.00    +0.152 HD
ATOM      5  C   UNL     1       8.053  -3.942  25.046  0.00  0.00    +0.163 C 
ATOM      6  C   UNL     1       9.065  -5.050  25.495  0.00  0.00    +0.253 C 
ATOM      7  O   UNL     1      10.121  -5.360  24.954  0.00  0.00    -0.272 OA
ATOM      8  N   UNL     1       8.600  -5.652  26.623  0.00  0.00    -0.238 N 
ATOM      9  H   UNL     1       9.081  -6.380  27.124  0.00  0.00    +0.159 HD
ENDROOT
BRANCH   5  10
ATOM     10  C   UNL     1       8.619  -2.515  25.032  0.00  0.00    -0.011 A 
ATOM     11  C   UNL     1       8.239  -1.603  26.038  0.00  0.00    +0.006 A 
ATOM     12  C   UNL     1       8.782  -0.316  26.094  0.00  0.00    +0.000 A 
ATOM     13  C   UNL     1       9.720   0.087  25.148  0.00  0.00    +0.000 A 
ATOM     14  C   UNL     1      10.111  -0.795  24.147  0.00  0.00    +0.000 A 
ATOM     15  C   UNL     1       9.568  -2.083  24.089  0.00  0.00    +0.006 A 
ENDBRANCH   5  10
BRANCH   5  16
ATOM     16  C   UNL     1       7.389  -4.365  23.725  0.00  0.00    -0.011 A 
ATOM     17  C   UNL     1       6.491  -3.495  23.076  0.00  0.00    +0.006 A 
ATOM     18  C   UNL     1       5.920  -3.833  21.847  0.00  0.00    +0.000 A 
ATOM     19  C   UNL     1       6.217  -5.055  21.250  0.00  0.00    +0.000 A 
ATOM     20  C   UNL     1       7.080  -5.943  21.885  0.00  0.00    +0.000 A 
ATOM     21  C   UNL     1       7.659  -5.604  23.111  0.00  0.00    +0.006 A 
ENDBRANCH   5  16
TORSDOF 2
ENDMDL
MODEL 2
REMARK VINA RESULT:      -6.6      1.908      2.437
REMARK  Name = 
REMARK  2 active torsions:
REMARK  status: ('A' for Active; 'I' for Inactive)
REMARK    1  A    between atoms: C_6  and  C_8
REMARK    2  A    between atoms: C_6  and  C_14
REMARK                            x       y       z     vdW  Elec       q    Type
REMARK                         _______ _______ _______ _____ _____    ______ ____
ROOT
ATOM      1  O   UNL     1       6.592  -2.611  27.119  0.00  0.00    -0.252 OA
ATOM      2  C   UNL     1       7.207  -2.830  26.092  0.00  0.00    +0.307 C 
ATOM      3  N   UNL     1       6.807  -2.445  24.843  0.00  0.00    -0.278 N 
ATOM      4  H   UNL     1       5.986  -1.873  24.711  0.00  0.00    +0.152 HD
ATOM      5  C   UNL     1       7.758  -2.786  23.795  0.00  0.00    +0.163 C 
ATOM      6  C   UNL     1       8.854  -3.420  24.718  0.00  0.00    +0.253 C 
ATOM      7  O   UNL     1       9.963  -3.827  24.389  0.00  0.00    -0.272 OA
ATOM      8  N   UNL     1       8.397  -3.455  25.999  0.00  0.00    -0.238 N 
ATOM      9  H   UNL     1       8.923  -3.792  26.787  0.00  0.00    +0.159 HD
ENDROOT
BRANCH   5  10
ATOM     10  C   UNL     1       8.176  -1.487  23.092  0.00  0.00    -0.011 A 
ATOM     11  C   UNL     1       9.220  -1.511  22.143  0.00  0.00    +0.006 A 
ATOM     12  C   UNL     1       9.586  -0.362  21.437  0.00  0.00    +0.000 A 
ATOM     13  C   UNL     1       8.915   0.836  21.660  0.00  0.00    +0.000 A 
ATOM     14  C   UNL     1       7.882   0.885  22.590  0.00  0.00    +0.000 A 
ATOM     15  C   UNL     1       7.514  -0.264  23.298  0.00  0.00    +0.006 A 
ENDBRANCH   5  10
BRANCH   5  16
ATOM     16  C   UNL     1       7.209  -3.864  22.846  0.00  0.00    -0.011 A 
ATOM     17  C   UNL     1       6.330  -3.506  21.806  0.00  0.00    +0.006 A 
ATOM     18  C   UNL     1       5.863  -4.458  20.895  0.00  0.00    +0.000 A 
ATOM     19  C   UNL     1       6.249  -5.790  21.017  0.00  0.00    +0.000 A 
ATOM     20  C   UNL     1       7.094  -6.173  22.054  0.00  0.00    +0.000 A 
ATOM     21  C   UNL     1       7.569  -5.221  22.961  0.00  0.00    +0.006 A 
ENDBRANCH   5  16
TORSDOF 2
ENDMDL
MODEL 3
REMARK VINA RESULT:      -6.5      5.120      7.992
REMARK  Name = 
REMARK  2 active torsions:
REMARK  status: ('A' for Active; 'I' for Inactive)
REMARK    1  A    between atoms: C_6  and  C_8
REMARK    2  A    between atoms: C_6  and  C_14
REMARK                            x       y       z     vdW  Elec       q    Type
REMARK                         _______ _______ _______ _____ _____    ______ ____
ROOT
ATOM      1  O   UNL     1       6.541   2.631  26.514  0.00  0.00    -0.252 OA
ATOM      2  C   UNL     1       7.131   2.768  25.459  0.00  0.00    +0.307 C 
ATOM      3  N   UNL     1       8.432   2.411  25.238  0.00  0.00    -0.278 N 
ATOM      4  H   UNL     1       8.969   1.930  25.944  0.00  0.00    +0.152 HD
ATOM      5  C   UNL     1       8.872   2.632  23.867  0.00  0.00    +0.163 C 
ATOM      6  C   UNL     1       7.509   3.155  23.301  0.00  0.00    +0.253 C 
ATOM      7  O   UNL     1       7.242   3.436  22.137  0.00  0.00    -0.272 OA
ATOM      8  N   UNL     1       6.610   3.258  24.317  0.00  0.00    -0.238 N 
ATOM      9  H   UNL     1       5.653   3.547  24.209  0.00  0.00    +0.159 HD
ENDROOT
BRANCH   5  10
ATOM     10  C   UNL     1       9.337   1.286  23.295  0.00  0.00    -0.011 A 
ATOM     11  C   UNL     1       9.763   0.264  24.169  0.00  0.00    +0.006 A 
ATOM     12  C   UNL     1      10.134  -0.995  23.689  0.00  0.00    +0.000 A 
ATOM     13  C   UNL     1      10.084  -1.263  22.325  0.00  0.00    +0.000 A 
ATOM     14  C   UNL     1       9.667  -0.272  21.442  0.00  0.00    +0.000 A 
ATOM     15  C   UNL     1       9.296   0.989  21.921  0.00  0.00    +0.006 A 
ENDBRANCH   5  10
BRANCH   5  16
ATOM     16  C   UNL     1       9.924   3.750  23.772  0.00  0.00    -0.011 A 
ATOM     17  C   UNL     1       9.585   5.069  24.132  0.00  0.00    +0.006 A 
ATOM     18  C   UNL     1      10.538   6.090  24.109  0.00  0.00    +0.000 A 
ATOM     19  C   UNL     1      11.843   5.820  23.707  0.00  0.00    +0.000 A 
ATOM     20  C   UNL     1      12.195   4.531  23.320  0.00  0.00    +0.000 A 
ATOM     21  C   UNL     1      11.245   3.505  23.350  0.00  0.00    +0.006 A 
ENDBRANCH   5  16
TORSDOF 2
ENDMDL
MODEL 4
REMARK VINA RESULT:      -6.4      1.806      4.781
REMARK  Name = 
REMARK  2 active torsions:
REMARK  status: ('A' for Active; 'I' for Inactive)
REMARK    1  A    between atoms: C_6  and  C_8
REMARK    2  A    between atoms: C_6  and  C_14
REMARK                            x       y       z     vdW  Elec       q    Type
REMARK                         _______ _______ _______ _____ _____    ______ ____
ROOT
ATOM      1  O   UNL     1       9.065  -4.525  27.033  0.00  0.00    -0.252 OA
ATOM      2  C   UNL     1       8.535  -3.863  26.161  0.00  0.00    +0.307 C 
ATOM      3  N   UNL     1       8.888  -3.884  24.840  0.00  0.00    -0.278 N 
ATOM      4  H   UNL     1       9.583  -4.528  24.495  0.00  0.00    +0.152 HD
ATOM      5  C   UNL     1       8.053  -3.036  24.001  0.00  0.00    +0.163 C 
ATOM      6  C   UNL     1       7.077  -2.543  25.123  0.00  0.00    +0.253 C 
ATOM      7  O   UNL     1       6.080  -1.841  24.990  0.00  0.00    -0.272 OA
ATOM      8  N   UNL     1       7.495  -3.023  26.325  0.00  0.00    -0.238 N 
ATOM      9  H   UNL     1       7.023  -2.870  27.199  0.00  0.00    +0.159 HD
ENDROOT
BRANCH   5  10
ATOM     10  C   UNL     1       7.407  -3.921  22.925  0.00  0.00    -0.011 A 
ATOM     11  C   UNL     1       7.740  -5.290  22.854  0.00  0.00    +0.006 A 
ATOM     12  C   UNL     1       7.127  -6.140  21.929  0.00  0.00    +0.000 A 
ATOM     13  C   UNL     1       6.164  -5.641  21.057  0.00  0.00    +0.000 A 
ATOM     14  C   UNL     1       5.819  -4.295  21.107  0.00  0.00    +0.000 A 
ATOM     15  C   UNL     1       6.432  -3.443  22.032  0.00  0.00    +0.006 A 
ENDBRANCH   5  10
BRANCH   5  16
ATOM     16  C   UNL     1       8.830  -1.834  23.440  0.00  0.00    -0.011 A 
ATOM     17  C   UNL     1       8.813  -1.567  22.057  0.00  0.00    +0.006 A 
ATOM     18  C   UNL     1       9.464  -0.448  21.530  0.00  0.00    +0.000 A 
ATOM     19  C   UNL     1      10.163   0.415  22.371  0.00  0.00    +0.000 A 
ATOM     20  C   UNL     1      10.217   0.156  23.736  0.00  0.00    +0.000 A 
ATOM     21  C   UNL     1       9.560  -0.959  24.267  0.00  0.00    +0.006 A 
ENDBRANCH   5  16
TORSDOF 2
ENDMDL
MODEL 5
REMARK VINA RESULT:      -6.4      1.167      4.617
REMARK  Name = 
REMARK  2 active torsions:
REMARK  status: ('A' for Active; 'I' for Inactive)
REMARK    1  A    between atoms: C_6  and  C_8
REMARK    2  A    between atoms: C_6  and  C_14
REMARK                            x       y       z     vdW  Elec       q    Type
REMARK                         _______ _______ _______ _____ _____    ______ ____
ROOT
ATOM      1  O   UNL     1       7.553  -5.958  27.843  0.00  0.00    -0.252 OA
ATOM      2  C   UNL     1       7.293  -5.074  27.048  0.00  0.00    +0.307 C 
ATOM      3  N   UNL     1       7.978  -4.837  25.890  0.00  0.00    -0.278 N 
ATOM      4  H   UNL     1       8.717  -5.453  25.585  0.00  0.00    +0.152 HD
ATOM      5  C   UNL     1       7.421  -3.752  25.095  0.00  0.00    +0.163 C 
ATOM      6  C   UNL     1       6.203  -3.427  26.025  0.00  0.00    +0.253 C 
ATOM      7  O   UNL     1       5.301  -2.622  25.820  0.00  0.00    -0.272 OA
ATOM      8  N   UNL     1       6.275  -4.196  27.144  0.00  0.00    -0.238 N 
ATOM      9  H   UNL     1       5.596  -4.195  27.886  0.00  0.00    +0.159 HD
ENDROOT
BRANCH   5  10
ATOM     10  C   UNL     1       7.051  -4.314  23.715  0.00  0.00    -0.011 A 
ATOM     11  C   UNL     1       6.287  -3.531  22.824  0.00  0.00    +0.006 A 
ATOM     12  C   UNL     1       5.983  -3.984  21.537  0.00  0.00    +0.000 A 
ATOM     13  C   UNL     1       6.439  -5.227  21.110  0.00  0.00    +0.000 A 
ATOM     14  C   UNL     1       7.195  -6.017  21.971  0.00  0.00    +0.000 A 
ATOM     15  C   UNL     1       7.499  -5.566  23.259  0.00  0.00    +0.006 A 
ENDBRANCH   5  10
BRANCH   5  16
ATOM     16  C   UNL     1       8.360  -2.534  25.044  0.00  0.00    -0.011 A 
ATOM     17  C   UNL     1       9.287  -2.402  23.992  0.00  0.00    +0.006 A 
ATOM     18  C   UNL     1      10.110  -1.277  23.892  0.00  0.00    +0.000 A 
ATOM     19  C   UNL     1      10.038  -0.271  24.851  0.00  0.00    +0.000 A 
ATOM     20  C   UNL     1       9.150  -0.393  25.915  0.00  0.00    +0.000 A 
ATOM     21  C   UNL     1       8.320  -1.513  26.013  0.00  0.00    +0.006 A 
ENDBRANCH   5  16
TORSDOF 2
ENDMDL
MODEL 6
REMARK VINA RESULT:      -6.4      2.567      3.130
REMARK  Name = 
REMARK  2 active torsions:
REMARK  status: ('A' for Active; 'I' for Inactive)
REMARK    1  A    between atoms: C_6  and  C_8
REMARK    2  A    between atoms: C_6  and  C_14
REMARK                            x       y       z     vdW  Elec       q    Type
REMARK                         _______ _______ _______ _____ _____    ______ ____
ROOT
ATOM      1  O   UNL     1       4.441  -0.988  25.854  0.00  0.00    -0.252 OA
ATOM      2  C   UNL     1       5.459  -1.432  25.356  0.00  0.00    +0.307 C 
ATOM      3  N   UNL     1       5.708  -1.501  24.014  0.00  0.00    -0.278 N 
ATOM      4  H   UNL     1       5.067  -1.105  23.343  0.00  0.00    +0.152 HD
ATOM      5  C   UNL     1       7.028  -2.023  23.692  0.00  0.00    +0.163 C 
ATOM      6  C   UNL     1       7.538  -2.201  25.163  0.00  0.00    +0.253 C 
ATOM      7  O   UNL     1       8.655  -2.547  25.529  0.00  0.00    -0.272 OA
ATOM      8  N   UNL     1       6.530  -1.900  26.026  0.00  0.00    -0.238 N 
ATOM      9  H   UNL     1       6.611  -1.911  27.028  0.00  0.00    +0.159 HD
ENDROOT
BRANCH   5  10
ATOM     10  C   UNL     1       7.773  -0.961  22.872  0.00  0.00    -0.011 A 
ATOM     11  C   UNL     1       7.262   0.352  22.801  0.00  0.00    +0.006 A 
ATOM     12  C   UNL     1       7.945   1.362  22.117  0.00  0.00    +0.000 A 
ATOM     13  C   UNL     1       9.157   1.083  21.492  0.00  0.00    +0.000 A 
ATOM     14  C   UNL     1       9.682  -0.204  21.549  0.00  0.00    +0.000 A 
ATOM     15  C   UNL     1       8.999  -1.215  22.233  0.00  0.00    +0.006 A 
ENDBRANCH   5  10
BRANCH   5  16
ATOM     16  C   UNL     1       6.954  -3.401  23.011  0.00  0.00    -0.011 A 
ATOM     17  C   UNL     1       6.130  -3.586  21.883  0.00  0.00    +0.006 A 
ATOM     18  C   UNL     1       6.089  -4.811  21.213  0.00  0.00    +0.000 A 
ATOM     19  C   UNL     1       6.854  -5.882  21.667  0.00  0.00    +0.000 A 
ATOM     20  C   UNL     1       7.654  -5.732  22.796  0.00  0.00    +0.000 A 
ATOM     21  C   UNL     1       7.702  -4.504  23.463  0.00  0.00    +0.006 A 
ENDBRANCH   5  16
TORSDOF 2
ENDMDL
MODEL 7
REMARK VINA RESULT:      -6.3      2.801      4.369
REMARK  Name = 
REMARK  2 active torsions:
REMARK  status: ('A' for Active; 'I' for Inactive)
REMARK    1  A    between atoms: C_6  and  C_8
REMARK    2  A    between atoms: C_6  and  C_14
REMARK                            x       y       z     vdW  Elec       q    Type
REMARK                         _______ _______ _______ _____ _____    ______ ____
ROOT
ATOM      1  O   UNL     1       5.678  -3.952  20.748  0.00  0.00    -0.252 OA
ATOM      2  C   UNL     1       6.025  -3.408  21.780  0.00  0.00    +0.307 C 
ATOM      3  N   UNL     1       7.314  -3.323  22.225  0.00  0.00    -0.278 N 
ATOM      4  H   UNL     1       8.083  -3.655  21.663  0.00  0.00    +0.152 HD
ATOM      5  C   UNL     1       7.456  -2.568  23.462  0.00  0.00    +0.163 C 
ATOM      6  C   UNL     1       5.949  -2.170  23.627  0.00  0.00    +0.253 C 
ATOM      7  O   UNL     1       5.459  -1.438  24.481  0.00  0.00    -0.272 OA
ATOM      8  N   UNL     1       5.217  -2.767  22.648  0.00  0.00    -0.238 N 
ATOM      9  H   UNL     1       4.227  -2.649  22.519  0.00  0.00    +0.159 HD
ENDROOT
BRANCH   5  10
ATOM     10  C   UNL     1       8.409  -1.395  23.197  0.00  0.00    -0.011 A 
ATOM     11  C   UNL     1       8.895  -1.171  21.891  0.00  0.00    +0.006 A 
ATOM     12  C   UNL     1       9.714  -0.077  21.599  0.00  0.00    +0.000 A 
ATOM     13  C   UNL     1      10.064   0.820  22.604  0.00  0.00    +0.000 A 
ATOM     14  C   UNL     1       9.597   0.621  23.899  0.00  0.00    +0.000 A 
ATOM     15  C   UNL     1       8.778  -0.474  24.193  0.00  0.00    +0.006 A 
ENDBRANCH   5  10
BRANCH   5  16
ATOM     16  C   UNL     1       7.876  -3.463  24.640  0.00  0.00    -0.011 A 
ATOM     17  C   UNL     1       6.940  -3.805  25.635  0.00  0.00    +0.006 A 
ATOM     18  C   UNL     1       7.282  -4.663  26.683  0.00  0.00    +0.000 A 
ATOM     19  C   UNL     1       8.571  -5.181  26.771  0.00  0.00    +0.000 A 
ATOM     20  C   UNL     1       9.521  -4.835  25.815  0.00  0.00    +0.000 A 
ATOM     21  C   UNL     1       9.179  -3.983  24.761  0.00  0.00    +0.006 A 
ENDBRANCH   5  16
TORSDOF 2
ENDMDL
MODEL 8
REMARK VINA RESULT:      -6.2      2.614      4.590
REMARK  Name = 
REMARK  2 active torsions:
REMARK  status: ('A' for Active; 'I' for Inactive)
REMARK    1  A    between atoms: C_6  and  C_8
REMARK    2  A    between atoms: C_6  and  C_14
REMARK                            x       y       z     vdW  Elec       q    Type
REMARK                         _______ _______ _______ _____ _____    ______ ____
ROOT
ATOM      1  O   UNL     1       5.878  -5.367  20.677  0.00  0.00    -0.252 OA
ATOM      2  C   UNL     1       6.527  -5.012  21.644  0.00  0.00    +0.307 C 
ATOM      3  N   UNL     1       6.337  -3.845  22.329  0.00  0.00    -0.278 N 
ATOM      4  H   UNL     1       5.570  -3.228  22.106  0.00  0.00    +0.152 HD
ATOM      5  C   UNL     1       7.215  -3.694  23.480  0.00  0.00    +0.163 C 
ATOM      6  C   UNL     1       7.944  -5.075  23.358  0.00  0.00    +0.253 C 
ATOM      7  O   UNL     1       8.767  -5.557  24.129  0.00  0.00    -0.272 OA
ATOM      8  N   UNL     1       7.519  -5.709  22.231  0.00  0.00    -0.238 N 
ATOM      9  H   UNL     1       7.818  -6.624  21.940  0.00  0.00    +0.159 HD
ENDROOT
BRANCH   5  10
ATOM     10  C   UNL     1       6.339  -3.533  24.729  0.00  0.00    -0.011 A 
ATOM     11  C   UNL     1       5.380  -2.499  24.782  0.00  0.00    +0.006 A 
ATOM     12  C   UNL     1       4.521  -2.360  25.876  0.00  0.00    +0.000 A 
ATOM     13  C   UNL     1       4.599  -3.252  26.941  0.00  0.00    +0.000 A 
ATOM     14  C   UNL     1       5.535  -4.280  26.912  0.00  0.00    +0.000 A 
ATOM     15  C   UNL     1       6.396  -4.421  25.818  0.00  0.00    +0.006 A 
ENDBRANCH   5  10
BRANCH   5  16
ATOM     16  C   UNL     1       8.237  -2.562  23.282  0.00  0.00    -0.011 A 
ATOM     17  C   UNL     1       8.945  -2.049  24.386  0.00  0.00    +0.006 A 
ATOM     18  C   UNL     1       9.919  -1.061  24.223  0.00  0.00    +0.000 A 
ATOM     19  C   UNL     1      10.193  -0.551  22.958  0.00  0.00    +0.000 A 
ATOM     20  C   UNL     1       9.487  -1.021  21.855  0.00  0.00    +0.000 A 
ATOM     21  C   UNL     1       8.517  -2.016  22.014  0.00  0.00    +0.006 A 
ENDBRANCH   5  16
TORSDOF 2
ENDMDL
MODEL 9
REMARK VINA RESULT:      -6.0      2.615      5.439
REMARK  Name = 
REMARK  2 active torsions:
REMARK  status: ('A' for Active; 'I' for Inactive)
REMARK    1  A    between atoms: C_6  and  C_8
REMARK    2  A    between atoms: C_6  and  C_14
REMARK                            x       y       z     vdW  Elec       q    Type
REMARK                         _______ _______ _______ _____ _____    ______ ____
ROOT
ATOM      1  O   UNL     1       9.617  -0.131  21.234  0.00  0.00    -0.252 OA
ATOM      2  C   UNL     1       9.349  -0.976  22.068  0.00  0.00    +0.307 C 
ATOM      3  N   UNL     1       8.090  -1.424  22.352  0.00  0.00    -0.278 N 
ATOM      4  H   UNL     1       7.293  -1.121  21.812  0.00  0.00    +0.152 HD
ATOM      5  C   UNL     1       8.059  -2.479  23.355  0.00  0.00    +0.163 C 
ATOM      6  C   UNL     1       9.606  -2.598  23.568  0.00  0.00    +0.253 C 
ATOM      7  O   UNL     1      10.204  -3.409  24.268  0.00  0.00    -0.272 OA
ATOM      8  N   UNL     1      10.236  -1.641  22.834  0.00  0.00    -0.238 N 
ATOM      9  H   UNL     1      11.233  -1.523  22.779  0.00  0.00    +0.159 HD
ENDROOT
BRANCH   5  10
ATOM     10  C   UNL     1       7.395  -3.713  22.728  0.00  0.00    -0.011 A 
ATOM     11  C   UNL     1       6.504  -3.552  21.646  0.00  0.00    +0.006 A 
ATOM     12  C   UNL     1       5.930  -4.656  21.008  0.00  0.00    +0.000 A 
ATOM     13  C   UNL     1       6.236  -5.945  21.436  0.00  0.00    +0.000 A 
ATOM     14  C   UNL     1       7.112  -6.128  22.500  0.00  0.00    +0.000 A 
ATOM     15  C   UNL     1       7.687  -5.025  23.139  0.00  0.00    +0.006 A 
ENDBRANCH   5  10
BRANCH   5  16
ATOM     16  C   UNL     1       7.401  -2.011  24.664  0.00  0.00    -0.011 A 
ATOM     17  C   UNL     1       6.091  -2.421  24.980  0.00  0.00    +0.006 A 
ATOM     18  C   UNL     1       5.493  -2.057  26.189  0.00  0.00    +0.000 A 
ATOM     19  C   UNL     1       6.182  -1.259  27.098  0.00  0.00    +0.000 A 
ATOM     20  C   UNL     1       7.467  -0.818  26.795  0.00  0.00    +0.000 A 
ATOM     21  C   UNL     1       8.070  -1.188  25.590  0.00  0.00    +0.006 A 
ENDBRANCH   5  16
TORSDOF 2
ENDMDL
