MODEL 1
REMARK VINA RESULT:      -7.8      0.000      0.000
REMARK  Name = 
REMARK  5 active torsions:
REMARK  status: ('A' for Active; 'I' for Inactive)
REMARK    1  A    between atoms: N_3  and  C_4
REMARK    2  A    between atoms: N_7  and  C_8
REMARK    3  A    between atoms: C_12  and  C_13
REMARK    4  A    between atoms: C_18  and  C_19
REMARK    5  A    between atoms: C_19  and  N_20
REMARK                            x       y       z     vdW  Elec       q    Type
REMARK                         _______ _______ _______ _____ _____    ______ ____
ROOT
ATOM      1  C   UNL     1       6.792   2.513  22.511  0.00  0.00    +0.161 A 
ATOM      2  N   UNL     1       6.275   1.357  23.048  0.00  0.00    -0.337 N 
ATOM      3  H   UNL     1       5.383   1.309  23.521  0.00  0.00    +0.167 HD
ATOM      4  C   UNL     1       7.137   0.323  22.747  0.00  0.00    +0.067 A 
ATOM      5  C   UNL     1       8.162   0.949  22.045  0.00  0.00    +0.090 A 
ATOM      6  C   UNL     1       9.210   0.184  21.527  0.00  0.00    +0.030 A 
ATOM      7  C   UNL     1       9.194  -1.201  21.719  0.00  0.00    +0.011 A 
ATOM      8  C   UNL     1       8.183  -1.822  22.474  0.00  0.00    -0.001 A 
ATOM      9  C   UNL     1       7.113  -1.058  22.994  0.00  0.00    +0.036 A 
ATOM     10  N   UNL     1       7.958   2.295  21.938  0.00  0.00    -0.226 NA
ENDROOT
BRANCH   1  12
ATOM     11  C   UNL     1       6.723   5.102  22.475  0.00  0.00    +0.083 A 
ATOM     12  C   UNL     1       6.092   3.829  22.534  0.00  0.00    +0.149 A 
ATOM     13  N   UNL     1       4.755   3.922  22.591  0.00  0.00    -0.169 NA
ATOM     14  N   UNL     1       4.537   5.253  22.569  0.00  0.00    -0.282 N 
ATOM     15  H   UNL     1       3.585   5.596  22.616  0.00  0.00    +0.188 HD
ATOM     16  C   UNL     1       5.676   5.995  22.482  0.00  0.00    +0.129 A 
BRANCH  11  19
ATOM     17  O   UNL     1       8.689   4.738  24.554  0.00  0.00    -0.252 OA
ATOM     18  C   UNL     1       8.974   5.185  23.445  0.00  0.00    +0.304 C 
ATOM     19  N   UNL     1       8.084   5.374  22.407  0.00  0.00    -0.266 N 
ATOM     20  H   UNL     1       8.440   5.589  21.481  0.00  0.00    +0.156 HD
ATOM     21  N   UNL     1      10.267   5.530  23.100  0.00  0.00    -0.296 N 
ATOM     22  H   UNL     1      10.395   6.195  22.351  0.00  0.00    +0.151 HD
BRANCH  21  23
ATOM     23  C   UNL     1      11.337   5.364  24.042  0.00  0.00    +0.075 C 
ATOM     24  C   UNL     1      12.287   6.476  24.382  0.00  0.00    +0.024 C 
ATOM     25  C   UNL     1      12.755   5.325  23.541  0.00  0.00    +0.024 C 
ENDBRANCH  21  23
ENDBRANCH  11  19
ENDBRANCH   1  12
BRANCH   8  26
ATOM     26  C   UNL     1       8.272  -3.313  22.724  0.00  0.00    +0.168 C 
BRANCH  26  27
ATOM     27  N   UNL     1       7.936  -3.693  24.158  0.00  0.00    +0.242 N 
ATOM     28  C   UNL     1       9.183  -4.050  24.957  0.00  0.00    +0.160 C 
ATOM     29  C   UNL     1       8.804  -4.547  26.358  0.00  0.00    +0.210 C 
ATOM     30  O   UNL     1       7.879  -5.636  26.284  0.00  0.00    -0.369 OA
ATOM     31  C   UNL     1       6.653  -5.231  25.669  0.00  0.00    +0.210 C 
ATOM     32  C   UNL     1       6.892  -4.806  24.218  0.00  0.00    +0.160 C 
ATOM     33  H   UNL     1       7.518  -2.869  24.603  0.00  0.00    +0.204 HD
ENDBRANCH  26  27
ENDBRANCH   8  26
TORSDOF 5
ENDMDL
MODEL 2
REMARK VINA RESULT:      -7.5      2.222      9.477
REMARK  Name = 
REMARK  5 active torsions:
REMARK  status: ('A' for Active; 'I' for Inactive)
REMARK    1  A    between atoms: N_3  and  C_4
REMARK    2  A    between atoms: N_7  and  C_8
REMARK    3  A    between atoms: C_12  and  C_13
REMARK    4  A    between atoms: C_18  and  C_19
REMARK    5  A    between atoms: C_19  and  N_20
REMARK                            x       y       z     vdW  Elec       q    Type
REMARK                         _______ _______ _______ _____ _____    ______ ____
ROOT
ATOM      1  C   UNL     1       8.693  -2.599  23.754  0.00  0.00    +0.161 A 
ATOM      2  N   UNL     1       7.743  -1.667  24.102  0.00  0.00    -0.337 N 
ATOM      3  H   UNL     1       7.114  -1.774  24.886  0.00  0.00    +0.167 HD
ATOM      4  C   UNL     1       7.881  -0.582  23.262  0.00  0.00    +0.067 A 
ATOM      5  C   UNL     1       8.924  -0.954  22.420  0.00  0.00    +0.090 A 
ATOM      6  C   UNL     1       9.381  -0.057  21.451  0.00  0.00    +0.030 A 
ATOM      7  C   UNL     1       8.783   1.204  21.363  0.00  0.00    +0.011 A 
ATOM      8  C   UNL     1       7.694   1.555  22.181  0.00  0.00    -0.001 A 
ATOM      9  C   UNL     1       7.231   0.658  23.170  0.00  0.00    +0.036 A 
ATOM     10  N   UNL     1       9.389  -2.205  22.708  0.00  0.00    -0.226 NA
ENDROOT
BRANCH   1  12
ATOM     11  C   UNL     1       7.921  -4.740  24.989  0.00  0.00    +0.083 A 
ATOM     12  C   UNL     1       8.931  -3.867  24.501  0.00  0.00    +0.149 A 
ATOM     13  N   UNL     1      10.167  -4.315  24.763  0.00  0.00    -0.169 NA
ATOM     14  N   UNL     1       9.943  -5.473  25.418  0.00  0.00    -0.282 N 
ATOM     15  H   UNL     1      10.735  -6.016  25.745  0.00  0.00    +0.188 HD
ATOM     16  C   UNL     1       8.623  -5.777  25.560  0.00  0.00    +0.129 A 
BRANCH  11  19
ATOM     17  O   UNL     1       6.161  -5.919  23.032  0.00  0.00    -0.252 OA
ATOM     18  C   UNL     1       5.757  -5.174  23.921  0.00  0.00    +0.304 C 
ATOM     19  N   UNL     1       6.543  -4.586  24.891  0.00  0.00    -0.266 N 
ATOM     20  H   UNL     1       6.100  -4.123  25.678  0.00  0.00    +0.156 HD
ATOM     21  N   UNL     1       4.418  -4.858  24.066  0.00  0.00    -0.296 N 
ATOM     22  H   UNL     1       4.184  -4.005  24.553  0.00  0.00    +0.151 HD
BRANCH  21  23
ATOM     23  C   UNL     1       3.443  -5.410  23.169  0.00  0.00    +0.075 C 
ATOM     24  C   UNL     1       1.968  -5.207  23.363  0.00  0.00    +0.024 C 
ATOM     25  C   UNL     1       2.579  -6.549  23.637  0.00  0.00    +0.024 C 
ENDBRANCH  21  23
ENDBRANCH  11  19
ENDBRANCH   1  12
BRANCH   8  26
ATOM     26  C   UNL     1       7.029   2.900  21.972  0.00  0.00    +0.168 C 
BRANCH  26  27
ATOM     27  N   UNL     1       7.926   4.069  22.346  0.00  0.00    +0.242 N 
ATOM     28  C   UNL     1       8.514   3.909  23.743  0.00  0.00    +0.160 C 
ATOM     29  C   UNL     1       9.313   5.156  24.141  0.00  0.00    +0.210 C 
ATOM     30  O   UNL     1       8.514   6.337  24.022  0.00  0.00    -0.369 OA
ATOM     31  C   UNL     1       8.106   6.550  22.668  0.00  0.00    +0.210 C 
ATOM     32  C   UNL     1       7.209   5.407  22.189  0.00  0.00    +0.160 C 
ATOM     33  H   UNL     1       8.713   4.074  21.688  0.00  0.00    +0.204 HD
ENDBRANCH  26  27
ENDBRANCH   8  26
TORSDOF 5
ENDMDL
MODEL 3
REMARK VINA RESULT:      -7.4      2.069      4.350
REMARK  Name = 
REMARK  5 active torsions:
REMARK  status: ('A' for Active; 'I' for Inactive)
REMARK    1  A    between atoms: N_3  and  C_4
REMARK    2  A    between atoms: N_7  and  C_8
REMARK    3  A    between atoms: C_12  and  C_13
REMARK    4  A    between atoms: C_18  and  C_19
REMARK    5  A    between atoms: C_19  and  N_20
REMARK                            x       y       z     vdW  Elec       q    Type
REMARK                         _______ _______ _______ _____ _____    ______ ____
ROOT
ATOM      1  C   UNL     1      10.363   2.403  23.288  0.00  0.00    +0.161 A 
ATOM      2  N   UNL     1      10.161   1.483  24.291  0.00  0.00    -0.337 N 
ATOM      3  H   UNL     1      10.223   1.705  25.276  0.00  0.00    +0.167 HD
ATOM      4  C   UNL     1       9.791   0.290  23.708  0.00  0.00    +0.067 A 
ATOM      5  C   UNL     1       9.819   0.572  22.346  0.00  0.00    +0.090 A 
ATOM      6  C   UNL     1       9.442  -0.414  21.430  0.00  0.00    +0.030 A 
ATOM      7  C   UNL     1       9.032  -1.661  21.911  0.00  0.00    +0.011 A 
ATOM      8  C   UNL     1       9.056  -1.958  23.286  0.00  0.00    -0.001 A 
ATOM      9  C   UNL     1       9.427  -0.965  24.221  0.00  0.00    +0.036 A 
ATOM     10  N   UNL     1      10.205   1.858  22.100  0.00  0.00    -0.226 NA
ENDROOT
BRANCH   1  12
ATOM     11  C   UNL     1       9.745   4.825  23.967  0.00  0.00    +0.083 A 
ATOM     12  C   UNL     1      10.672   3.842  23.526  0.00  0.00    +0.149 A 
ATOM     13  N   UNL     1      11.907   4.340  23.360  0.00  0.00    -0.169 NA
ATOM     14  N   UNL     1      11.763   5.639  23.694  0.00  0.00    -0.282 N 
ATOM     15  H   UNL     1      12.567   6.253  23.640  0.00  0.00    +0.188 HD
ATOM     16  C   UNL     1      10.499   5.970  24.080  0.00  0.00    +0.129 A 
BRANCH  11  19
ATOM     17  O   UNL     1       7.568   4.807  22.076  0.00  0.00    -0.252 OA
ATOM     18  C   UNL     1       7.395   4.667  23.284  0.00  0.00    +0.304 C 
ATOM     19  N   UNL     1       8.392   4.656  24.238  0.00  0.00    -0.266 N 
ATOM     20  H   UNL     1       8.170   4.370  25.186  0.00  0.00    +0.156 HD
ATOM     21  N   UNL     1       6.141   4.468  23.831  0.00  0.00    -0.296 N 
ATOM     22  H   UNL     1       6.006   4.707  24.802  0.00  0.00    +0.151 HD
BRANCH  21  23
ATOM     23  C   UNL     1       4.983   4.410  22.985  0.00  0.00    +0.075 C 
ATOM     24  C   UNL     1       3.617   4.807  23.464  0.00  0.00    +0.024 C 
ATOM     25  C   UNL     1       3.939   3.358  23.244  0.00  0.00    +0.024 C 
ENDBRANCH  21  23
ENDBRANCH  11  19
ENDBRANCH   1  12
BRANCH   8  26
ATOM     26  C   UNL     1       8.691  -3.357  23.736  0.00  0.00    +0.168 C 
BRANCH  26  27
ATOM     27  N   UNL     1       7.481  -3.917  23.005  0.00  0.00    +0.242 N 
ATOM     28  C   UNL     1       6.174  -3.498  23.668  0.00  0.00    +0.160 C 
ATOM     29  C   UNL     1       4.979  -4.176  22.985  0.00  0.00    +0.210 C 
ATOM     30  O   UNL     1       5.141  -5.597  22.959  0.00  0.00    -0.369 OA
ATOM     31  C   UNL     1       6.291  -5.972  22.196  0.00  0.00    +0.210 C 
ATOM     32  C   UNL     1       7.568  -5.432  22.844  0.00  0.00    +0.160 C 
ATOM     33  H   UNL     1       7.481  -3.517  22.061  0.00  0.00    +0.204 HD
ENDBRANCH  26  27
ENDBRANCH   8  26
TORSDOF 5
ENDMDL
MODEL 4
REMARK VINA RESULT:      -7.4      3.647      9.794
REMARK  Name = 
REMARK  5 active torsions:
REMARK  status: ('A' for Active; 'I' for Inactive)
REMARK    1  A    between atoms: N_3  and  C_4
REMARK    2  A    between atoms: N_7  and  C_8
REMARK    3  A    between atoms: C_12  and  C_13
REMARK    4  A    between atoms: C_18  and  C_19
REMARK    5  A    between atoms: C_19  and  N_20
REMARK                            x       y       z     vdW  Elec       q    Type
REMARK                         _______ _______ _______ _____ _____    ______ ____
ROOT
ATOM      1  C   UNL     1       5.641  -5.456  23.619  0.00  0.00    +0.161 A 
ATOM      2  N   UNL     1       5.994  -4.539  22.656  0.00  0.00    -0.337 N 
ATOM      3  H   UNL     1       5.415  -4.312  21.859  0.00  0.00    +0.167 HD
ATOM      4  C   UNL     1       7.190  -3.965  23.031  0.00  0.00    +0.067 A 
ATOM      5  C   UNL     1       7.501  -4.613  24.222  0.00  0.00    +0.090 A 
ATOM      6  C   UNL     1       8.648  -4.242  24.930  0.00  0.00    +0.030 A 
ATOM      7  C   UNL     1       9.450  -3.214  24.424  0.00  0.00    +0.011 A 
ATOM      8  C   UNL     1       9.159  -2.599  23.193  0.00  0.00    -0.001 A 
ATOM      9  C   UNL     1       7.997  -2.960  22.475  0.00  0.00    +0.036 A 
ATOM     10  N   UNL     1       6.564  -5.549  24.553  0.00  0.00    -0.226 NA
ENDROOT
BRANCH   1  12
ATOM     11  C   UNL     1       3.880  -7.033  24.678  0.00  0.00    +0.083 A 
ATOM     12  C   UNL     1       4.354  -6.208  23.622  0.00  0.00    +0.149 A 
ATOM     13  N   UNL     1       3.492  -6.146  22.595  0.00  0.00    -0.169 NA
ATOM     14  N   UNL     1       2.473  -6.931  23.000  0.00  0.00    -0.282 N 
ATOM     15  H   UNL     1       1.679  -7.064  22.383  0.00  0.00    +0.188 HD
ATOM     16  C   UNL     1       2.650  -7.465  24.240  0.00  0.00    +0.129 A 
BRANCH  11  19
ATOM     17  O   UNL     1       3.444  -5.756  27.228  0.00  0.00    -0.252 OA
ATOM     18  C   UNL     1       4.263  -6.659  27.072  0.00  0.00    +0.304 C 
ATOM     19  N   UNL     1       4.512  -7.316  25.884  0.00  0.00    -0.266 N 
ATOM     20  H   UNL     1       5.082  -8.156  25.890  0.00  0.00    +0.156 HD
ATOM     21  N   UNL     1       5.026  -7.150  28.115  0.00  0.00    -0.296 N 
ATOM     22  H   UNL     1       5.894  -7.613  27.888  0.00  0.00    +0.151 HD
BRANCH  21  23
ATOM     23  C   UNL     1       4.874  -6.614  29.437  0.00  0.00    +0.075 C 
ATOM     24  C   UNL     1       5.430  -5.275  29.830  0.00  0.00    +0.024 C 
ATOM     25  C   UNL     1       6.078  -6.530  30.336  0.00  0.00    +0.024 C 
ENDBRANCH  21  23
ENDBRANCH  11  19
ENDBRANCH   1  12
BRANCH   8  26
ATOM     26  C   UNL     1      10.118  -1.558  22.654  0.00  0.00    +0.168 C 
BRANCH  26  27
ATOM     27  N   UNL     1       9.691  -0.135  22.978  0.00  0.00    +0.242 N 
ATOM     28  C   UNL     1       9.533   0.710  21.720  0.00  0.00    +0.160 C 
ATOM     29  C   UNL     1       9.223   2.168  22.082  0.00  0.00    +0.210 C 
ATOM     30  O   UNL     1      10.212   2.698  22.968  0.00  0.00    -0.369 OA
ATOM     31  C   UNL     1      10.231   1.984  24.207  0.00  0.00    +0.210 C 
ATOM     32  C   UNL     1      10.632   0.524  23.982  0.00  0.00    +0.160 C 
ATOM     33  H   UNL     1       8.768  -0.186  23.424  0.00  0.00    +0.204 HD
ENDBRANCH  26  27
ENDBRANCH   8  26
TORSDOF 5
ENDMDL
MODEL 5
REMARK VINA RESULT:      -7.3      2.746      8.606
REMARK  Name = 
REMARK  5 active torsions:
REMARK  status: ('A' for Active; 'I' for Inactive)
REMARK    1  A    between atoms: N_3  and  C_4
REMARK    2  A    between atoms: N_7  and  C_8
REMARK    3  A    between atoms: C_12  and  C_13
REMARK    4  A    between atoms: C_18  and  C_19
REMARK    5  A    between atoms: C_19  and  N_20
REMARK                            x       y       z     vdW  Elec       q    Type
REMARK                         _______ _______ _______ _____ _____    ______ ____
ROOT
ATOM      1  C   UNL     1       9.325  -2.297  24.240  0.00  0.00    +0.161 A 
ATOM      2  N   UNL     1       9.774  -1.246  25.006  0.00  0.00    -0.337 N 
ATOM      3  H   UNL     1       9.998  -1.324  25.989  0.00  0.00    +0.167 HD
ATOM      4  C   UNL     1       9.931  -0.153  24.181  0.00  0.00    +0.067 A 
ATOM      5  C   UNL     1       9.530  -0.627  22.936  0.00  0.00    +0.090 A 
ATOM      6  C   UNL     1       9.605   0.214  21.821  0.00  0.00    +0.030 A 
ATOM      7  C   UNL     1      10.097   1.512  21.987  0.00  0.00    +0.011 A 
ATOM      8  C   UNL     1      10.452   2.002  23.257  0.00  0.00    -0.001 A 
ATOM      9  C   UNL     1      10.388   1.157  24.388  0.00  0.00    +0.036 A 
ATOM     10  N   UNL     1       9.127  -1.930  22.992  0.00  0.00    -0.226 NA
ENDROOT
BRANCH   1  12
ATOM     11  C   UNL     1       7.925  -4.215  25.275  0.00  0.00    +0.083 A 
ATOM     12  C   UNL     1       9.137  -3.684  24.756  0.00  0.00    +0.149 A 
ATOM     13  N   UNL     1      10.130  -4.585  24.748  0.00  0.00    -0.169 NA
ATOM     14  N   UNL     1       9.549  -5.688  25.263  0.00  0.00    -0.282 N 
ATOM     15  H   UNL     1      10.105  -6.529  25.378  0.00  0.00    +0.188 HD
ATOM     16  C   UNL     1       8.234  -5.522  25.574  0.00  0.00    +0.129 A 
BRANCH  11  19
ATOM     17  O   UNL     1       7.357  -1.918  26.923  0.00  0.00    -0.252 OA
ATOM     18  C   UNL     1       6.498  -2.470  26.241  0.00  0.00    +0.304 C 
ATOM     19  N   UNL     1       6.706  -3.564  25.425  0.00  0.00    -0.266 N 
ATOM     20  H   UNL     1       5.979  -3.846  24.776  0.00  0.00    +0.156 HD
ATOM     21  N   UNL     1       5.192  -2.019  26.193  0.00  0.00    -0.296 N 
ATOM     22  H   UNL     1       4.475  -2.676  25.923  0.00  0.00    +0.151 HD
BRANCH  21  23
ATOM     23  C   UNL     1       4.798  -0.864  26.947  0.00  0.00    +0.075 C 
ATOM     24  C   UNL     1       4.284  -0.961  28.355  0.00  0.00    +0.024 C 
ATOM     25  C   UNL     1       3.338  -0.641  27.236  0.00  0.00    +0.024 C 
ENDBRANCH  21  23
ENDBRANCH  11  19
ENDBRANCH   1  12
BRANCH   8  26
ATOM     26  C   UNL     1      10.889   3.447  23.385  0.00  0.00    +0.168 C 
BRANCH  26  27
ATOM     27  N   UNL     1       9.723   4.422  23.357  0.00  0.00    +0.242 N 
ATOM     28  C   UNL     1      10.171   5.850  23.646  0.00  0.00    +0.160 C 
ATOM     29  C   UNL     1       8.961   6.790  23.733  0.00  0.00    +0.210 C 
ATOM     30  O   UNL     1       8.012   6.317  24.693  0.00  0.00    -0.369 OA
ATOM     31  C   UNL     1       7.488   5.041  24.315  0.00  0.00    +0.210 C 
ATOM     32  C   UNL     1       8.598   3.987  24.292  0.00  0.00    +0.160 C 
ATOM     33  H   UNL     1       9.339   4.414  22.406  0.00  0.00    +0.204 HD
ENDBRANCH  26  27
ENDBRANCH   8  26
TORSDOF 5
ENDMDL
MODEL 6
REMARK VINA RESULT:      -7.3      3.736     10.290
REMARK  Name = 
REMARK  5 active torsions:
REMARK  status: ('A' for Active; 'I' for Inactive)
REMARK    1  A    between atoms: N_3  and  C_4
REMARK    2  A    between atoms: N_7  and  C_8
REMARK    3  A    between atoms: C_12  and  C_13
REMARK    4  A    between atoms: C_18  and  C_19
REMARK    5  A    between atoms: C_19  and  N_20
REMARK                            x       y       z     vdW  Elec       q    Type
REMARK                         _______ _______ _______ _____ _____    ______ ____
ROOT
ATOM      1  C   UNL     1       6.671  -5.088  26.429  0.00  0.00    +0.161 A 
ATOM      2  N   UNL     1       7.794  -4.301  26.549  0.00  0.00    -0.337 N 
ATOM      3  H   UNL     1       8.329  -4.216  27.403  0.00  0.00    +0.167 HD
ATOM      4  C   UNL     1       8.070  -3.759  25.312  0.00  0.00    +0.067 A 
ATOM      5  C   UNL     1       7.048  -4.250  24.507  0.00  0.00    +0.090 A 
ATOM      6  C   UNL     1       7.035  -3.940  23.144  0.00  0.00    +0.030 A 
ATOM      7  C   UNL     1       8.063  -3.149  22.622  0.00  0.00    +0.011 A 
ATOM      8  C   UNL     1       9.064  -2.612  23.450  0.00  0.00    -0.001 A 
ATOM      9  C   UNL     1       9.091  -2.928  24.828  0.00  0.00    +0.036 A 
ATOM     10  N   UNL     1       6.177  -5.033  25.209  0.00  0.00    -0.226 NA
ENDROOT
BRANCH   1  12
ATOM     11  C   UNL     1       4.755  -6.295  27.685  0.00  0.00    +0.083 A 
ATOM     12  C   UNL     1       6.119  -5.929  27.529  0.00  0.00    +0.149 A 
ATOM     13  N   UNL     1       6.902  -6.449  28.486  0.00  0.00    -0.169 NA
ATOM     14  N   UNL     1       6.035  -7.144  29.250  0.00  0.00    -0.282 N 
ATOM     15  H   UNL     1       6.381  -7.633  30.068  0.00  0.00    +0.188 HD
ATOM     16  C   UNL     1       4.749  -7.097  28.803  0.00  0.00    +0.129 A 
BRANCH  11  19
ATOM     17  O   UNL     1       3.729  -7.721  25.398  0.00  0.00    -0.252 OA
ATOM     18  C   UNL     1       3.244  -6.662  25.788  0.00  0.00    +0.304 C 
ATOM     19  N   UNL     1       3.680  -5.937  26.879  0.00  0.00    -0.266 N 
ATOM     20  H   UNL     1       3.116  -5.166  27.222  0.00  0.00    +0.156 HD
ATOM     21  N   UNL     1       2.151  -6.080  25.173  0.00  0.00    -0.296 N 
ATOM     22  H   UNL     1       2.016  -5.087  25.290  0.00  0.00    +0.151 HD
BRANCH  21  23
ATOM     23  C   UNL     1       1.535  -6.714  24.043  0.00  0.00    +0.075 C 
ATOM     24  C   UNL     1       2.063  -6.554  22.646  0.00  0.00    +0.024 C 
ATOM     25  C   UNL     1       0.789  -5.869  23.045  0.00  0.00    +0.024 C 
ENDBRANCH  21  23
ENDBRANCH  11  19
ENDBRANCH   1  12
BRANCH   8  26
ATOM     26  C   UNL     1      10.096  -1.687  22.840  0.00  0.00    +0.168 C 
BRANCH  26  27
ATOM     27  N   UNL     1       9.764  -0.216  23.040  0.00  0.00    +0.242 N 
ATOM     28  C   UNL     1       9.619   0.518  21.713  0.00  0.00    +0.160 C 
ATOM     29  C   UNL     1       9.407   2.020  21.945  0.00  0.00    +0.210 C 
ATOM     30  O   UNL     1      10.453   2.566  22.754  0.00  0.00    -0.369 OA
ATOM     31  C   UNL     1      10.467   1.969  24.053  0.00  0.00    +0.210 C 
ATOM     32  C   UNL     1      10.774   0.473  23.956  0.00  0.00    +0.160 C 
ATOM     33  H   UNL     1       8.854  -0.169  23.512  0.00  0.00    +0.204 HD
ENDBRANCH  26  27
ENDBRANCH   8  26
TORSDOF 5
ENDMDL
MODEL 7
REMARK VINA RESULT:      -7.1      1.438      1.812
REMARK  Name = 
REMARK  5 active torsions:
REMARK  status: ('A' for Active; 'I' for Inactive)
REMARK    1  A    between atoms: N_3  and  C_4
REMARK    2  A    between atoms: N_7  and  C_8
REMARK    3  A    between atoms: C_12  and  C_13
REMARK    4  A    between atoms: C_18  and  C_19
REMARK    5  A    between atoms: C_19  and  N_20
REMARK                            x       y       z     vdW  Elec       q    Type
REMARK                         _______ _______ _______ _____ _____    ______ ____
ROOT
ATOM      1  C   UNL     1       6.877   1.289  23.500  0.00  0.00    +0.161 A 
ATOM      2  N   UNL     1       6.084   0.197  23.767  0.00  0.00    -0.337 N 
ATOM      3  H   UNL     1       5.075   0.238  23.827  0.00  0.00    +0.167 HD
ATOM      4  C   UNL     1       6.897  -0.914  23.841  0.00  0.00    +0.067 A 
ATOM      5  C   UNL     1       8.171  -0.397  23.631  0.00  0.00    +0.090 A 
ATOM      6  C   UNL     1       9.268  -1.263  23.587  0.00  0.00    +0.030 A 
ATOM      7  C   UNL     1       9.051  -2.635  23.743  0.00  0.00    +0.011 A 
ATOM      8  C   UNL     1       7.768  -3.147  24.007  0.00  0.00    -0.001 A 
ATOM      9  C   UNL     1       6.652  -2.280  24.045  0.00  0.00    +0.036 A 
ATOM     10  N   UNL     1       8.150   0.957  23.459  0.00  0.00    -0.226 NA
ENDROOT
BRANCH   1  12
ATOM     11  C   UNL     1       7.122   3.777  22.825  0.00  0.00    +0.083 A 
ATOM     12  C   UNL     1       6.349   2.660  23.243  0.00  0.00    +0.149 A 
ATOM     13  N   UNL     1       5.047   2.954  23.367  0.00  0.00    -0.169 NA
ATOM     14  N   UNL     1       4.992   4.259  23.028  0.00  0.00    -0.282 N 
ATOM     15  H   UNL     1       4.098   4.737  23.053  0.00  0.00    +0.188 HD
ATOM     16  C   UNL     1       6.198   4.787  22.680  0.00  0.00    +0.129 A 
BRANCH  11  19
ATOM     17  O   UNL     1       9.166   4.702  24.636  0.00  0.00    -0.252 OA
ATOM     18  C   UNL     1       9.421   4.292  23.507  0.00  0.00    +0.304 C 
ATOM     19  N   UNL     1       8.492   3.827  22.597  0.00  0.00    -0.266 N 
ATOM     20  H   UNL     1       8.812   3.356  21.758  0.00  0.00    +0.156 HD
ATOM     21  N   UNL     1      10.714   4.220  23.023  0.00  0.00    -0.296 N 
ATOM     22  H   UNL     1      10.844   4.221  22.021  0.00  0.00    +0.151 HD
BRANCH  21  23
ATOM     23  C   UNL     1      11.818   4.624  23.845  0.00  0.00    +0.075 C 
ATOM     24  C   UNL     1      12.265   6.054  23.944  0.00  0.00    +0.024 C 
ATOM     25  C   UNL     1      13.099   5.062  23.188  0.00  0.00    +0.024 C 
ENDBRANCH  21  23
ENDBRANCH  11  19
ENDBRANCH   1  12
BRANCH   8  26
ATOM     26  C   UNL     1       7.613  -4.632  24.261  0.00  0.00    +0.168 C 
BRANCH  26  27
ATOM     27  N   UNL     1       6.721  -4.939  25.454  0.00  0.00    +0.242 N 
ATOM     28  C   UNL     1       7.534  -5.270  26.699  0.00  0.00    +0.160 C 
ATOM     29  C   UNL     1       6.613  -5.695  27.850  0.00  0.00    +0.210 C 
ATOM     30  O   UNL     1       5.763  -6.776  27.455  0.00  0.00    -0.369 OA
ATOM     31  C   UNL     1       4.897  -6.388  26.385  0.00  0.00    +0.210 C 
ATOM     32  C   UNL     1       5.708  -6.035  25.136  0.00  0.00    +0.160 C 
ATOM     33  H   UNL     1       6.185  -4.089  25.662  0.00  0.00    +0.204 HD
ENDBRANCH  26  27
ENDBRANCH   8  26
TORSDOF 5
ENDMDL
MODEL 8
REMARK VINA RESULT:      -7.0      2.470      9.312
REMARK  Name = 
REMARK  5 active torsions:
REMARK  status: ('A' for Active; 'I' for Inactive)
REMARK    1  A    between atoms: N_3  and  C_4
REMARK    2  A    between atoms: N_7  and  C_8
REMARK    3  A    between atoms: C_12  and  C_13
REMARK    4  A    between atoms: C_18  and  C_19
REMARK    5  A    between atoms: C_19  and  N_20
REMARK                            x       y       z     vdW  Elec       q    Type
REMARK                         _______ _______ _______ _____ _____    ______ ____
ROOT
ATOM      1  C   UNL     1       7.733  -3.416  23.268  0.00  0.00    +0.161 A 
ATOM      2  N   UNL     1       8.150  -2.509  22.322  0.00  0.00    -0.337 N 
ATOM      3  H   UNL     1       7.971  -2.610  21.332  0.00  0.00    +0.167 HD
ATOM      4  C   UNL     1       8.749  -1.454  22.976  0.00  0.00    +0.067 A 
ATOM      5  C   UNL     1       8.673  -1.818  24.317  0.00  0.00    +0.090 A 
ATOM      6  C   UNL     1       9.148  -0.942  25.297  0.00  0.00    +0.030 A 
ATOM      7  C   UNL     1       9.680   0.289  24.902  0.00  0.00    +0.011 A 
ATOM      8  C   UNL     1       9.803   0.630  23.543  0.00  0.00    -0.001 A 
ATOM      9  C   UNL     1       9.317  -0.245  22.545  0.00  0.00    +0.036 A 
ATOM     10  N   UNL     1       8.080  -3.037  24.481  0.00  0.00    -0.226 NA
ENDROOT
BRANCH   1  12
ATOM     11  C   UNL     1       5.905  -5.184  23.763  0.00  0.00    +0.083 A 
ATOM     12  C   UNL     1       6.944  -4.643  22.958  0.00  0.00    +0.149 A 
ATOM     13  N   UNL     1       7.144  -5.350  21.836  0.00  0.00    -0.169 NA
ATOM     14  N   UNL     1       6.233  -6.340  21.929  0.00  0.00    -0.282 N 
ATOM     15  H   UNL     1       6.185  -7.036  21.193  0.00  0.00    +0.188 HD
ATOM     16  C   UNL     1       5.461  -6.272  23.049  0.00  0.00    +0.129 A 
BRANCH  11  19
ATOM     17  O   UNL     1       6.622  -6.109  26.398  0.00  0.00    -0.252 OA
ATOM     18  C   UNL     1       5.816  -5.202  26.214  0.00  0.00    +0.304 C 
ATOM     19  N   UNL     1       5.438  -4.706  24.982  0.00  0.00    -0.266 N 
ATOM     20  H   UNL     1       4.896  -3.850  24.935  0.00  0.00    +0.156 HD
ATOM     21  N   UNL     1       5.203  -4.535  27.259  0.00  0.00    -0.296 N 
ATOM     22  H   UNL     1       4.326  -4.071  27.074  0.00  0.00    +0.151 HD
BRANCH  21  23
ATOM     23  C   UNL     1       5.504  -4.888  28.617  0.00  0.00    +0.075 C 
ATOM     24  C   UNL     1       4.758  -5.965  29.352  0.00  0.00    +0.024 C 
ATOM     25  C   UNL     1       4.527  -4.524  29.702  0.00  0.00    +0.024 C 
ENDBRANCH  21  23
ENDBRANCH  11  19
ENDBRANCH   1  12
BRANCH   8  26
ATOM     26  C   UNL     1      10.473   1.937  23.177  0.00  0.00    +0.168 C 
BRANCH  26  27
ATOM     27  N   UNL     1       9.738   3.152  23.720  0.00  0.00    +0.242 N 
ATOM     28  C   UNL     1       8.391   3.353  23.036  0.00  0.00    +0.160 C 
ATOM     29  C   UNL     1       7.729   4.651  23.515  0.00  0.00    +0.210 C 
ATOM     30  O   UNL     1       8.601   5.770  23.332  0.00  0.00    -0.369 OA
ATOM     31  C   UNL     1       9.792   5.630  24.111  0.00  0.00    +0.210 C 
ATOM     32  C   UNL     1      10.597   4.412  23.651  0.00  0.00    +0.160 C 
ATOM     33  H   UNL     1       9.548   2.976  24.713  0.00  0.00    +0.204 HD
ENDBRANCH  26  27
ENDBRANCH   8  26
TORSDOF 5
ENDMDL
MODEL 9
REMARK VINA RESULT:      -6.9      2.082      4.303
REMARK  Name = 
REMARK  5 active torsions:
REMARK  status: ('A' for Active; 'I' for Inactive)
REMARK    1  A    between atoms: N_3  and  C_4
REMARK    2  A    between atoms: N_7  and  C_8
REMARK    3  A    between atoms: C_12  and  C_13
REMARK    4  A    between atoms: C_18  and  C_19
REMARK    5  A    between atoms: C_19  and  N_20
REMARK                            x       y       z     vdW  Elec       q    Type
REMARK                         _______ _______ _______ _____ _____    ______ ____
ROOT
ATOM      1  C   UNL     1       9.819   2.458  24.037  0.00  0.00    +0.161 A 
ATOM      2  N   UNL     1      10.324   1.276  23.548  0.00  0.00    -0.337 N 
ATOM      3  H   UNL     1      11.100   1.222  22.902  0.00  0.00    +0.167 HD
ATOM      4  C   UNL     1       9.647   0.239  24.155  0.00  0.00    +0.067 A 
ATOM      5  C   UNL     1       8.733   0.887  24.979  0.00  0.00    +0.090 A 
ATOM      6  C   UNL     1       7.893   0.132  25.803  0.00  0.00    +0.030 A 
ATOM      7  C   UNL     1       8.004  -1.261  25.786  0.00  0.00    +0.011 A 
ATOM      8  C   UNL     1       8.894  -1.912  24.913  0.00  0.00    -0.001 A 
ATOM      9  C   UNL     1       9.754  -1.158  24.082  0.00  0.00    +0.036 A 
ATOM     10  N   UNL     1       8.823   2.245  24.872  0.00  0.00    -0.226 NA
ENDROOT
BRANCH   1  12
ATOM     11  C   UNL     1       9.647   5.027  23.752  0.00  0.00    +0.083 A 
ATOM     12  C   UNL     1      10.367   3.803  23.699  0.00  0.00    +0.149 A 
ATOM     13  N   UNL     1      11.644   3.975  23.325  0.00  0.00    -0.169 NA
ATOM     14  N   UNL     1      11.733   5.309  23.140  0.00  0.00    -0.282 N 
ATOM     15  H   UNL     1      12.615   5.705  22.835  0.00  0.00    +0.188 HD
ATOM     16  C   UNL     1      10.576   5.978  23.400  0.00  0.00    +0.129 A 
BRANCH  11  19
ATOM     17  O   UNL     1       7.336   4.757  22.048  0.00  0.00    -0.252 OA
ATOM     18  C   UNL     1       7.251   5.078  23.230  0.00  0.00    +0.304 C 
ATOM     19  N   UNL     1       8.314   5.215  24.100  0.00  0.00    -0.266 N 
ATOM     20  H   UNL     1       8.134   5.320  25.093  0.00  0.00    +0.156 HD
ATOM     21  N   UNL     1       6.035   5.315  23.844  0.00  0.00    -0.296 N 
ATOM     22  H   UNL     1       6.028   5.896  24.670  0.00  0.00    +0.151 HD
BRANCH  21  23
ATOM     23  C   UNL     1       4.813   5.181  23.104  0.00  0.00    +0.075 C 
ATOM     24  C   UNL     1       3.975   6.366  22.716  0.00  0.00    +0.024 C 
ATOM     25  C   UNL     1       3.504   5.441  23.799  0.00  0.00    +0.024 C 
ENDBRANCH  21  23
ENDBRANCH  11  19
ENDBRANCH   1  12
BRANCH   8  26
ATOM     26  C   UNL     1       8.900  -3.426  24.874  0.00  0.00    +0.168 C 
BRANCH  26  27
ATOM     27  N   UNL     1       7.705  -4.042  25.584  0.00  0.00    +0.242 N 
ATOM     28  C   UNL     1       8.123  -4.834  26.817  0.00  0.00    +0.160 C 
ATOM     29  C   UNL     1       6.914  -5.543  27.440  0.00  0.00    +0.210 C 
ATOM     30  O   UNL     1       6.243  -6.359  26.475  0.00  0.00    -0.369 OA
ATOM     31  C   UNL     1       5.721  -5.568  25.404  0.00  0.00    +0.210 C 
ATOM     32  C   UNL     1       6.855  -4.885  24.636  0.00  0.00    +0.160 C 
ATOM     33  H   UNL     1       7.111  -3.270  25.909  0.00  0.00    +0.204 HD
ENDBRANCH  26  27
ENDBRANCH   8  26
TORSDOF 5
ENDMDL
