MODEL 1
REMARK VINA RESULT:      -4.8      0.000      0.000
REMARK  Name = 
REMARK  13 active torsions:
REMARK  status: ('A' for Active; 'I' for Inactive)
REMARK    1  A    between atoms: O_1  and  C_2
REMARK    2  A    between atoms: C_2  and  C_3
REMARK    3  A    between atoms: C_3  and  C_4
REMARK    4  A    between atoms: C_4  and  O_6
REMARK    5  A    between atoms: C_4  and  C_7
REMARK    6  A    between atoms: C_7  and  O_9
REMARK    7  A    between atoms: C_7  and  C_10
REMARK    8  A    between atoms: C_10  and  O_12
REMARK    9  A    between atoms: C_10  and  C_13
REMARK   10  A    between atoms: C_13  and  O_14
REMARK   11  A    between atoms: O_14  and  P_15
REMARK   12  A    between atoms: P_15  and  O_16
REMARK   13  A    between atoms: P_15  and  O_17
REMARK                            x       y       z     vdW  Elec       q    Type
REMARK                         _______ _______ _______ _____ _____    ______ ____
ROOT
ATOM      1  C   UNL     1       8.364  -2.557  22.687  0.00  0.00    +0.172 C 
ENDROOT
BRANCH   1   2
ATOM      2  O   UNL     1       7.324  -1.578  22.865  0.00  0.00    -0.387 OA
ATOM      3  H   UNL     1       6.490  -2.085  22.842  0.00  0.00    +0.210 HD
ENDBRANCH   1   2
BRANCH   1   4
ATOM      4  C   UNL     1       9.677  -2.080  23.332  0.00  0.00    +0.174 C 
BRANCH   4   5
ATOM      5  O   UNL     1       9.432  -1.615  24.676  0.00  0.00    -0.387 OA
ATOM      6  H   UNL     1       9.289  -2.425  25.200  0.00  0.00    +0.210 HD
ENDBRANCH   4   5
BRANCH   4   7
ATOM      7  C   UNL     1      10.379  -0.956  22.545  0.00  0.00    +0.148 C 
BRANCH   7   8
ATOM      8  O   UNL     1       9.791  -0.875  21.236  0.00  0.00    -0.389 OA
ATOM      9  H   UNL     1       9.784  -1.784  20.886  0.00  0.00    +0.210 HD
ENDBRANCH   7   8
BRANCH   7  10
ATOM     10  C   UNL     1      10.345   0.438  23.187  0.00  0.00    +0.062 C 
BRANCH  10  11
ATOM     11  C   UNL     1       9.385   1.426  22.533  0.00  0.00    +0.158 C 
BRANCH  11  12
ATOM     12  O   UNL     1      10.023   2.132  21.479  0.00  0.00    -0.395 OA
ATOM     13  H   UNL     1      10.979   2.108  21.667  0.00  0.00    +0.209 HD
ENDBRANCH  11  12
ENDBRANCH  10  11
ENDBRANCH   7  10
ENDBRANCH   4   7
ENDBRANCH   1   4
BRANCH   1  14
ATOM     14  C   UNL     1       7.888  -3.891  23.272  0.00  0.00    +0.206 C 
BRANCH  14  15
ATOM     15  O   UNL     1       8.898  -4.365  24.162  0.00  0.00    -0.284 OA
BRANCH  15  16
ATOM     16  P   UNL     1       8.303  -5.132  25.594  0.00  0.00    +0.472 P 
ATOM     17  O   UNL     1       7.770  -5.817  26.876  0.00  0.00    -0.228 OA
BRANCH  16  18
ATOM     18  O   UNL     1       8.882  -3.828  26.403  0.00  0.00    -0.303 OA
ATOM     19  H   UNL     1       9.753  -4.031  26.779  0.00  0.00    +0.222 HD
ENDBRANCH  16  18
BRANCH  16  20
ATOM     20  O   UNL     1       9.692  -5.994  25.596  0.00  0.00    -0.303 OA
ATOM     21  H   UNL     1      10.231  -5.796  26.380  0.00  0.00    +0.222 HD
ENDBRANCH  16  20
ENDBRANCH  15  16
ENDBRANCH  14  15
ENDBRANCH   1  14
TORSDOF 13
ENDMDL
MODEL 2
REMARK VINA RESULT:      -4.7      1.587      2.138
REMARK  Name = 
REMARK  13 active torsions:
REMARK  status: ('A' for Active; 'I' for Inactive)
REMARK    1  A    between atoms: O_1  and  C_2
REMARK    2  A    between atoms: C_2  and  C_3
REMARK    3  A    between atoms: C_3  and  C_4
REMARK    4  A    between atoms: C_4  and  O_6
REMARK    5  A    between atoms: C_4  and  C_7
REMARK    6  A    between atoms: C_7  and  O_9
REMARK    7  A    between atoms: C_7  and  C_10
REMARK    8  A    between atoms: C_10  and  O_12
REMARK    9  A    between atoms: C_10  and  C_13
REMARK   10  A    between atoms: C_13  and  O_14
REMARK   11  A    between atoms: O_14  and  P_15
REMARK   12  A    between atoms: P_15  and  O_16
REMARK   13  A    between atoms: P_15  and  O_17
REMARK                            x       y       z     vdW  Elec       q    Type
REMARK                         _______ _______ _______ _____ _____    ______ ____
ROOT
ATOM      1  C   UNL     1      10.303  -1.807  22.817  0.00  0.00    +0.172 C 
ENDROOT
BRANCH   1   2
ATOM      2  O   UNL     1       9.873  -1.573  21.462  0.00  0.00    -0.387 OA
ATOM      3  H   UNL     1       8.901  -1.656  21.485  0.00  0.00    +0.210 HD
ENDBRANCH   1   2
BRANCH   1   4
ATOM      4  C   UNL     1      10.470  -0.478  23.573  0.00  0.00    +0.174 C 
BRANCH   4   5
ATOM      5  O   UNL     1       9.830  -0.554  24.863  0.00  0.00    -0.387 OA
ATOM      6  H   UNL     1      10.236  -1.326  25.300  0.00  0.00    +0.210 HD
ENDBRANCH   4   5
BRANCH   4   7
ATOM      7  C   UNL     1       9.902   0.739  22.815  0.00  0.00    +0.148 C 
BRANCH   7   8
ATOM      8  O   UNL     1       8.468   0.650  22.813  0.00  0.00    -0.389 OA
ATOM      9  H   UNL     1       8.237  -0.014  23.486  0.00  0.00    +0.210 HD
ENDBRANCH   7   8
BRANCH   7  10
ATOM     10  C   UNL     1      10.310   2.117  23.355  0.00  0.00    +0.062 C 
BRANCH  10  11
ATOM     11  C   UNL     1       9.213   2.867  24.104  0.00  0.00    +0.158 C 
BRANCH  11  12
ATOM     12  O   UNL     1       8.832   2.168  25.280  0.00  0.00    -0.395 OA
ATOM     13  H   UNL     1       8.003   2.577  25.590  0.00  0.00    +0.209 HD
ENDBRANCH  11  12
ENDBRANCH  10  11
ENDBRANCH   7  10
ENDBRANCH   4   7
ENDBRANCH   1   4
BRANCH   1  14
ATOM     14  C   UNL     1       9.291  -2.733  23.500  0.00  0.00    +0.206 C 
BRANCH  14  15
ATOM     15  O   UNL     1      10.013  -3.605  24.370  0.00  0.00    -0.284 OA
BRANCH  15  16
ATOM     16  P   UNL     1       9.031  -4.708  25.272  0.00  0.00    +0.472 P 
ATOM     17  O   UNL     1       8.152  -5.695  26.078  0.00  0.00    -0.228 OA
BRANCH  16  18
ATOM     18  O   UNL     1      10.384  -5.622  25.421  0.00  0.00    -0.303 OA
ATOM     19  H   UNL     1      11.164  -5.050  25.496  0.00  0.00    +0.222 HD
ENDBRANCH  16  18
BRANCH  16  20
ATOM     20  O   UNL     1       8.550  -5.309  23.829  0.00  0.00    -0.303 OA
ATOM     21  H   UNL     1       7.699  -4.930  23.553  0.00  0.00    +0.222 HD
ENDBRANCH  16  20
ENDBRANCH  15  16
ENDBRANCH  14  15
ENDBRANCH   1  14
TORSDOF 13
ENDMDL
MODEL 3
REMARK VINA RESULT:      -4.7      1.454      2.205
REMARK  Name = 
REMARK  13 active torsions:
REMARK  status: ('A' for Active; 'I' for Inactive)
REMARK    1  A    between atoms: O_1  and  C_2
REMARK    2  A    between atoms: C_2  and  C_3
REMARK    3  A    between atoms: C_3  and  C_4
REMARK    4  A    between atoms: C_4  and  O_6
REMARK    5  A    between atoms: C_4  and  C_7
REMARK    6  A    between atoms: C_7  and  O_9
REMARK    7  A    between atoms: C_7  and  C_10
REMARK    8  A    between atoms: C_10  and  O_12
REMARK    9  A    between atoms: C_10  and  C_13
REMARK   10  A    between atoms: C_13  and  O_14
REMARK   11  A    between atoms: O_14  and  P_15
REMARK   12  A    between atoms: P_15  and  O_16
REMARK   13  A    between atoms: P_15  and  O_17
REMARK                            x       y       z     vdW  Elec       q    Type
REMARK                         _______ _______ _______ _____ _____    ______ ____
ROOT
ATOM      1  C   UNL     1       9.905  -1.393  23.391  0.00  0.00    +0.172 C 
ENDROOT
BRANCH   1   2
ATOM      2  O   UNL     1      10.177  -1.064  22.016  0.00  0.00    -0.387 OA
ATOM      3  H   UNL     1       9.350  -1.262  21.538  0.00  0.00    +0.210 HD
ENDBRANCH   1   2
BRANCH   1   4
ATOM      4  C   UNL     1       9.052  -0.300  24.056  0.00  0.00    +0.174 C 
BRANCH   4   5
ATOM      5  O   UNL     1       8.099   0.232  23.112  0.00  0.00    -0.387 OA
ATOM      6  H   UNL     1       8.377  -0.122  22.248  0.00  0.00    +0.210 HD
ENDBRANCH   4   5
BRANCH   4   7
ATOM      7  C   UNL     1       9.881   0.870  24.625  0.00  0.00    +0.148 C 
BRANCH   7   8
ATOM      8  O   UNL     1      11.272   0.614  24.369  0.00  0.00    -0.389 OA
ATOM      9  H   UNL     1      11.686   1.484  24.230  0.00  0.00    +0.210 HD
ENDBRANCH   7   8
BRANCH   7  10
ATOM     10  C   UNL     1       9.530   2.265  24.091  0.00  0.00    +0.062 C 
BRANCH  10  11
ATOM     11  C   UNL     1      10.435   2.776  22.975  0.00  0.00    +0.158 C 
BRANCH  11  12
ATOM     12  O   UNL     1      10.202   2.067  21.767  0.00  0.00    -0.395 OA
ATOM     13  H   UNL     1      10.637   1.201  21.865  0.00  0.00    +0.209 HD
ENDBRANCH  11  12
ENDBRANCH  10  11
ENDBRANCH   7  10
ENDBRANCH   4   7
ENDBRANCH   1   4
BRANCH   1  14
ATOM     14  C   UNL     1       9.223  -2.765  23.442  0.00  0.00    +0.206 C 
BRANCH  14  15
ATOM     15  O   UNL     1       9.990  -3.604  24.305  0.00  0.00    -0.284 OA
BRANCH  15  16
ATOM     16  P   UNL     1       9.060  -4.708  25.259  0.00  0.00    +0.472 P 
ATOM     17  O   UNL     1       8.228  -5.697  26.112  0.00  0.00    -0.228 OA
BRANCH  16  18
ATOM     18  O   UNL     1      10.447  -5.569  25.421  0.00  0.00    -0.303 OA
ATOM     19  H   UNL     1      11.080  -5.310  24.733  0.00  0.00    +0.222 HD
ENDBRANCH  16  18
BRANCH  16  20
ATOM     20  O   UNL     1       8.581  -5.377  23.845  0.00  0.00    -0.303 OA
ATOM     21  H   UNL     1       8.781  -4.796  23.093  0.00  0.00    +0.222 HD
ENDBRANCH  16  20
ENDBRANCH  15  16
ENDBRANCH  14  15
ENDBRANCH   1  14
TORSDOF 13
ENDMDL
MODEL 4
REMARK VINA RESULT:      -4.5      2.352      2.983
REMARK  Name = 
REMARK  13 active torsions:
REMARK  status: ('A' for Active; 'I' for Inactive)
REMARK    1  A    between atoms: O_1  and  C_2
REMARK    2  A    between atoms: C_2  and  C_3
REMARK    3  A    between atoms: C_3  and  C_4
REMARK    4  A    between atoms: C_4  and  O_6
REMARK    5  A    between atoms: C_4  and  C_7
REMARK    6  A    between atoms: C_7  and  O_9
REMARK    7  A    between atoms: C_7  and  C_10
REMARK    8  A    between atoms: C_10  and  O_12
REMARK    9  A    between atoms: C_10  and  C_13
REMARK   10  A    between atoms: C_13  and  O_14
REMARK   11  A    between atoms: O_14  and  P_15
REMARK   12  A    between atoms: P_15  and  O_16
REMARK   13  A    between atoms: P_15  and  O_17
REMARK                            x       y       z     vdW  Elec       q    Type
REMARK                         _______ _______ _______ _____ _____    ______ ____
ROOT
ATOM      1  C   UNL     1       9.865  -2.266  23.815  0.00  0.00    +0.172 C 
ENDROOT
BRANCH   1   2
ATOM      2  O   UNL     1      10.552  -2.063  22.567  0.00  0.00    -0.387 OA
ATOM      3  H   UNL     1      10.190  -1.231  22.208  0.00  0.00    +0.210 HD
ENDBRANCH   1   2
BRANCH   1   4
ATOM      4  C   UNL     1       9.335  -0.932  24.369  0.00  0.00    +0.174 C 
BRANCH   4   5
ATOM      5  O   UNL     1       7.964  -1.078  24.795  0.00  0.00    -0.387 OA
ATOM      6  H   UNL     1       7.821  -2.040  24.853  0.00  0.00    +0.210 HD
ENDBRANCH   4   5
BRANCH   4   7
ATOM      7  C   UNL     1       9.413   0.231  23.359  0.00  0.00    +0.148 C 
BRANCH   7   8
ATOM      8  O   UNL     1       8.323   0.107  22.432  0.00  0.00    -0.389 OA
ATOM      9  H   UNL     1       8.625   0.515  21.602  0.00  0.00    +0.210 HD
ENDBRANCH   7   8
BRANCH   7  10
ATOM     10  C   UNL     1       9.394   1.644  23.958  0.00  0.00    +0.062 C 
BRANCH  10  11
ATOM     11  C   UNL     1       9.695   2.767  22.971  0.00  0.00    +0.158 C 
BRANCH  11  12
ATOM     12  O   UNL     1      10.169   2.246  21.738  0.00  0.00    -0.395 OA
ATOM     13  H   UNL     1      10.809   1.545  21.960  0.00  0.00    +0.209 HD
ENDBRANCH  11  12
ENDBRANCH  10  11
ENDBRANCH   7  10
ENDBRANCH   4   7
ENDBRANCH   1   4
BRANCH   1  14
ATOM     14  C   UNL     1       8.740  -3.284  23.597  0.00  0.00    +0.206 C 
BRANCH  14  15
ATOM     15  O   UNL     1       8.038  -2.915  22.410  0.00  0.00    -0.284 OA
BRANCH  15  16
ATOM     16  P   UNL     1       6.365  -3.355  22.389  0.00  0.00    +0.472 P 
ATOM     17  O   UNL     1       4.869  -3.748  22.370  0.00  0.00    -0.228 OA
BRANCH  16  18
ATOM     18  O   UNL     1       6.054  -1.762  22.624  0.00  0.00    -0.303 OA
ATOM     19  H   UNL     1       6.758  -1.224  22.230  0.00  0.00    +0.222 HD
ENDBRANCH  16  18
BRANCH  16  20
ATOM     20  O   UNL     1       6.548  -3.752  23.965  0.00  0.00    -0.303 OA
ATOM     21  H   UNL     1       6.716  -4.702  24.073  0.00  0.00    +0.222 HD
ENDBRANCH  16  20
ENDBRANCH  15  16
ENDBRANCH  14  15
ENDBRANCH   1  14
TORSDOF 13
ENDMDL
MODEL 5
REMARK VINA RESULT:      -4.4      2.627      5.513
REMARK  Name = 
REMARK  13 active torsions:
REMARK  status: ('A' for Active; 'I' for Inactive)
REMARK    1  A    between atoms: O_1  and  C_2
REMARK    2  A    between atoms: C_2  and  C_3
REMARK    3  A    between atoms: C_3  and  C_4
REMARK    4  A    between atoms: C_4  and  O_6
REMARK    5  A    between atoms: C_4  and  C_7
REMARK    6  A    between atoms: C_7  and  O_9
REMARK    7  A    between atoms: C_7  and  C_10
REMARK    8  A    between atoms: C_10  and  O_12
REMARK    9  A    between atoms: C_10  and  C_13
REMARK   10  A    between atoms: C_13  and  O_14
REMARK   11  A    between atoms: O_14  and  P_15
REMARK   12  A    between atoms: P_15  and  O_16
REMARK   13  A    between atoms: P_15  and  O_17
REMARK                            x       y       z     vdW  Elec       q    Type
REMARK                         _______ _______ _______ _____ _____    ______ ____
ROOT
ATOM      1  C   UNL     1       9.227  -1.287  21.747  0.00  0.00    +0.172 C 
ENDROOT
BRANCH   1   2
ATOM      2  O   UNL     1      10.591  -1.721  21.902  0.00  0.00    -0.387 OA
ATOM      3  H   UNL     1      10.943  -1.786  20.994  0.00  0.00    +0.210 HD
ENDBRANCH   1   2
BRANCH   1   4
ATOM      4  C   UNL     1       8.302  -2.035  22.722  0.00  0.00    +0.174 C 
BRANCH   4   5
ATOM      5  O   UNL     1       7.465  -1.100  23.433  0.00  0.00    -0.387 OA
ATOM      6  H   UNL     1       6.770  -1.646  23.843  0.00  0.00    +0.210 HD
ENDBRANCH   4   5
BRANCH   4   7
ATOM      7  C   UNL     1       9.059  -2.897  23.753  0.00  0.00    +0.148 C 
BRANCH   7   8
ATOM      8  O   UNL     1       9.751  -2.024  24.661  0.00  0.00    -0.389 OA
ATOM      9  H   UNL     1       9.807  -1.160  24.217  0.00  0.00    +0.210 HD
ENDBRANCH   7   8
BRANCH   7  10
ATOM     10  C   UNL     1       8.204  -3.878  24.567  0.00  0.00    +0.062 C 
BRANCH  10  11
ATOM     11  C   UNL     1       8.982  -4.995  25.255  0.00  0.00    +0.158 C 
BRANCH  11  12
ATOM     12  O   UNL     1      10.336  -5.008  24.828  0.00  0.00    -0.395 OA
ATOM     13  H   UNL     1      10.559  -4.092  24.583  0.00  0.00    +0.209 HD
ENDBRANCH  11  12
ENDBRANCH  10  11
ENDBRANCH   7  10
ENDBRANCH   4   7
ENDBRANCH   1   4
BRANCH   1  14
ATOM     14  C   UNL     1       9.169   0.231  21.951  0.00  0.00    +0.206 C 
BRANCH  14  15
ATOM     15  O   UNL     1      10.009   0.557  23.059  0.00  0.00    -0.284 OA
BRANCH  15  16
ATOM     16  P   UNL     1       9.475   1.906  24.003  0.00  0.00    +0.472 P 
ATOM     17  O   UNL     1       8.998   3.113  24.847  0.00  0.00    -0.228 OA
BRANCH  16  18
ATOM     18  O   UNL     1       9.211   0.823  25.205  0.00  0.00    -0.303 OA
ATOM     19  H   UNL     1      10.048   0.602  25.643  0.00  0.00    +0.222 HD
ENDBRANCH  16  18
BRANCH  16  20
ATOM     20  O   UNL     1       8.028   1.730  23.262  0.00  0.00    -0.303 OA
ATOM     21  H   UNL     1       8.124   1.305  22.394  0.00  0.00    +0.222 HD
ENDBRANCH  16  20
ENDBRANCH  15  16
ENDBRANCH  14  15
ENDBRANCH   1  14
TORSDOF 13
ENDMDL
MODEL 6
REMARK VINA RESULT:      -4.4      2.569      5.678
REMARK  Name = 
REMARK  13 active torsions:
REMARK  status: ('A' for Active; 'I' for Inactive)
REMARK    1  A    between atoms: O_1  and  C_2
REMARK    2  A    between atoms: C_2  and  C_3
REMARK    3  A    between atoms: C_3  and  C_4
REMARK    4  A    between atoms: C_4  and  O_6
REMARK    5  A    between atoms: C_4  and  C_7
REMARK    6  A    between atoms: C_7  and  O_9
REMARK    7  A    between atoms: C_7  and  C_10
REMARK    8  A    between atoms: C_10  and  O_12
REMARK    9  A    between atoms: C_10  and  C_13
REMARK   10  A    between atoms: C_13  and  O_14
REMARK   11  A    between atoms: O_14  and  P_15
REMARK   12  A    between atoms: P_15  and  O_16
REMARK   13  A    between atoms: P_15  and  O_17
REMARK                            x       y       z     vdW  Elec       q    Type
REMARK                         _______ _______ _______ _____ _____    ______ ____
ROOT
ATOM      1  C   UNL     1       7.833  -3.265  23.416  0.00  0.00    +0.172 C 
ENDROOT
BRANCH   1   2
ATOM      2  O   UNL     1       7.591  -4.556  22.827  0.00  0.00    -0.387 OA
ATOM      3  H   UNL     1       8.376  -5.090  23.052  0.00  0.00    +0.210 HD
ENDBRANCH   1   2
BRANCH   1   4
ATOM      4  C   UNL     1       8.974  -3.339  24.444  0.00  0.00    +0.174 C 
BRANCH   4   5
ATOM      5  O   UNL     1      10.229  -2.993  23.822  0.00  0.00    -0.387 OA
ATOM      6  H   UNL     1       9.984  -2.594  22.968  0.00  0.00    +0.210 HD
ENDBRANCH   4   5
BRANCH   4   7
ATOM      7  C   UNL     1       9.120  -4.724  25.106  0.00  0.00    +0.148 C 
BRANCH   7   8
ATOM      8  O   UNL     1      10.481  -5.161  24.961  0.00  0.00    -0.389 OA
ATOM      9  H   UNL     1      11.031  -4.478  25.381  0.00  0.00    +0.210 HD
ENDBRANCH   7   8
BRANCH   7  10
ATOM     10  C   UNL     1       8.731  -4.805  26.589  0.00  0.00    +0.062 C 
BRANCH  10  11
ATOM     11  C   UNL     1       7.274  -5.169  26.855  0.00  0.00    +0.158 C 
BRANCH  11  12
ATOM     12  O   UNL     1       6.643  -5.637  25.673  0.00  0.00    -0.395 OA
ATOM     13  H   UNL     1       7.356  -5.897  25.061  0.00  0.00    +0.209 HD
ENDBRANCH  11  12
ENDBRANCH  10  11
ENDBRANCH   7  10
ENDBRANCH   4   7
ENDBRANCH   1   4
BRANCH   1  14
ATOM     14  C   UNL     1       8.133  -2.263  22.295  0.00  0.00    +0.206 C 
BRANCH  14  15
ATOM     15  O   UNL     1       8.000  -0.948  22.836  0.00  0.00    -0.284 OA
BRANCH  15  16
ATOM     16  P   UNL     1       9.139   0.205  22.230  0.00  0.00    +0.472 P 
ATOM     17  O   UNL     1      10.159   1.236  21.688  0.00  0.00    -0.228 OA
BRANCH  16  18
ATOM     18  O   UNL     1       9.821  -1.052  21.426  0.00  0.00    -0.303 OA
ATOM     19  H   UNL     1      10.290  -0.729  20.641  0.00  0.00    +0.222 HD
ENDBRANCH  16  18
BRANCH  16  20
ATOM     20  O   UNL     1       9.951  -0.001  23.635  0.00  0.00    -0.303 OA
ATOM     21  H   UNL     1       9.800   0.741  24.243  0.00  0.00    +0.222 HD
ENDBRANCH  16  20
ENDBRANCH  15  16
ENDBRANCH  14  15
ENDBRANCH   1  14
TORSDOF 13
ENDMDL
MODEL 7
REMARK VINA RESULT:      -4.4      2.323      3.282
REMARK  Name = 
REMARK  13 active torsions:
REMARK  status: ('A' for Active; 'I' for Inactive)
REMARK    1  A    between atoms: O_1  and  C_2
REMARK    2  A    between atoms: C_2  and  C_3
REMARK    3  A    between atoms: C_3  and  C_4
REMARK    4  A    between atoms: C_4  and  O_6
REMARK    5  A    between atoms: C_4  and  C_7
REMARK    6  A    between atoms: C_7  and  O_9
REMARK    7  A    between atoms: C_7  and  C_10
REMARK    8  A    between atoms: C_10  and  O_12
REMARK    9  A    between atoms: C_10  and  C_13
REMARK   10  A    between atoms: C_13  and  O_14
REMARK   11  A    between atoms: O_14  and  P_15
REMARK   12  A    between atoms: P_15  and  O_16
REMARK   13  A    between atoms: P_15  and  O_17
REMARK                            x       y       z     vdW  Elec       q    Type
REMARK                         _______ _______ _______ _____ _____    ______ ____
ROOT
ATOM      1  C   UNL     1      10.093  -1.483  22.449  0.00  0.00    +0.172 C 
ENDROOT
BRANCH   1   2
ATOM      2  O   UNL     1       9.811  -1.005  21.121  0.00  0.00    -0.387 OA
ATOM      3  H   UNL     1      10.685  -0.872  20.707  0.00  0.00    +0.210 HD
ENDBRANCH   1   2
BRANCH   1   4
ATOM      4  C   UNL     1      10.459  -0.317  23.383  0.00  0.00    +0.174 C 
BRANCH   4   5
ATOM      5  O   UNL     1       9.763  -0.447  24.640  0.00  0.00    -0.387 OA
ATOM      6  H   UNL     1      10.331   0.005  25.290  0.00  0.00    +0.210 HD
ENDBRANCH   4   5
BRANCH   4   7
ATOM      7  C   UNL     1      10.143   1.071  22.790  0.00  0.00    +0.148 C 
BRANCH   7   8
ATOM      8  O   UNL     1       8.746   1.122  22.459  0.00  0.00    -0.389 OA
ATOM      9  H   UNL     1       8.633   1.894  21.877  0.00  0.00    +0.210 HD
ENDBRANCH   7   8
BRANCH   7  10
ATOM     10  C   UNL     1      10.484   2.275  23.679  0.00  0.00    +0.062 C 
BRANCH  10  11
ATOM     11  C   UNL     1       9.281   2.985  24.292  0.00  0.00    +0.158 C 
BRANCH  11  12
ATOM     12  O   UNL     1       8.653   2.169  25.269  0.00  0.00    -0.395 OA
ATOM     13  H   UNL     1       9.285   2.082  26.006  0.00  0.00    +0.209 HD
ENDBRANCH  11  12
ENDBRANCH  10  11
ENDBRANCH   7  10
ENDBRANCH   4   7
ENDBRANCH   1   4
BRANCH   1  14
ATOM     14  C   UNL     1       8.877  -2.266  22.957  0.00  0.00    +0.206 C 
BRANCH  14  15
ATOM     15  O   UNL     1       7.703  -1.560  22.558  0.00  0.00    -0.284 OA
BRANCH  15  16
ATOM     16  P   UNL     1       6.419  -1.571  23.718  0.00  0.00    +0.472 P 
ATOM     17  O   UNL     1       5.271  -1.581  24.756  0.00  0.00    -0.228 OA
BRANCH  16  18
ATOM     18  O   UNL     1       6.905  -0.055  24.110  0.00  0.00    -0.303 OA
ATOM     19  H   UNL     1       6.263   0.595  23.783  0.00  0.00    +0.222 HD
ENDBRANCH  16  18
BRANCH  16  20
ATOM     20  O   UNL     1       7.448  -2.367  24.708  0.00  0.00    -0.303 OA
ATOM     21  H   UNL     1       7.683  -1.828  25.481  0.00  0.00    +0.222 HD
ENDBRANCH  16  20
ENDBRANCH  15  16
ENDBRANCH  14  15
ENDBRANCH   1  14
TORSDOF 13
ENDMDL
MODEL 8
REMARK VINA RESULT:      -4.3      2.194      3.118
REMARK  Name = 
REMARK  13 active torsions:
REMARK  status: ('A' for Active; 'I' for Inactive)
REMARK    1  A    between atoms: O_1  and  C_2
REMARK    2  A    between atoms: C_2  and  C_3
REMARK    3  A    between atoms: C_3  and  C_4
REMARK    4  A    between atoms: C_4  and  O_6
REMARK    5  A    between atoms: C_4  and  C_7
REMARK    6  A    between atoms: C_7  and  O_9
REMARK    7  A    between atoms: C_7  and  C_10
REMARK    8  A    between atoms: C_10  and  O_12
REMARK    9  A    between atoms: C_10  and  C_13
REMARK   10  A    between atoms: C_13  and  O_14
REMARK   11  A    between atoms: O_14  and  P_15
REMARK   12  A    between atoms: P_15  and  O_16
REMARK   13  A    between atoms: P_15  and  O_17
REMARK                            x       y       z     vdW  Elec       q    Type
REMARK                         _______ _______ _______ _____ _____    ______ ____
ROOT
ATOM      1  C   UNL     1       8.990  -2.319  24.280  0.00  0.00    +0.172 C 
ENDROOT
BRANCH   1   2
ATOM      2  O   UNL     1      10.187  -2.979  23.827  0.00  0.00    -0.387 OA
ATOM      3  H   UNL     1      10.595  -3.347  24.633  0.00  0.00    +0.210 HD
ENDBRANCH   1   2
BRANCH   1   4
ATOM      4  C   UNL     1       8.708  -1.062  23.440  0.00  0.00    +0.174 C 
BRANCH   4   5
ATOM      5  O   UNL     1       7.363  -1.100  22.919  0.00  0.00    -0.387 OA
ATOM      6  H   UNL     1       7.451  -0.859  21.979  0.00  0.00    +0.210 HD
ENDBRANCH   4   5
BRANCH   4   7
ATOM      7  C   UNL     1       9.685  -0.877  22.260  0.00  0.00    +0.148 C 
BRANCH   7   8
ATOM      8  O   UNL     1       9.563  -2.007  21.381  0.00  0.00    -0.389 OA
ATOM      9  H   UNL     1       9.203  -1.663  20.545  0.00  0.00    +0.210 HD
ENDBRANCH   7   8
BRANCH   7  10
ATOM     10  C   UNL     1       9.510   0.408  21.438  0.00  0.00    +0.062 C 
BRANCH  10  11
ATOM     11  C   UNL     1       9.882   1.695  22.166  0.00  0.00    +0.158 C 
BRANCH  11  12
ATOM     12  O   UNL     1       9.065   2.775  21.739  0.00  0.00    -0.395 OA
ATOM     13  H   UNL     1       8.327   2.833  22.373  0.00  0.00    +0.209 HD
ENDBRANCH  11  12
ENDBRANCH  10  11
ENDBRANCH   7  10
ENDBRANCH   4   7
ENDBRANCH   1   4
BRANCH   1  14
ATOM     14  C   UNL     1       7.828  -3.318  24.226  0.00  0.00    +0.206 C 
BRANCH  14  15
ATOM     15  O   UNL     1       7.862  -3.962  22.953  0.00  0.00    -0.284 OA
BRANCH  15  16
ATOM     16  P   UNL     1       6.379  -4.718  22.481  0.00  0.00    +0.472 P 
ATOM     17  O   UNL     1       5.053  -5.395  22.059  0.00  0.00    -0.228 OA
BRANCH  16  18
ATOM     18  O   UNL     1       7.286  -5.598  21.435  0.00  0.00    -0.303 OA
ATOM     19  H   UNL     1       7.393  -6.502  21.769  0.00  0.00    +0.222 HD
ENDBRANCH  16  18
BRANCH  16  20
ATOM     20  O   UNL     1       6.146  -3.431  21.499  0.00  0.00    -0.303 OA
ATOM     21  H   UNL     1       6.618  -2.647  21.825  0.00  0.00    +0.222 HD
ENDBRANCH  16  20
ENDBRANCH  15  16
ENDBRANCH  14  15
ENDBRANCH   1  14
TORSDOF 13
ENDMDL
MODEL 9
REMARK VINA RESULT:      -4.3      1.685      1.891
REMARK  Name = 
REMARK  13 active torsions:
REMARK  status: ('A' for Active; 'I' for Inactive)
REMARK    1  A    between atoms: O_1  and  C_2
REMARK    2  A    between atoms: C_2  and  C_3
REMARK    3  A    between atoms: C_3  and  C_4
REMARK    4  A    between atoms: C_4  and  O_6
REMARK    5  A    between atoms: C_4  and  C_7
REMARK    6  A    between atoms: C_7  and  O_9
REMARK    7  A    between atoms: C_7  and  C_10
REMARK    8  A    between atoms: C_10  and  O_12
REMARK    9  A    between atoms: C_10  and  C_13
REMARK   10  A    between atoms: C_13  and  O_14
REMARK   11  A    between atoms: O_14  and  P_15
REMARK   12  A    between atoms: P_15  and  O_16
REMARK   13  A    between atoms: P_15  and  O_17
REMARK                            x       y       z     vdW  Elec       q    Type
REMARK                         _______ _______ _______ _____ _____    ______ ____
ROOT
ATOM      1  C   UNL     1       7.893  -3.224  22.683  0.00  0.00    +0.172 C 
ENDROOT
BRANCH   1   2
ATOM      2  O   UNL     1       6.812  -2.273  22.721  0.00  0.00    -0.387 OA
ATOM      3  H   UNL     1       6.742  -1.930  21.810  0.00  0.00    +0.210 HD
ENDBRANCH   1   2
BRANCH   1   4
ATOM      4  C   UNL     1       9.224  -2.550  23.057  0.00  0.00    +0.174 C 
BRANCH   4   5
ATOM      5  O   UNL     1       9.915  -3.331  24.054  0.00  0.00    -0.387 OA
ATOM      6  H   UNL     1      10.333  -2.674  24.641  0.00  0.00    +0.210 HD
ENDBRANCH   4   5
BRANCH   4   7
ATOM      7  C   UNL     1       9.061  -1.111  23.587  0.00  0.00    +0.148 C 
BRANCH   7   8
ATOM      8  O   UNL     1       8.550  -1.171  24.929  0.00  0.00    -0.389 OA
ATOM      9  H   UNL     1       9.172  -1.728  25.430  0.00  0.00    +0.210 HD
ENDBRANCH   7   8
BRANCH   7  10
ATOM     10  C   UNL     1      10.328  -0.245  23.580  0.00  0.00    +0.062 C 
BRANCH  10  11
ATOM     11  C   UNL     1      10.602   0.507  24.878  0.00  0.00    +0.158 C 
BRANCH  11  12
ATOM     12  O   UNL     1       9.668   1.560  25.062  0.00  0.00    -0.395 OA
ATOM     13  H   UNL     1       8.985   1.222  25.670  0.00  0.00    +0.209 HD
ENDBRANCH  11  12
ENDBRANCH  10  11
ENDBRANCH   7  10
ENDBRANCH   4   7
ENDBRANCH   1   4
BRANCH   1  14
ATOM     14  C   UNL     1       7.555  -4.389  23.621  0.00  0.00    +0.206 C 
BRANCH  14  15
ATOM     15  O   UNL     1       7.080  -3.839  24.850  0.00  0.00    -0.284 OA
BRANCH  15  16
ATOM     16  P   UNL     1       7.436  -4.785  26.254  0.00  0.00    +0.472 P 
ATOM     17  O   UNL     1       7.755  -5.631  27.510  0.00  0.00    -0.228 OA
BRANCH  16  18
ATOM     18  O   UNL     1       8.429  -3.557  26.697  0.00  0.00    -0.303 OA
ATOM     19  H   UNL     1       9.027  -3.334  25.967  0.00  0.00    +0.222 HD
ENDBRANCH  16  18
BRANCH  16  20
ATOM     20  O   UNL     1       8.519  -5.584  25.325  0.00  0.00    -0.303 OA
ATOM     21  H   UNL     1       8.098  -5.959  24.534  0.00  0.00    +0.222 HD
ENDBRANCH  16  20
ENDBRANCH  15  16
ENDBRANCH  14  15
ENDBRANCH   1  14
TORSDOF 13
ENDMDL
