MODEL 1
REMARK VINA RESULT:      -4.1      0.000      0.000
REMARK  Name = 
REMARK  6 active torsions:
REMARK  status: ('A' for Active; 'I' for Inactive)
REMARK    1  A    between atoms: O_1  and  C_2
REMARK    2  A    between atoms: C_2  and  C_3
REMARK    3  A    between atoms: C_6  and  S_8
REMARK    4  A    between atoms: C_9  and  O_11
REMARK    5  A    between atoms: C_12  and  O_14
REMARK    6  A    between atoms: C_15  and  S_17
REMARK                            x       y       z     vdW  Elec       q    Type
REMARK                         _______ _______ _______ _____ _____    ______ ____
ROOT
ATOM      1  C   UNL     1       8.273   1.228  23.056  0.00  0.00    +0.160 C 
ATOM      2  C   UNL     1       9.121   2.033  24.063  0.00  0.00    +0.105 C 
ATOM      3  C   UNL     1      10.141   1.180  24.838  0.00  0.00    +0.161 C 
ATOM      4  C   UNL     1       9.591  -0.185  25.273  0.00  0.00    +0.183 C 
ATOM      5  C   UNL     1       8.853  -0.915  24.142  0.00  0.00    +0.204 C 
ATOM      6  O   UNL     1       7.894  -0.090  23.478  0.00  0.00    -0.357 OA
ENDROOT
BRANCH   2   7
ATOM      7  S   UNL     1       7.980   2.948  25.198  0.00  0.00    -0.170 S 
ATOM      8  H   UNL     1       7.443   3.774  24.287  0.00  0.00    +0.102 HD
ENDBRANCH   2   7
BRANCH   3   9
ATOM      9  O   UNL     1      11.347   1.024  24.079  0.00  0.00    -0.388 OA
ATOM     10  H   UNL     1      11.256   1.508  23.232  0.00  0.00    +0.210 HD
ENDBRANCH   3   9
BRANCH   4  11
ATOM     11  O   UNL     1       8.702   0.003  26.400  0.00  0.00    -0.386 OA
ATOM     12  H   UNL     1       7.783   0.002  26.074  0.00  0.00    +0.210 HD
ENDBRANCH   4  11
BRANCH   5  13
ATOM     13  S   UNL     1       9.889  -1.904  23.031  0.00  0.00    -0.145 S 
ATOM     14  H   UNL     1      10.303  -0.883  22.266  0.00  0.00    +0.104 HD
ENDBRANCH   5  13
BRANCH   1  15
ATOM     15  C   UNL     1       8.857   1.232  21.631  0.00  0.00    +0.188 C 
BRANCH  15  16
ATOM     16  O   UNL     1       9.996   2.081  21.505  0.00  0.00    -0.392 OA
ATOM     17  H   UNL     1      10.347   2.187  22.412  0.00  0.00    +0.210 HD
ENDBRANCH  15  16
ENDBRANCH   1  15
TORSDOF 6
ENDMDL
MODEL 2
REMARK VINA RESULT:      -4.0      2.105      3.802
REMARK  Name = 
REMARK  6 active torsions:
REMARK  status: ('A' for Active; 'I' for Inactive)
REMARK    1  A    between atoms: O_1  and  C_2
REMARK    2  A    between atoms: C_2  and  C_3
REMARK    3  A    between atoms: C_6  and  S_8
REMARK    4  A    between atoms: C_9  and  O_11
REMARK    5  A    between atoms: C_12  and  O_14
REMARK    6  A    between atoms: C_15  and  S_17
REMARK                            x       y       z     vdW  Elec       q    Type
REMARK                         _______ _______ _______ _____ _____    ______ ____
ROOT
ATOM      1  C   UNL     1       9.434   0.073  24.521  0.00  0.00    +0.160 C 
ATOM      2  C   UNL     1       8.686   0.507  23.243  0.00  0.00    +0.105 C 
ATOM      3  C   UNL     1       8.147  -0.668  22.408  0.00  0.00    +0.161 C 
ATOM      4  C   UNL     1       9.121  -1.851  22.319  0.00  0.00    +0.183 C 
ATOM      5  C   UNL     1       9.716  -2.235  23.681  0.00  0.00    +0.204 C 
ATOM      6  O   UNL     1      10.233  -1.114  24.399  0.00  0.00    -0.357 OA
ENDROOT
BRANCH   2   7
ATOM      7  S   UNL     1       9.800   1.606  22.253  0.00  0.00    -0.170 S 
ATOM      8  H   UNL     1      10.637   1.953  23.241  0.00  0.00    +0.102 HD
ENDBRANCH   2   7
BRANCH   3   9
ATOM      9  O   UNL     1       6.872  -1.095  22.906  0.00  0.00    -0.388 OA
ATOM     10  H   UNL     1       6.350  -0.308  23.164  0.00  0.00    +0.210 HD
ENDBRANCH   3   9
BRANCH   4  11
ATOM     11  O   UNL     1      10.183  -1.517  21.394  0.00  0.00    -0.386 OA
ATOM     12  H   UNL     1      10.038  -0.610  21.068  0.00  0.00    +0.210 HD
ENDBRANCH   4  11
BRANCH   5  13
ATOM     13  S   UNL     1       8.726  -3.376  24.683  0.00  0.00    -0.145 S 
ATOM     14  H   UNL     1       7.659  -3.400  23.872  0.00  0.00    +0.104 HD
ENDBRANCH   5  13
BRANCH   1  15
ATOM     15  C   UNL     1       8.532   0.036  25.770  0.00  0.00    +0.188 C 
BRANCH  15  16
ATOM     16  O   UNL     1       9.227  -0.397  26.937  0.00  0.00    -0.392 OA
ATOM     17  H   UNL     1       8.730  -1.172  27.267  0.00  0.00    +0.210 HD
ENDBRANCH  15  16
ENDBRANCH   1  15
TORSDOF 6
ENDMDL
MODEL 3
REMARK VINA RESULT:      -4.0      1.108      3.492
REMARK  Name = 
REMARK  6 active torsions:
REMARK  status: ('A' for Active; 'I' for Inactive)
REMARK    1  A    between atoms: O_1  and  C_2
REMARK    2  A    between atoms: C_2  and  C_3
REMARK    3  A    between atoms: C_6  and  S_8
REMARK    4  A    between atoms: C_9  and  O_11
REMARK    5  A    between atoms: C_12  and  O_14
REMARK    6  A    between atoms: C_15  and  S_17
REMARK                            x       y       z     vdW  Elec       q    Type
REMARK                         _______ _______ _______ _____ _____    ______ ____
ROOT
ATOM      1  C   UNL     1       9.347   1.139  24.798  0.00  0.00    +0.160 C 
ATOM      2  C   UNL     1       8.410   2.089  24.022  0.00  0.00    +0.105 C 
ATOM      3  C   UNL     1       8.170   1.668  22.561  0.00  0.00    +0.161 C 
ATOM      4  C   UNL     1       9.432   1.152  21.858  0.00  0.00    +0.183 C 
ATOM      5  C   UNL     1      10.216   0.143  22.709  0.00  0.00    +0.204 C 
ATOM      6  O   UNL     1      10.442   0.596  24.045  0.00  0.00    -0.357 OA
ENDROOT
BRANCH   2   7
ATOM      7  S   UNL     1       9.081   3.810  24.145  0.00  0.00    -0.170 S 
ATOM      8  H   UNL     1      10.043   3.695  23.218  0.00  0.00    +0.102 HD
ENDBRANCH   2   7
BRANCH   3   9
ATOM      9  O   UNL     1       7.114   0.702  22.483  0.00  0.00    -0.388 OA
ATOM     10  H   UNL     1       6.256   1.155  22.619  0.00  0.00    +0.210 HD
ENDBRANCH   3   9
BRANCH   4  11
ATOM     11  O   UNL     1      10.280   2.278  21.527  0.00  0.00    -0.386 OA
ATOM     12  H   UNL     1      10.947   1.985  20.879  0.00  0.00    +0.210 HD
ENDBRANCH   4  11
BRANCH   5  13
ATOM     13  S   UNL     1       9.675  -1.584  22.584  0.00  0.00    -0.145 S 
ATOM     14  H   UNL     1       8.639  -1.477  23.427  0.00  0.00    +0.104 HD
ENDBRANCH   5  13
BRANCH   1  15
ATOM     15  C   UNL     1       8.592   0.052  25.586  0.00  0.00    +0.188 C 
BRANCH  15  16
ATOM     16  O   UNL     1       9.302  -0.380  26.744  0.00  0.00    -0.392 OA
ATOM     17  H   UNL     1      10.246  -0.209  26.555  0.00  0.00    +0.210 HD
ENDBRANCH  15  16
ENDBRANCH   1  15
TORSDOF 6
ENDMDL
MODEL 4
REMARK VINA RESULT:      -4.0      1.688      3.675
REMARK  Name = 
REMARK  6 active torsions:
REMARK  status: ('A' for Active; 'I' for Inactive)
REMARK    1  A    between atoms: O_1  and  C_2
REMARK    2  A    between atoms: C_2  and  C_3
REMARK    3  A    between atoms: C_6  and  S_8
REMARK    4  A    between atoms: C_9  and  O_11
REMARK    5  A    between atoms: C_12  and  O_14
REMARK    6  A    between atoms: C_15  and  S_17
REMARK                            x       y       z     vdW  Elec       q    Type
REMARK                         _______ _______ _______ _____ _____    ______ ____
ROOT
ATOM      1  C   UNL     1       7.968  -0.395  24.149  0.00  0.00    +0.160 C 
ATOM      2  C   UNL     1       9.455  -0.789  24.272  0.00  0.00    +0.105 C 
ATOM      3  C   UNL     1      10.392   0.034  23.369  0.00  0.00    +0.161 C 
ATOM      4  C   UNL     1       9.819   0.297  21.971  0.00  0.00    +0.183 C 
ATOM      5  C   UNL     1       8.360   0.775  22.007  0.00  0.00    +0.204 C 
ATOM      6  O   UNL     1       7.526  -0.042  22.830  0.00  0.00    -0.357 OA
ENDROOT
BRANCH   2   7
ATOM      7  S   UNL     1       9.611  -2.607  23.956  0.00  0.00    -0.170 S 
ATOM      8  H   UNL     1       9.460  -2.572  22.624  0.00  0.00    +0.102 HD
ENDBRANCH   2   7
BRANCH   3   9
ATOM      9  O   UNL     1      10.755   1.264  24.010  0.00  0.00    -0.388 OA
ATOM     10  H   UNL     1      11.438   1.715  23.473  0.00  0.00    +0.210 HD
ENDBRANCH   3   9
BRANCH   4  11
ATOM     11  O   UNL     1       9.920  -0.915  21.185  0.00  0.00    -0.386 OA
ATOM     12  H   UNL     1       9.210  -1.524  21.461  0.00  0.00    +0.210 HD
ENDBRANCH   4  11
BRANCH   5  13
ATOM     13  S   UNL     1       8.118   2.558  22.230  0.00  0.00    -0.145 S 
ATOM     14  H   UNL     1       6.778   2.522  22.267  0.00  0.00    +0.104 HD
ENDBRANCH   5  13
BRANCH   1  15
ATOM     15  C   UNL     1       7.526   0.640  25.202  0.00  0.00    +0.188 C 
BRANCH  15  16
ATOM     16  O   UNL     1       8.599   1.066  26.038  0.00  0.00    -0.392 OA
ATOM     17  H   UNL     1       8.186   1.605  26.743  0.00  0.00    +0.210 HD
ENDBRANCH  15  16
ENDBRANCH   1  15
TORSDOF 6
ENDMDL
MODEL 5
REMARK VINA RESULT:      -4.0      1.723      3.949
REMARK  Name = 
REMARK  6 active torsions:
REMARK  status: ('A' for Active; 'I' for Inactive)
REMARK    1  A    between atoms: O_1  and  C_2
REMARK    2  A    between atoms: C_2  and  C_3
REMARK    3  A    between atoms: C_6  and  S_8
REMARK    4  A    between atoms: C_9  and  O_11
REMARK    5  A    between atoms: C_12  and  O_14
REMARK    6  A    between atoms: C_15  and  S_17
REMARK                            x       y       z     vdW  Elec       q    Type
REMARK                         _______ _______ _______ _____ _____    ______ ____
ROOT
ATOM      1  C   UNL     1       7.378   0.455  23.083  0.00  0.00    +0.160 C 
ATOM      2  C   UNL     1       8.814  -0.064  23.305  0.00  0.00    +0.105 C 
ATOM      3  C   UNL     1       9.823   1.038  23.676  0.00  0.00    +0.161 C 
ATOM      4  C   UNL     1       9.629   2.337  22.882  0.00  0.00    +0.183 C 
ATOM      5  C   UNL     1       8.162   2.785  22.825  0.00  0.00    +0.204 C 
ATOM      6  O   UNL     1       7.273   1.736  22.442  0.00  0.00    -0.357 OA
ENDROOT
BRANCH   2   7
ATOM      7  S   UNL     1       9.340  -1.004  21.799  0.00  0.00    -0.170 S 
ATOM      8  H   UNL     1       9.780  -2.108  22.420  0.00  0.00    +0.102 HD
ENDBRANCH   2   7
BRANCH   3   9
ATOM      9  O   UNL     1       9.790   1.294  25.087  0.00  0.00    -0.388 OA
ATOM     10  H   UNL     1       9.756   0.441  25.566  0.00  0.00    +0.210 HD
ENDBRANCH   3   9
BRANCH   4  11
ATOM     11  O   UNL     1      10.138   2.148  21.541  0.00  0.00    -0.386 OA
ATOM     12  H   UNL     1      11.113   2.142  21.576  0.00  0.00    +0.210 HD
ENDBRANCH   4  11
BRANCH   5  13
ATOM     13  S   UNL     1       7.586   3.783  24.225  0.00  0.00    -0.145 S 
ATOM     14  H   UNL     1       8.675   4.559  24.314  0.00  0.00    +0.104 HD
ENDBRANCH   5  13
BRANCH   1  15
ATOM     15  C   UNL     1       6.499   0.368  24.345  0.00  0.00    +0.188 C 
BRANCH  15  16
ATOM     16  O   UNL     1       5.244   1.026  24.189  0.00  0.00    -0.392 OA
ATOM     17  H   UNL     1       5.150   1.189  23.229  0.00  0.00    +0.210 HD
ENDBRANCH  15  16
ENDBRANCH   1  15
TORSDOF 6
ENDMDL
MODEL 6
REMARK VINA RESULT:      -3.9      4.420      5.712
REMARK  Name = 
REMARK  6 active torsions:
REMARK  status: ('A' for Active; 'I' for Inactive)
REMARK    1  A    between atoms: O_1  and  C_2
REMARK    2  A    between atoms: C_2  and  C_3
REMARK    3  A    between atoms: C_6  and  S_8
REMARK    4  A    between atoms: C_9  and  O_11
REMARK    5  A    between atoms: C_12  and  O_14
REMARK    6  A    between atoms: C_15  and  S_17
REMARK                            x       y       z     vdW  Elec       q    Type
REMARK                         _______ _______ _______ _____ _____    ______ ____
ROOT
ATOM      1  C   UNL     1       8.041  -2.484  25.576  0.00  0.00    +0.160 C 
ATOM      2  C   UNL     1       8.294  -2.999  24.143  0.00  0.00    +0.105 C 
ATOM      3  C   UNL     1       8.256  -4.533  24.018  0.00  0.00    +0.161 C 
ATOM      4  C   UNL     1       8.937  -5.258  25.186  0.00  0.00    +0.183 C 
ATOM      5  C   UNL     1       8.519  -4.703  26.555  0.00  0.00    +0.204 C 
ATOM      6  O   UNL     1       8.606  -3.279  26.630  0.00  0.00    -0.357 OA
ENDROOT
BRANCH   2   7
ATOM      7  S   UNL     1       9.896  -2.295  23.537  0.00  0.00    -0.170 S 
ATOM      8  H   UNL     1       9.426  -1.111  23.120  0.00  0.00    +0.102 HD
ENDBRANCH   2   7
BRANCH   3   9
ATOM      9  O   UNL     1       6.907  -4.990  23.853  0.00  0.00    -0.388 OA
ATOM     10  H   UNL     1       6.760  -5.216  22.912  0.00  0.00    +0.210 HD
ENDBRANCH   3   9
BRANCH   4  11
ATOM     11  O   UNL     1      10.372  -5.155  25.031  0.00  0.00    -0.386 OA
ATOM     12  H   UNL     1      10.572  -4.356  24.510  0.00  0.00    +0.210 HD
ENDBRANCH   4  11
BRANCH   5  13
ATOM     13  S   UNL     1       7.002  -5.400  27.261  0.00  0.00    -0.145 S 
ATOM     14  H   UNL     1       6.804  -4.435  28.171  0.00  0.00    +0.104 HD
ENDBRANCH   5  13
BRANCH   1  15
ATOM     15  C   UNL     1       6.565  -2.135  25.844  0.00  0.00    +0.188 C 
BRANCH  15  16
ATOM     16  O   UNL     1       5.742  -2.303  24.692  0.00  0.00    -0.392 OA
ATOM     17  H   UNL     1       5.961  -3.189  24.339  0.00  0.00    +0.210 HD
ENDBRANCH  15  16
ENDBRANCH   1  15
TORSDOF 6
ENDMDL
MODEL 7
REMARK VINA RESULT:      -3.8      3.964      5.778
REMARK  Name = 
REMARK  6 active torsions:
REMARK  status: ('A' for Active; 'I' for Inactive)
REMARK    1  A    between atoms: O_1  and  C_2
REMARK    2  A    between atoms: C_2  and  C_3
REMARK    3  A    between atoms: C_6  and  S_8
REMARK    4  A    between atoms: C_9  and  O_11
REMARK    5  A    between atoms: C_12  and  O_14
REMARK    6  A    between atoms: C_15  and  S_17
REMARK                            x       y       z     vdW  Elec       q    Type
REMARK                         _______ _______ _______ _____ _____    ______ ____
ROOT
ATOM      1  C   UNL     1       7.492  -4.774  24.697  0.00  0.00    +0.160 C 
ATOM      2  C   UNL     1       7.936  -4.484  23.248  0.00  0.00    +0.105 C 
ATOM      3  C   UNL     1       8.318  -3.015  22.997  0.00  0.00    +0.161 C 
ATOM      4  C   UNL     1       7.382  -2.013  23.688  0.00  0.00    +0.183 C 
ATOM      5  C   UNL     1       7.104  -2.375  25.154  0.00  0.00    +0.204 C 
ATOM      6  O   UNL     1       6.720  -3.741  25.328  0.00  0.00    -0.357 OA
ENDROOT
BRANCH   2   7
ATOM      7  S   UNL     1       6.605  -5.060  22.097  0.00  0.00    -0.170 S 
ATOM      8  H   UNL     1       6.740  -4.100  21.170  0.00  0.00    +0.102 HD
ENDBRANCH   2   7
BRANCH   3   9
ATOM      9  O   UNL     1       9.681  -2.778  23.371  0.00  0.00    -0.388 OA
ATOM     10  H   UNL     1       9.798  -1.826  23.568  0.00  0.00    +0.210 HD
ENDBRANCH   3   9
BRANCH   4  11
ATOM     11  O   UNL     1       6.137  -1.948  22.953  0.00  0.00    -0.386 OA
ATOM     12  H   UNL     1       6.327  -2.089  22.007  0.00  0.00    +0.210 HD
ENDBRANCH   4  11
BRANCH   5  13
ATOM     13  S   UNL     1       8.318  -1.778  26.360  0.00  0.00    -0.145 S 
ATOM     14  H   UNL     1       8.677  -2.985  26.821  0.00  0.00    +0.104 HD
ENDBRANCH   5  13
BRANCH   1  15
ATOM     15  C   UNL     1       8.641  -5.267  25.597  0.00  0.00    +0.188 C 
BRANCH  15  16
ATOM     16  O   UNL     1       9.818  -5.588  24.860  0.00  0.00    -0.392 OA
ATOM     17  H   UNL     1       9.765  -5.062  24.037  0.00  0.00    +0.210 HD
ENDBRANCH  15  16
ENDBRANCH   1  15
TORSDOF 6
ENDMDL
MODEL 8
REMARK VINA RESULT:      -3.8      4.382      6.418
REMARK  Name = 
REMARK  6 active torsions:
REMARK  status: ('A' for Active; 'I' for Inactive)
REMARK    1  A    between atoms: O_1  and  C_2
REMARK    2  A    between atoms: C_2  and  C_3
REMARK    3  A    between atoms: C_6  and  S_8
REMARK    4  A    between atoms: C_9  and  O_11
REMARK    5  A    between atoms: C_12  and  O_14
REMARK    6  A    between atoms: C_15  and  S_17
REMARK                            x       y       z     vdW  Elec       q    Type
REMARK                         _______ _______ _______ _____ _____    ______ ____
ROOT
ATOM      1  C   UNL     1       6.939  -4.002  25.752  0.00  0.00    +0.160 C 
ATOM      2  C   UNL     1       6.463  -5.108  24.786  0.00  0.00    +0.105 C 
ATOM      3  C   UNL     1       7.096  -5.024  23.385  0.00  0.00    +0.161 C 
ATOM      4  C   UNL     1       7.214  -3.589  22.853  0.00  0.00    +0.183 C 
ATOM      5  C   UNL     1       7.791  -2.616  23.891  0.00  0.00    +0.204 C 
ATOM      6  O   UNL     1       7.146  -2.710  25.162  0.00  0.00    -0.357 OA
ENDROOT
BRANCH   2   7
ATOM      7  S   UNL     1       4.614  -5.072  24.712  0.00  0.00    -0.170 S 
ATOM      8  H   UNL     1       4.420  -6.362  24.405  0.00  0.00    +0.102 HD
ENDBRANCH   2   7
BRANCH   3   9
ATOM      9  O   UNL     1       8.372  -5.678  23.370  0.00  0.00    -0.388 OA
ATOM     10  H   UNL     1       8.761  -5.640  24.267  0.00  0.00    +0.210 HD
ENDBRANCH   3   9
BRANCH   4  11
ATOM     11  O   UNL     1       5.907  -3.136  22.428  0.00  0.00    -0.386 OA
ATOM     12  H   UNL     1       5.573  -3.747  21.745  0.00  0.00    +0.210 HD
ENDBRANCH   4  11
BRANCH   5  13
ATOM     13  S   UNL     1       9.600  -2.528  23.973  0.00  0.00    -0.145 S 
ATOM     14  H   UNL     1       9.697  -1.215  23.718  0.00  0.00    +0.104 HD
ENDBRANCH   5  13
BRANCH   1  15
ATOM     15  C   UNL     1       8.129  -4.434  26.630  0.00  0.00    +0.188 C 
BRANCH  15  16
ATOM     16  O   UNL     1       8.454  -5.813  26.476  0.00  0.00    -0.392 OA
ATOM     17  H   UNL     1       9.156  -5.845  25.795  0.00  0.00    +0.210 HD
ENDBRANCH  15  16
ENDBRANCH   1  15
TORSDOF 6
ENDMDL
MODEL 9
REMARK VINA RESULT:      -3.8      2.797      3.374
REMARK  Name = 
REMARK  6 active torsions:
REMARK  status: ('A' for Active; 'I' for Inactive)
REMARK    1  A    between atoms: O_1  and  C_2
REMARK    2  A    between atoms: C_2  and  C_3
REMARK    3  A    between atoms: C_6  and  S_8
REMARK    4  A    between atoms: C_9  and  O_11
REMARK    5  A    between atoms: C_12  and  O_14
REMARK    6  A    between atoms: C_15  and  S_17
REMARK                            x       y       z     vdW  Elec       q    Type
REMARK                         _______ _______ _______ _____ _____    ______ ____
ROOT
ATOM      1  C   UNL     1       8.420  -1.033  23.021  0.00  0.00    +0.160 C 
ATOM      2  C   UNL     1       9.259  -1.321  24.283  0.00  0.00    +0.105 C 
ATOM      3  C   UNL     1       9.036  -2.725  24.872  0.00  0.00    +0.161 C 
ATOM      4  C   UNL     1       7.568  -3.170  24.853  0.00  0.00    +0.183 C 
ATOM      5  C   UNL     1       6.885  -2.910  23.503  0.00  0.00    +0.204 C 
ATOM      6  O   UNL     1       7.094  -1.583  23.019  0.00  0.00    -0.357 OA
ENDROOT
BRANCH   2   7
ATOM      7  S   UNL     1       8.928   0.010  25.527  0.00  0.00    -0.170 S 
ATOM      8  H   UNL     1       7.597  -0.138  25.599  0.00  0.00    +0.102 HD
ENDBRANCH   2   7
BRANCH   3   9
ATOM      9  O   UNL     1       9.867  -3.687  24.206  0.00  0.00    -0.388 OA
ATOM     10  H   UNL     1      10.383  -3.234  23.509  0.00  0.00    +0.210 HD
ENDBRANCH   3   9
BRANCH   4  11
ATOM     11  O   UNL     1       6.854  -2.478  25.906  0.00  0.00    -0.386 OA
ATOM     12  H   UNL     1       7.490  -1.937  26.409  0.00  0.00    +0.210 HD
ENDBRANCH   4  11
BRANCH   5  13
ATOM     13  S   UNL     1       7.091  -4.206  22.251  0.00  0.00    -0.145 S 
ATOM     14  H   UNL     1       6.627  -3.489  21.218  0.00  0.00    +0.104 HD
ENDBRANCH   5  13
BRANCH   1  15
ATOM     15  C   UNL     1       9.172  -1.336  21.710  0.00  0.00    +0.188 C 
BRANCH  15  16
ATOM     16  O   UNL     1      10.530  -1.712  21.930  0.00  0.00    -0.392 OA
ATOM     17  H   UNL     1      10.702  -2.451  21.313  0.00  0.00    +0.210 HD
ENDBRANCH  15  16
ENDBRANCH   1  15
TORSDOF 6
ENDMDL
