MODEL 1
REMARK VINA RESULT:      -6.8      0.000      0.000
REMARK  Name = 
REMARK  14 active torsions:
REMARK  status: ('A' for Active; 'I' for Inactive)
REMARK    1  A    between atoms: N_10  and  C_11
REMARK    2  A    between atoms: C_14  and  C_16
REMARK    3  A    between atoms: C_16  and  O_17
REMARK    4  A    between atoms: O_17  and  P_18
REMARK    5  A    between atoms: P_18  and  O_19
REMARK    6  A    between atoms: P_18  and  O_21
REMARK    7  A    between atoms: O_21  and  P_22
REMARK    8  A    between atoms: P_22  and  O_23
REMARK    9  A    between atoms: P_22  and  O_25
REMARK   10  A    between atoms: O_25  and  P_26
REMARK   11  A    between atoms: P_26  and  O_27
REMARK   12  A    between atoms: P_26  and  O_28
REMARK   13  A    between atoms: C_30  and  O_32
REMARK   14  A    between atoms: C_33  and  O_35
REMARK                            x       y       z     vdW  Elec       q    Type
REMARK                         _______ _______ _______ _____ _____    ______ ____
ROOT
ATOM      1  C   UNL     1       7.636  -0.244  22.322  0.00  0.00    +0.253 C 
ATOM      2  C   UNL     1       8.111   1.111  22.859  0.00  0.00    +0.195 C 
ATOM      3  C   UNL     1       9.486   0.814  23.474  0.00  0.00    +0.178 C 
ATOM      4  C   UNL     1       9.822  -0.636  23.062  0.00  0.00    +0.178 C 
ATOM      5  O   UNL     1       8.843  -0.992  22.056  0.00  0.00    -0.346 OA
ENDROOT
BRANCH   1  13
ATOM      6  N   UNL     1       3.725  -4.155  24.796  0.00  0.00    -0.341 N 
ATOM      7  H   UNL     1       3.326  -3.349  25.266  0.00  0.00    +0.144 HD
ATOM      8  H   UNL     1       3.063  -4.806  24.394  0.00  0.00    +0.144 HD
ATOM      9  C   UNL     1       4.675  -3.784  23.852  0.00  0.00    +0.147 A 
ATOM     10  C   UNL     1       5.402  -2.580  23.918  0.00  0.00    +0.147 A 
ATOM     11  N   UNL     1       5.398  -1.546  24.828  0.00  0.00    -0.231 NA
ATOM     12  C   UNL     1       6.235  -0.660  24.327  0.00  0.00    +0.203 A 
ATOM     13  N   UNL     1       6.782  -1.080  23.135  0.00  0.00    -0.286 N 
ATOM     14  C   UNL     1       6.264  -2.317  22.866  0.00  0.00    +0.167 A 
ATOM     15  N   UNL     1       6.473  -3.084  21.785  0.00  0.00    -0.216 NA
ATOM     16  C   UNL     1       5.745  -4.218  21.841  0.00  0.00    +0.225 A 
ATOM     17  N   UNL     1       4.868  -4.600  22.790  0.00  0.00    -0.219 NA
ENDBRANCH   1  13
BRANCH   2  18
ATOM     18  O   UNL     1       8.280   2.108  21.818  0.00  0.00    -0.385 OA
ATOM     19  H   UNL     1       8.102   1.707  20.949  0.00  0.00    +0.210 HD
ENDBRANCH   2  18
BRANCH   3  20
ATOM     20  O   UNL     1      10.460   1.729  22.941  0.00  0.00    -0.386 OA
ATOM     21  H   UNL     1      10.296   2.587  23.386  0.00  0.00    +0.210 HD
ENDBRANCH   3  20
BRANCH   4  22
ATOM     22  C   UNL     1       9.776  -1.638  24.241  0.00  0.00    +0.206 C 
BRANCH  22  23
ATOM     23  O   UNL     1      10.055  -2.997  23.843  0.00  0.00    -0.284 OA
BRANCH  23  24
ATOM     24  P   UNL     1       9.269  -4.128  24.692  0.00  0.00    +0.483 P 
ATOM     25  O   UNL     1      10.152  -5.093  25.405  0.00  0.00    -0.227 OA
BRANCH  24  26
ATOM     26  O   UNL     1       8.473  -4.903  23.531  0.00  0.00    -0.302 OA
ATOM     27  H   UNL     1       7.714  -4.379  23.211  0.00  0.00    +0.222 HD
ENDBRANCH  24  26
BRANCH  24  28
ATOM     28  O   UNL     1       8.052  -3.497  25.580  0.00  0.00    -0.186 OA
BRANCH  28  29
ATOM     29  P   UNL     1       7.648  -4.760  26.692  0.00  0.00    +0.492 P 
ATOM     30  O   UNL     1       6.802  -5.448  25.614  0.00  0.00    -0.226 OA
BRANCH  29  31
ATOM     31  O   UNL     1       6.580  -3.766  27.432  0.00  0.00    -0.302 OA
ATOM     32  H   UNL     1       6.419  -4.107  28.331  0.00  0.00    +0.222 HD
ENDBRANCH  29  31
BRANCH  29  33
ATOM     33  O   UNL     1       7.243  -6.022  27.803  0.00  0.00    -0.186 OA
BRANCH  33  34
ATOM     34  P   UNL     1       5.851  -6.034  28.545  0.00  0.00    +0.481 P 
ATOM     35  O   UNL     1       5.770  -5.365  29.869  0.00  0.00    -0.227 OA
BRANCH  34  36
ATOM     36  O   UNL     1       5.614  -7.618  28.672  0.00  0.00    -0.302 OA
ATOM     37  H   UNL     1       5.085  -7.956  27.929  0.00  0.00    +0.222 HD
ENDBRANCH  34  36
BRANCH  34  38
ATOM     38  O   UNL     1       4.736  -5.740  27.448  0.00  0.00    -0.302 OA
ATOM     39  H   UNL     1       4.132  -6.509  27.379  0.00  0.00    +0.222 HD
ENDBRANCH  34  38
ENDBRANCH  33  34
ENDBRANCH  29  33
ENDBRANCH  28  29
ENDBRANCH  24  28
ENDBRANCH  23  24
ENDBRANCH  22  23
ENDBRANCH   4  22
TORSDOF 14
ENDMDL
MODEL 2
REMARK VINA RESULT:      -6.7      3.528      4.345
REMARK  Name = 
REMARK  14 active torsions:
REMARK  status: ('A' for Active; 'I' for Inactive)
REMARK    1  A    between atoms: N_10  and  C_11
REMARK    2  A    between atoms: C_14  and  C_16
REMARK    3  A    between atoms: C_16  and  O_17
REMARK    4  A    between atoms: O_17  and  P_18
REMARK    5  A    between atoms: P_18  and  O_19
REMARK    6  A    between atoms: P_18  and  O_21
REMARK    7  A    between atoms: O_21  and  P_22
REMARK    8  A    between atoms: P_22  and  O_23
REMARK    9  A    between atoms: P_22  and  O_25
REMARK   10  A    between atoms: O_25  and  P_26
REMARK   11  A    between atoms: P_26  and  O_27
REMARK   12  A    between atoms: P_26  and  O_28
REMARK   13  A    between atoms: C_30  and  O_32
REMARK   14  A    between atoms: C_33  and  O_35
REMARK                            x       y       z     vdW  Elec       q    Type
REMARK                         _______ _______ _______ _____ _____    ______ ____
ROOT
ATOM      1  C   UNL     1       8.871  -0.900  24.661  0.00  0.00    +0.253 C 
ATOM      2  C   UNL     1       9.944  -1.246  23.622  0.00  0.00    +0.195 C 
ATOM      3  C   UNL     1       9.162  -1.409  22.310  0.00  0.00    +0.178 C 
ATOM      4  C   UNL     1       7.726  -0.931  22.619  0.00  0.00    +0.178 C 
ATOM      5  O   UNL     1       7.801  -0.283  23.912  0.00  0.00    -0.346 OA
ENDROOT
BRANCH   1  13
ATOM      6  N   UNL     1       6.692  -5.940  27.223  0.00  0.00    -0.341 N 
ATOM      7  H   UNL     1       5.815  -5.434  27.305  0.00  0.00    +0.144 HD
ATOM      8  H   UNL     1       6.623  -6.896  26.899  0.00  0.00    +0.144 HD
ATOM      9  C   UNL     1       7.624  -5.238  26.468  0.00  0.00    +0.147 A 
ATOM     10  C   UNL     1       7.607  -3.838  26.324  0.00  0.00    +0.147 A 
ATOM     11  N   UNL     1       6.773  -2.866  26.833  0.00  0.00    -0.231 NA
ATOM     12  C   UNL     1       7.205  -1.743  26.295  0.00  0.00    +0.203 A 
ATOM     13  N   UNL     1       8.285  -1.948  25.465  0.00  0.00    -0.286 N 
ATOM     14  C   UNL     1       8.560  -3.288  25.484  0.00  0.00    +0.167 A 
ATOM     15  N   UNL     1       9.495  -3.950  24.783  0.00  0.00    -0.216 NA
ATOM     16  C   UNL     1       9.433  -5.276  25.017  0.00  0.00    +0.225 A 
ATOM     17  N   UNL     1       8.562  -5.946  25.797  0.00  0.00    -0.219 NA
ENDBRANCH   1  13
BRANCH   2  18
ATOM     18  O   UNL     1      10.924  -0.191  23.443  0.00  0.00    -0.385 OA
ATOM     19  H   UNL     1      10.470   0.655  23.284  0.00  0.00    +0.210 HD
ENDBRANCH   2  18
BRANCH   3  20
ATOM     20  O   UNL     1       9.759  -0.588  21.290  0.00  0.00    -0.386 OA
ATOM     21  H   UNL     1      10.501  -1.112  20.922  0.00  0.00    +0.210 HD
ENDBRANCH   3  20
BRANCH   4  22
ATOM     22  C   UNL     1       6.688  -2.079  22.648  0.00  0.00    +0.206 C 
BRANCH  22  23
ATOM     23  O   UNL     1       7.224  -3.342  22.199  0.00  0.00    -0.284 OA
BRANCH  23  24
ATOM     24  P   UNL     1       6.136  -4.531  22.063  0.00  0.00    +0.483 P 
ATOM     25  O   UNL     1       6.052  -5.143  20.706  0.00  0.00    -0.227 OA
BRANCH  24  26
ATOM     26  O   UNL     1       4.767  -3.749  22.371  0.00  0.00    -0.302 OA
ATOM     27  H   UNL     1       4.111  -4.336  22.794  0.00  0.00    +0.222 HD
ENDBRANCH  24  26
BRANCH  24  28
ATOM     28  O   UNL     1       6.216  -5.586  23.307  0.00  0.00    -0.186 OA
BRANCH  28  29
ATOM     29  P   UNL     1       4.578  -5.716  23.851  0.00  0.00    +0.492 P 
ATOM     30  O   UNL     1       4.952  -6.928  24.710  0.00  0.00    -0.226 OA
BRANCH  29  31
ATOM     31  O   UNL     1       4.156  -6.385  22.419  0.00  0.00    -0.302 OA
ATOM     32  H   UNL     1       4.395  -7.331  22.442  0.00  0.00    +0.222 HD
ENDBRANCH  29  31
BRANCH  29  33
ATOM     33  O   UNL     1       2.941  -5.847  24.394  0.00  0.00    -0.186 OA
BRANCH  33  34
ATOM     34  P   UNL     1       1.940  -6.860  23.717  0.00  0.00    +0.481 P 
ATOM     35  O   UNL     1       1.250  -6.423  22.476  0.00  0.00    -0.227 OA
BRANCH  34  36
ATOM     36  O   UNL     1       0.899  -7.075  24.923  0.00  0.00    -0.302 OA
ATOM     37  H   UNL     1       1.361  -7.181  25.772  0.00  0.00    +0.222 HD
ENDBRANCH  34  36
BRANCH  34  38
ATOM     38  O   UNL     1       2.624  -8.297  23.770  0.00  0.00    -0.302 OA
ATOM     39  H   UNL     1       2.842  -8.523  24.698  0.00  0.00    +0.222 HD
ENDBRANCH  34  38
ENDBRANCH  33  34
ENDBRANCH  29  33
ENDBRANCH  28  29
ENDBRANCH  24  28
ENDBRANCH  23  24
ENDBRANCH  22  23
ENDBRANCH   4  22
TORSDOF 14
ENDMDL
MODEL 3
REMARK VINA RESULT:      -6.6      2.588      4.885
REMARK  Name = 
REMARK  14 active torsions:
REMARK  status: ('A' for Active; 'I' for Inactive)
REMARK    1  A    between atoms: N_10  and  C_11
REMARK    2  A    between atoms: C_14  and  C_16
REMARK    3  A    between atoms: C_16  and  O_17
REMARK    4  A    between atoms: O_17  and  P_18
REMARK    5  A    between atoms: P_18  and  O_19
REMARK    6  A    between atoms: P_18  and  O_21
REMARK    7  A    between atoms: O_21  and  P_22
REMARK    8  A    between atoms: P_22  and  O_23
REMARK    9  A    between atoms: P_22  and  O_25
REMARK   10  A    between atoms: O_25  and  P_26
REMARK   11  A    between atoms: P_26  and  O_27
REMARK   12  A    between atoms: P_26  and  O_28
REMARK   13  A    between atoms: C_30  and  O_32
REMARK   14  A    between atoms: C_33  and  O_35
REMARK                            x       y       z     vdW  Elec       q    Type
REMARK                         _______ _______ _______ _____ _____    ______ ____
ROOT
ATOM      1  C   UNL     1       6.461  -3.170  22.368  0.00  0.00    +0.253 C 
ATOM      2  C   UNL     1       6.586  -4.646  21.976  0.00  0.00    +0.195 C 
ATOM      3  C   UNL     1       5.773  -5.392  23.044  0.00  0.00    +0.178 C 
ATOM      4  C   UNL     1       5.046  -4.297  23.854  0.00  0.00    +0.178 C 
ATOM      5  O   UNL     1       5.217  -3.074  23.098  0.00  0.00    -0.346 OA
ENDROOT
BRANCH   1  13
ATOM      6  N   UNL     1      10.487   0.317  25.258  0.00  0.00    -0.341 N 
ATOM      7  H   UNL     1      11.182  -0.356  24.953  0.00  0.00    +0.144 HD
ATOM      8  H   UNL     1      10.741   1.292  25.161  0.00  0.00    +0.144 HD
ATOM      9  C   UNL     1       9.247   0.079  24.676  0.00  0.00    +0.147 A 
ATOM     10  C   UNL     1       8.841  -1.187  24.212  0.00  0.00    +0.147 A 
ATOM     11  N   UNL     1       9.466  -2.414  24.206  0.00  0.00    -0.231 NA
ATOM     12  C   UNL     1       8.627  -3.212  23.578  0.00  0.00    +0.203 A 
ATOM     13  N   UNL     1       7.485  -2.552  23.181  0.00  0.00    -0.286 N 
ATOM     14  C   UNL     1       7.605  -1.254  23.592  0.00  0.00    +0.167 A 
ATOM     15  N   UNL     1       6.755  -0.237  23.378  0.00  0.00    -0.216 NA
ATOM     16  C   UNL     1       7.235   0.917  23.884  0.00  0.00    +0.225 A 
ATOM     17  N   UNL     1       8.414   1.130  24.501  0.00  0.00    -0.219 NA
ENDBRANCH   1  13
BRANCH   2  18
ATOM     18  O   UNL     1       6.013  -4.940  20.675  0.00  0.00    -0.385 OA
ATOM     19  H   UNL     1       5.190  -4.433  20.558  0.00  0.00    +0.210 HD
ENDBRANCH   2  18
BRANCH   3  20
ATOM     20  O   UNL     1       4.821  -6.262  22.404  0.00  0.00    -0.386 OA
ATOM     21  H   UNL     1       5.158  -7.172  22.534  0.00  0.00    +0.210 HD
ENDBRANCH   3  20
BRANCH   4  22
ATOM     22  C   UNL     1       5.595  -4.127  25.291  0.00  0.00    +0.206 C 
BRANCH  22  23
ATOM     23  O   UNL     1       6.125  -5.350  25.846  0.00  0.00    -0.284 OA
BRANCH  23  24
ATOM     24  P   UNL     1       7.412  -5.158  26.807  0.00  0.00    +0.483 P 
ATOM     25  O   UNL     1       7.802  -3.740  27.046  0.00  0.00    -0.227 OA
BRANCH  24  26
ATOM     26  O   UNL     1       8.562  -5.882  25.950  0.00  0.00    -0.302 OA
ATOM     27  H   UNL     1       8.442  -5.725  24.993  0.00  0.00    +0.222 HD
ENDBRANCH  24  26
BRANCH  24  28
ATOM     28  O   UNL     1       7.333  -6.100  28.139  0.00  0.00    -0.186 OA
BRANCH  28  29
ATOM     29  P   UNL     1       5.684  -5.969  28.647  0.00  0.00    +0.492 P 
ATOM     30  O   UNL     1       6.140  -5.745  30.093  0.00  0.00    -0.226 OA
BRANCH  29  31
ATOM     31  O   UNL     1       5.524  -7.594  28.549  0.00  0.00    -0.302 OA
ATOM     32  H   UNL     1       6.104  -7.914  27.832  0.00  0.00    +0.222 HD
ENDBRANCH  29  31
BRANCH  29  33
ATOM     33  O   UNL     1       4.036  -5.838  29.155  0.00  0.00    -0.186 OA
BRANCH  33  34
ATOM     34  P   UNL     1       2.857  -6.281  28.206  0.00  0.00    +0.481 P 
ATOM     35  O   UNL     1       1.577  -5.533  28.301  0.00  0.00    -0.227 OA
BRANCH  34  36
ATOM     36  O   UNL     1       2.680  -7.809  28.672  0.00  0.00    -0.302 OA
ATOM     37  H   UNL     1       2.142  -8.311  28.036  0.00  0.00    +0.222 HD
ENDBRANCH  34  36
BRANCH  34  38
ATOM     38  O   UNL     1       3.493  -6.569  26.775  0.00  0.00    -0.302 OA
ATOM     39  H   UNL     1       3.060  -7.351  26.374  0.00  0.00    +0.222 HD
ENDBRANCH  34  38
ENDBRANCH  33  34
ENDBRANCH  29  33
ENDBRANCH  28  29
ENDBRANCH  24  28
ENDBRANCH  23  24
ENDBRANCH  22  23
ENDBRANCH   4  22
TORSDOF 14
ENDMDL
MODEL 4
REMARK VINA RESULT:      -6.5      3.657      6.638
REMARK  Name = 
REMARK  14 active torsions:
REMARK  status: ('A' for Active; 'I' for Inactive)
REMARK    1  A    between atoms: N_10  and  C_11
REMARK    2  A    between atoms: C_14  and  C_16
REMARK    3  A    between atoms: C_16  and  O_17
REMARK    4  A    between atoms: O_17  and  P_18
REMARK    5  A    between atoms: P_18  and  O_19
REMARK    6  A    between atoms: P_18  and  O_21
REMARK    7  A    between atoms: O_21  and  P_22
REMARK    8  A    between atoms: P_22  and  O_23
REMARK    9  A    between atoms: P_22  and  O_25
REMARK   10  A    between atoms: O_25  and  P_26
REMARK   11  A    between atoms: P_26  and  O_27
REMARK   12  A    between atoms: P_26  and  O_28
REMARK   13  A    between atoms: C_30  and  O_32
REMARK   14  A    between atoms: C_33  and  O_35
REMARK                            x       y       z     vdW  Elec       q    Type
REMARK                         _______ _______ _______ _____ _____    ______ ____
ROOT
ATOM      1  C   UNL     1       8.294  -5.182  26.407  0.00  0.00    +0.253 C 
ATOM      2  C   UNL     1       8.938  -5.162  25.015  0.00  0.00    +0.195 C 
ATOM      3  C   UNL     1       8.801  -3.703  24.556  0.00  0.00    +0.178 C 
ATOM      4  C   UNL     1       8.293  -2.924  25.789  0.00  0.00    +0.178 C 
ATOM      5  O   UNL     1       8.427  -3.833  26.907  0.00  0.00    -0.346 OA
ENDROOT
BRANCH   1  13
ATOM      6  N   UNL     1       2.794  -7.223  27.922  0.00  0.00    -0.341 N 
ATOM      7  H   UNL     1       2.783  -7.663  27.007  0.00  0.00    +0.144 HD
ATOM      8  H   UNL     1       2.464  -7.791  28.691  0.00  0.00    +0.144 HD
ATOM      9  C   UNL     1       4.038  -6.680  28.219  0.00  0.00    +0.147 A 
ATOM     10  C   UNL     1       4.960  -6.274  27.235  0.00  0.00    +0.147 A 
ATOM     11  N   UNL     1       4.907  -6.283  25.858  0.00  0.00    -0.231 NA
ATOM     12  C   UNL     1       6.092  -5.851  25.478  0.00  0.00    +0.203 A 
ATOM     13  N   UNL     1       6.906  -5.559  26.550  0.00  0.00    -0.286 N 
ATOM     14  C   UNL     1       6.186  -5.816  27.685  0.00  0.00    +0.167 A 
ATOM     15  N   UNL     1       6.595  -5.726  28.961  0.00  0.00    -0.216 NA
ATOM     16  C   UNL     1       5.625  -6.116  29.813  0.00  0.00    +0.225 A 
ATOM     17  N   UNL     1       4.397  -6.587  29.520  0.00  0.00    -0.219 NA
ENDBRANCH   1  13
BRANCH   2  18
ATOM     18  O   UNL     1      10.348  -5.506  25.036  0.00  0.00    -0.385 OA
ATOM     19  H   UNL     1      10.553  -6.095  24.289  0.00  0.00    +0.210 HD
ENDBRANCH   2  18
BRANCH   3  20
ATOM     20  O   UNL     1      10.087  -3.207  24.140  0.00  0.00    -0.386 OA
ATOM     21  H   UNL     1      10.722  -3.496  24.828  0.00  0.00    +0.210 HD
ENDBRANCH   3  20
BRANCH   4  22
ATOM     22  C   UNL     1       6.827  -2.446  25.653  0.00  0.00    +0.206 C 
BRANCH  22  23
ATOM     23  O   UNL     1       6.686  -1.274  24.822  0.00  0.00    -0.284 OA
BRANCH  23  24
ATOM     24  P   UNL     1       6.228   0.064  25.608  0.00  0.00    +0.483 P 
ATOM     25  O   UNL     1       5.560  -0.183  26.917  0.00  0.00    -0.227 OA
BRANCH  24  26
ATOM     26  O   UNL     1       5.158   0.687  24.583  0.00  0.00    -0.302 OA
ATOM     27  H   UNL     1       5.591   1.269  23.929  0.00  0.00    +0.222 HD
ENDBRANCH  24  26
BRANCH  24  28
ATOM     28  O   UNL     1       7.397   1.204  25.617  0.00  0.00    -0.186 OA
BRANCH  28  29
ATOM     29  P   UNL     1       8.596   0.584  24.535  0.00  0.00    +0.492 P 
ATOM     30  O   UNL     1       9.512   1.769  24.859  0.00  0.00    -0.226 OA
BRANCH  29  31
ATOM     31  O   UNL     1       7.722   1.118  23.260  0.00  0.00    -0.302 OA
ATOM     32  H   UNL     1       7.766   0.444  22.557  0.00  0.00    +0.222 HD
ENDBRANCH  29  31
BRANCH  29  33
ATOM     33  O   UNL     1       9.794  -0.037  23.453  0.00  0.00    -0.186 OA
BRANCH  33  34
ATOM     34  P   UNL     1       9.410  -0.493  21.993  0.00  0.00    +0.481 P 
ATOM     35  O   UNL     1       9.095   0.566  21.000  0.00  0.00    -0.227 OA
BRANCH  34  36
ATOM     36  O   UNL     1       8.123  -1.401  22.312  0.00  0.00    -0.302 OA
ATOM     37  H   UNL     1       7.431  -0.885  22.760  0.00  0.00    +0.222 HD
ENDBRANCH  34  36
BRANCH  34  38
ATOM     38  O   UNL     1      10.406  -1.671  21.596  0.00  0.00    -0.302 OA
ATOM     39  H   UNL     1       9.935  -2.326  21.040  0.00  0.00    +0.222 HD
ENDBRANCH  34  38
ENDBRANCH  33  34
ENDBRANCH  29  33
ENDBRANCH  28  29
ENDBRANCH  24  28
ENDBRANCH  23  24
ENDBRANCH  22  23
ENDBRANCH   4  22
TORSDOF 14
ENDMDL
MODEL 5
REMARK VINA RESULT:      -6.5      2.762      5.840
REMARK  Name = 
REMARK  14 active torsions:
REMARK  status: ('A' for Active; 'I' for Inactive)
REMARK    1  A    between atoms: N_10  and  C_11
REMARK    2  A    between atoms: C_14  and  C_16
REMARK    3  A    between atoms: C_16  and  O_17
REMARK    4  A    between atoms: O_17  and  P_18
REMARK    5  A    between atoms: P_18  and  O_19
REMARK    6  A    between atoms: P_18  and  O_21
REMARK    7  A    between atoms: O_21  and  P_22
REMARK    8  A    between atoms: P_22  and  O_23
REMARK    9  A    between atoms: P_22  and  O_25
REMARK   10  A    between atoms: O_25  and  P_26
REMARK   11  A    between atoms: P_26  and  O_27
REMARK   12  A    between atoms: P_26  and  O_28
REMARK   13  A    between atoms: C_30  and  O_32
REMARK   14  A    between atoms: C_33  and  O_35
REMARK                            x       y       z     vdW  Elec       q    Type
REMARK                         _______ _______ _______ _____ _____    ______ ____
ROOT
ATOM      1  C   UNL     1       4.426  -4.545  26.358  0.00  0.00    +0.253 C 
ATOM      2  C   UNL     1       4.182  -5.418  27.595  0.00  0.00    +0.195 C 
ATOM      3  C   UNL     1       5.504  -5.349  28.374  0.00  0.00    +0.178 C 
ATOM      4  C   UNL     1       6.350  -4.271  27.663  0.00  0.00    +0.178 C 
ATOM      5  O   UNL     1       5.445  -3.600  26.755  0.00  0.00    -0.346 OA
ENDROOT
BRANCH   1  13
ATOM      6  N   UNL     1       5.846  -6.233  20.715  0.00  0.00    -0.341 N 
ATOM      7  H   UNL     1       5.343  -7.090  20.920  0.00  0.00    +0.144 HD
ATOM      8  H   UNL     1       5.663  -5.817  19.811  0.00  0.00    +0.144 HD
ATOM      9  C   UNL     1       5.692  -5.288  21.723  0.00  0.00    +0.147 A 
ATOM     10  C   UNL     1       5.395  -5.624  23.058  0.00  0.00    +0.147 A 
ATOM     11  N   UNL     1       5.202  -6.834  23.687  0.00  0.00    -0.231 NA
ATOM     12  C   UNL     1       4.882  -6.518  24.925  0.00  0.00    +0.203 A 
ATOM     13  N   UNL     1       4.864  -5.156  25.123  0.00  0.00    -0.286 N 
ATOM     14  C   UNL     1       5.202  -4.570  23.934  0.00  0.00    +0.167 A 
ATOM     15  N   UNL     1       5.260  -3.260  23.645  0.00  0.00    -0.216 NA
ATOM     16  C   UNL     1       5.575  -3.059  22.349  0.00  0.00    +0.225 A 
ATOM     17  N   UNL     1       5.781  -3.981  21.389  0.00  0.00    -0.219 NA
ENDBRANCH   1  13
BRANCH   2  18
ATOM     18  O   UNL     1       3.121  -4.912  28.447  0.00  0.00    -0.385 OA
ATOM     19  H   UNL     1       2.530  -4.338  27.928  0.00  0.00    +0.210 HD
ENDBRANCH   2  18
BRANCH   3  20
ATOM     20  O   UNL     1       5.240  -4.968  29.736  0.00  0.00    -0.386 OA
ATOM     21  H   UNL     1       4.905  -5.773  30.181  0.00  0.00    +0.210 HD
ENDBRANCH   3  20
BRANCH   4  22
ATOM     22  C   UNL     1       7.562  -4.849  26.891  0.00  0.00    +0.206 C 
BRANCH  22  23
ATOM     23  O   UNL     1       8.078  -3.949  25.887  0.00  0.00    -0.284 OA
BRANCH  23  24
ATOM     24  P   UNL     1       9.162  -4.604  24.882  0.00  0.00    +0.483 P 
ATOM     25  O   UNL     1       8.602  -5.605  23.931  0.00  0.00    -0.227 OA
BRANCH  24  26
ATOM     26  O   UNL     1      10.143  -5.351  25.912  0.00  0.00    -0.302 OA
ATOM     27  H   UNL     1      10.769  -4.724  26.324  0.00  0.00    +0.222 HD
ENDBRANCH  24  26
BRANCH  24  28
ATOM     28  O   UNL     1      10.149  -3.482  24.222  0.00  0.00    -0.186 OA
BRANCH  28  29
ATOM     29  P   UNL     1       9.093  -2.163  23.850  0.00  0.00    +0.492 P 
ATOM     30  O   UNL     1      10.018  -1.737  22.705  0.00  0.00    -0.226 OA
BRANCH  29  31
ATOM     31  O   UNL     1       9.675  -1.334  25.134  0.00  0.00    -0.302 OA
ATOM     32  H   UNL     1       8.927  -1.118  25.721  0.00  0.00    +0.222 HD
ENDBRANCH  29  31
BRANCH  29  33
ATOM     33  O   UNL     1       8.037  -0.845  23.477  0.00  0.00    -0.186 OA
BRANCH  33  34
ATOM     34  P   UNL     1       7.156  -0.169  24.598  0.00  0.00    +0.481 P 
ATOM     35  O   UNL     1       7.762   0.942  25.374  0.00  0.00    -0.227 OA
BRANCH  34  36
ATOM     36  O   UNL     1       6.862  -1.445  25.530  0.00  0.00    -0.302 OA
ATOM     37  H   UNL     1       6.003  -1.363  25.978  0.00  0.00    +0.222 HD
ENDBRANCH  34  36
BRANCH  34  38
ATOM     38  O   UNL     1       5.690  -0.002  24.000  0.00  0.00    -0.302 OA
ATOM     39  H   UNL     1       5.599  -0.550  23.193  0.00  0.00    +0.222 HD
ENDBRANCH  34  38
ENDBRANCH  33  34
ENDBRANCH  29  33
ENDBRANCH  28  29
ENDBRANCH  24  28
ENDBRANCH  23  24
ENDBRANCH  22  23
ENDBRANCH   4  22
TORSDOF 14
ENDMDL
MODEL 6
REMARK VINA RESULT:      -6.4      3.262      7.134
REMARK  Name = 
REMARK  14 active torsions:
REMARK  status: ('A' for Active; 'I' for Inactive)
REMARK    1  A    between atoms: N_10  and  C_11
REMARK    2  A    between atoms: C_14  and  C_16
REMARK    3  A    between atoms: C_16  and  O_17
REMARK    4  A    between atoms: O_17  and  P_18
REMARK    5  A    between atoms: P_18  and  O_19
REMARK    6  A    between atoms: P_18  and  O_21
REMARK    7  A    between atoms: O_21  and  P_22
REMARK    8  A    between atoms: P_22  and  O_23
REMARK    9  A    between atoms: P_22  and  O_25
REMARK   10  A    between atoms: O_25  and  P_26
REMARK   11  A    between atoms: P_26  and  O_27
REMARK   12  A    between atoms: P_26  and  O_28
REMARK   13  A    between atoms: C_30  and  O_32
REMARK   14  A    between atoms: C_33  and  O_35
REMARK                            x       y       z     vdW  Elec       q    Type
REMARK                         _______ _______ _______ _____ _____    ______ ____
ROOT
ATOM      1  C   UNL     1       4.957  -5.172  23.230  0.00  0.00    +0.253 C 
ATOM      2  C   UNL     1       5.034  -6.356  24.202  0.00  0.00    +0.195 C 
ATOM      3  C   UNL     1       4.510  -5.790  25.530  0.00  0.00    +0.178 C 
ATOM      4  C   UNL     1       3.956  -4.388  25.196  0.00  0.00    +0.178 C 
ATOM      5  O   UNL     1       3.913  -4.320  23.750  0.00  0.00    -0.346 OA
ENDROOT
BRANCH   1  13
ATOM      6  N   UNL     1      10.076  -1.931  23.348  0.00  0.00    -0.341 N 
ATOM      7  H   UNL     1       9.506  -1.152  23.036  0.00  0.00    +0.144 HD
ATOM      8  H   UNL     1      10.740  -1.729  24.084  0.00  0.00    +0.144 HD
ATOM      9  C   UNL     1       9.302  -3.036  23.684  0.00  0.00    +0.147 A 
ATOM     10  C   UNL     1       8.021  -3.273  23.149  0.00  0.00    +0.147 A 
ATOM     11  N   UNL     1       7.254  -2.577  22.241  0.00  0.00    -0.231 NA
ATOM     12  C   UNL     1       6.119  -3.244  22.185  0.00  0.00    +0.203 A 
ATOM     13  N   UNL     1       6.122  -4.343  23.015  0.00  0.00    -0.286 N 
ATOM     14  C   UNL     1       7.343  -4.380  23.632  0.00  0.00    +0.167 A 
ATOM     15  N   UNL     1       7.772  -5.246  24.563  0.00  0.00    -0.216 NA
ATOM     16  C   UNL     1       9.016  -4.935  24.983  0.00  0.00    +0.225 A 
ATOM     17  N   UNL     1       9.786  -3.894  24.610  0.00  0.00    -0.219 NA
ENDBRANCH   1  13
BRANCH   2  18
ATOM     18  O   UNL     1       4.187  -7.467  23.811  0.00  0.00    -0.385 OA
ATOM     19  H   UNL     1       4.136  -8.112  24.539  0.00  0.00    +0.210 HD
ENDBRANCH   2  18
BRANCH   3  20
ATOM     20  O   UNL     1       3.464  -6.638  26.036  0.00  0.00    -0.386 OA
ATOM     21  H   UNL     1       3.698  -6.829  26.968  0.00  0.00    +0.210 HD
ENDBRANCH   3  20
BRANCH   4  22
ATOM     22  C   UNL     1       4.816  -3.233  25.766  0.00  0.00    +0.206 C 
BRANCH  22  23
ATOM     23  O   UNL     1       4.631  -1.986  25.063  0.00  0.00    -0.284 OA
BRANCH  23  24
ATOM     24  P   UNL     1       5.657  -0.809  25.488  0.00  0.00    +0.483 P 
ATOM     25  O   UNL     1       7.058  -1.262  25.721  0.00  0.00    -0.227 OA
BRANCH  24  26
ATOM     26  O   UNL     1       5.025  -0.321  26.882  0.00  0.00    -0.302 OA
ATOM     27  H   UNL     1       4.714   0.604  26.826  0.00  0.00    +0.222 HD
ENDBRANCH  24  26
BRANCH  24  28
ATOM     28  O   UNL     1       5.493   0.520  24.553  0.00  0.00    -0.186 OA
BRANCH  28  29
ATOM     29  P   UNL     1       7.088   0.808  23.951  0.00  0.00    +0.492 P 
ATOM     30  O   UNL     1       6.777   2.303  23.819  0.00  0.00    -0.226 OA
BRANCH  29  31
ATOM     31  O   UNL     1       6.650   0.201  22.497  0.00  0.00    -0.302 OA
ATOM     32  H   UNL     1       7.298  -0.483  22.244  0.00  0.00    +0.222 HD
ENDBRANCH  29  31
BRANCH  29  33
ATOM     33  O   UNL     1       8.684   1.097  23.349  0.00  0.00    -0.186 OA
BRANCH  33  34
ATOM     34  P   UNL     1       8.965   1.171  21.798  0.00  0.00    +0.481 P 
ATOM     35  O   UNL     1       9.253  -0.101  21.088  0.00  0.00    -0.227 OA
BRANCH  34  36
ATOM     36  O   UNL     1      10.241   2.149  21.791  0.00  0.00    -0.302 OA
ATOM     37  H   UNL     1       9.968   3.082  21.743  0.00  0.00    +0.222 HD
ENDBRANCH  34  36
BRANCH  34  38
ATOM     38  O   UNL     1       7.911   2.193  21.182  0.00  0.00    -0.302 OA
ATOM     39  H   UNL     1       8.005   3.065  21.618  0.00  0.00    +0.222 HD
ENDBRANCH  34  38
ENDBRANCH  33  34
ENDBRANCH  29  33
ENDBRANCH  28  29
ENDBRANCH  24  28
ENDBRANCH  23  24
ENDBRANCH  22  23
ENDBRANCH   4  22
TORSDOF 14
ENDMDL
MODEL 7
REMARK VINA RESULT:      -6.3      3.142      7.060
REMARK  Name = 
REMARK  14 active torsions:
REMARK  status: ('A' for Active; 'I' for Inactive)
REMARK    1  A    between atoms: N_10  and  C_11
REMARK    2  A    between atoms: C_14  and  C_16
REMARK    3  A    between atoms: C_16  and  O_17
REMARK    4  A    between atoms: O_17  and  P_18
REMARK    5  A    between atoms: P_18  and  O_19
REMARK    6  A    between atoms: P_18  and  O_21
REMARK    7  A    between atoms: O_21  and  P_22
REMARK    8  A    between atoms: P_22  and  O_23
REMARK    9  A    between atoms: P_22  and  O_25
REMARK   10  A    between atoms: O_25  and  P_26
REMARK   11  A    between atoms: P_26  and  O_27
REMARK   12  A    between atoms: P_26  and  O_28
REMARK   13  A    between atoms: C_30  and  O_32
REMARK   14  A    between atoms: C_33  and  O_35
REMARK                            x       y       z     vdW  Elec       q    Type
REMARK                         _______ _______ _______ _____ _____    ______ ____
ROOT
ATOM      1  C   UNL     1       6.889  -4.915  24.736  0.00  0.00    +0.253 C 
ATOM      2  C   UNL     1       7.614  -4.824  26.084  0.00  0.00    +0.195 C 
ATOM      3  C   UNL     1       6.717  -3.915  26.937  0.00  0.00    +0.178 C 
ATOM      4  C   UNL     1       5.425  -3.717  26.115  0.00  0.00    +0.178 C 
ATOM      5  O   UNL     1       5.495  -4.682  25.038  0.00  0.00    -0.346 OA
ENDROOT
BRANCH   1  13
ATOM      6  N   UNL     1       9.066  -0.705  20.961  0.00  0.00    -0.341 N 
ATOM      7  H   UNL     1       8.097  -0.453  20.797  0.00  0.00    +0.144 HD
ATOM      8  H   UNL     1       9.708   0.065  21.094  0.00  0.00    +0.144 HD
ATOM      9  C   UNL     1       9.192  -1.625  21.995  0.00  0.00    +0.147 A 
ATOM     10  C   UNL     1       8.164  -2.510  22.373  0.00  0.00    +0.147 A 
ATOM     11  N   UNL     1       6.891  -2.710  21.886  0.00  0.00    -0.231 NA
ATOM     12  C   UNL     1       6.370  -3.620  22.684  0.00  0.00    +0.203 A 
ATOM     13  N   UNL     1       7.253  -4.018  23.663  0.00  0.00    -0.286 N 
ATOM     14  C   UNL     1       8.414  -3.321  23.467  0.00  0.00    +0.167 A 
ATOM     15  N   UNL     1       9.530  -3.347  24.213  0.00  0.00    -0.216 NA
ATOM     16  C   UNL     1      10.451  -2.480  23.745  0.00  0.00    +0.225 A 
ATOM     17  N   UNL     1      10.344  -1.631  22.705  0.00  0.00    -0.219 NA
ENDBRANCH   1  13
BRANCH   2  18
ATOM     18  O   UNL     1       7.734  -6.107  26.752  0.00  0.00    -0.385 OA
ATOM     19  H   UNL     1       8.427  -6.638  26.321  0.00  0.00    +0.210 HD
ENDBRANCH   2  18
BRANCH   3  20
ATOM     20  O   UNL     1       6.426  -4.563  28.188  0.00  0.00    -0.386 OA
ATOM     21  H   UNL     1       6.236  -3.845  28.826  0.00  0.00    +0.210 HD
ENDBRANCH   3  20
BRANCH   4  22
ATOM     22  C   UNL     1       5.268  -2.284  25.549  0.00  0.00    +0.206 C 
BRANCH  22  23
ATOM     23  O   UNL     1       6.106  -1.316  26.215  0.00  0.00    -0.284 OA
BRANCH  23  24
ATOM     24  P   UNL     1       5.969   0.197  25.658  0.00  0.00    +0.483 P 
ATOM     25  O   UNL     1       6.664   1.227  26.482  0.00  0.00    -0.227 OA
BRANCH  24  26
ATOM     26  O   UNL     1       4.382   0.431  25.756  0.00  0.00    -0.302 OA
ATOM     27  H   UNL     1       3.987   0.554  24.871  0.00  0.00    +0.222 HD
ENDBRANCH  24  26
BRANCH  24  28
ATOM     28  O   UNL     1       6.230   0.288  24.049  0.00  0.00    -0.186 OA
BRANCH  28  29
ATOM     29  P   UNL     1       7.446   1.509  23.890  0.00  0.00    +0.492 P 
ATOM     30  O   UNL     1       7.461   1.306  22.371  0.00  0.00    -0.226 OA
BRANCH  29  31
ATOM     31  O   UNL     1       8.576   0.453  24.423  0.00  0.00    -0.302 OA
ATOM     32  H   UNL     1       8.417   0.291  25.372  0.00  0.00    +0.222 HD
ENDBRANCH  29  31
BRANCH  29  33
ATOM     33  O   UNL     1       8.662   2.729  23.732  0.00  0.00    -0.186 OA
BRANCH  33  34
ATOM     34  P   UNL     1      10.103   2.374  23.198  0.00  0.00    +0.481 P 
ATOM     35  O   UNL     1      10.960   1.510  24.049  0.00  0.00    -0.227 OA
BRANCH  34  36
ATOM     36  O   UNL     1      10.720   3.851  23.051  0.00  0.00    -0.302 OA
ATOM     37  H   UNL     1      10.035   4.531  23.169  0.00  0.00    +0.222 HD
ENDBRANCH  34  36
BRANCH  34  38
ATOM     38  O   UNL     1       9.958   2.050  21.646  0.00  0.00    -0.302 OA
ATOM     39  H   UNL     1       9.013   2.080  21.390  0.00  0.00    +0.222 HD
ENDBRANCH  34  38
ENDBRANCH  33  34
ENDBRANCH  29  33
ENDBRANCH  28  29
ENDBRANCH  24  28
ENDBRANCH  23  24
ENDBRANCH  22  23
ENDBRANCH   4  22
TORSDOF 14
ENDMDL
MODEL 8
REMARK VINA RESULT:      -6.3      3.620      6.958
REMARK  Name = 
REMARK  14 active torsions:
REMARK  status: ('A' for Active; 'I' for Inactive)
REMARK    1  A    between atoms: N_10  and  C_11
REMARK    2  A    between atoms: C_14  and  C_16
REMARK    3  A    between atoms: C_16  and  O_17
REMARK    4  A    between atoms: O_17  and  P_18
REMARK    5  A    between atoms: P_18  and  O_19
REMARK    6  A    between atoms: P_18  and  O_21
REMARK    7  A    between atoms: O_21  and  P_22
REMARK    8  A    between atoms: P_22  and  O_23
REMARK    9  A    between atoms: P_22  and  O_25
REMARK   10  A    between atoms: O_25  and  P_26
REMARK   11  A    between atoms: P_26  and  O_27
REMARK   12  A    between atoms: P_26  and  O_28
REMARK   13  A    between atoms: C_30  and  O_32
REMARK   14  A    between atoms: C_33  and  O_35
REMARK                            x       y       z     vdW  Elec       q    Type
REMARK                         _______ _______ _______ _____ _____    ______ ____
ROOT
ATOM      1  C   UNL     1       8.273  -5.206  26.483  0.00  0.00    +0.253 C 
ATOM      2  C   UNL     1       9.022  -5.289  25.147  0.00  0.00    +0.195 C 
ATOM      3  C   UNL     1       8.919  -3.871  24.567  0.00  0.00    +0.178 C 
ATOM      4  C   UNL     1       8.316  -3.003  25.693  0.00  0.00    +0.178 C 
ATOM      5  O   UNL     1       8.366  -3.822  26.886  0.00  0.00    -0.346 OA
ENDROOT
BRANCH   1  13
ATOM      6  N   UNL     1       2.686  -7.208  27.706  0.00  0.00    -0.341 N 
ATOM      7  H   UNL     1       2.735  -7.679  26.808  0.00  0.00    +0.144 HD
ATOM      8  H   UNL     1       2.307  -7.751  28.471  0.00  0.00    +0.144 HD
ATOM      9  C   UNL     1       3.908  -6.652  28.065  0.00  0.00    +0.147 A 
ATOM     10  C   UNL     1       4.892  -6.278  27.129  0.00  0.00    +0.147 A 
ATOM     11  N   UNL     1       4.930  -6.334  25.753  0.00  0.00    -0.231 NA
ATOM     12  C   UNL     1       6.137  -5.912  25.436  0.00  0.00    +0.203 A 
ATOM     13  N   UNL     1       6.878  -5.582  26.548  0.00  0.00    -0.286 N 
ATOM     14  C   UNL     1       6.087  -5.801  27.642  0.00  0.00    +0.167 A 
ATOM     15  N   UNL     1       6.411  -5.667  28.938  0.00  0.00    -0.216 NA
ATOM     16  C   UNL     1       5.388  -6.030  29.738  0.00  0.00    +0.225 A 
ATOM     17  N   UNL     1       4.182  -6.514  29.382  0.00  0.00    -0.219 NA
ENDBRANCH   1  13
BRANCH   2  18
ATOM     18  O   UNL     1      10.427  -5.619  25.303  0.00  0.00    -0.385 OA
ATOM     19  H   UNL     1      10.858  -5.634  24.430  0.00  0.00    +0.210 HD
ENDBRANCH   2  18
BRANCH   3  20
ATOM     20  O   UNL     1      10.231  -3.399  24.214  0.00  0.00    -0.386 OA
ATOM     21  H   UNL     1      10.737  -4.191  23.937  0.00  0.00    +0.210 HD
ENDBRANCH   3  20
BRANCH   4  22
ATOM     22  C   UNL     1       6.864  -2.548  25.409  0.00  0.00    +0.206 C 
BRANCH  22  23
ATOM     23  O   UNL     1       6.760  -1.143  25.094  0.00  0.00    -0.284 OA
BRANCH  23  24
ATOM     24  P   UNL     1       6.891  -0.789  23.521  0.00  0.00    +0.483 P 
ATOM     25  O   UNL     1       6.526   0.612  23.168  0.00  0.00    -0.227 OA
BRANCH  24  26
ATOM     26  O   UNL     1       5.812  -1.790  22.877  0.00  0.00    -0.302 OA
ATOM     27  H   UNL     1       6.086  -2.080  21.985  0.00  0.00    +0.222 HD
ENDBRANCH  24  26
BRANCH  24  28
ATOM     28  O   UNL     1       8.291  -1.335  22.881  0.00  0.00    -0.186 OA
BRANCH  28  29
ATOM     29  P   UNL     1       9.328   0.049  22.900  0.00  0.00    +0.492 P 
ATOM     30  O   UNL     1      10.550  -0.856  22.708  0.00  0.00    -0.226 OA
BRANCH  29  31
ATOM     31  O   UNL     1       9.177   0.140  24.526  0.00  0.00    -0.302 OA
ATOM     32  H   UNL     1       9.799   0.817  24.852  0.00  0.00    +0.222 HD
ENDBRANCH  29  31
BRANCH  29  33
ATOM     33  O   UNL     1      10.366   1.433  22.919  0.00  0.00    -0.186 OA
BRANCH  33  34
ATOM     34  P   UNL     1       9.832   2.841  23.387  0.00  0.00    +0.481 P 
ATOM     35  O   UNL     1       9.135   2.914  24.697  0.00  0.00    -0.227 OA
BRANCH  34  36
ATOM     36  O   UNL     1       8.835   3.180  22.172  0.00  0.00    -0.302 OA
ATOM     37  H   UNL     1       7.905   3.127  22.454  0.00  0.00    +0.222 HD
ENDBRANCH  34  36
BRANCH  34  38
ATOM     38  O   UNL     1      10.961   3.908  23.037  0.00  0.00    -0.302 OA
ATOM     39  H   UNL     1      10.976   4.607  23.724  0.00  0.00    +0.222 HD
ENDBRANCH  34  38
ENDBRANCH  33  34
ENDBRANCH  29  33
ENDBRANCH  28  29
ENDBRANCH  24  28
ENDBRANCH  23  24
ENDBRANCH  22  23
ENDBRANCH   4  22
TORSDOF 14
ENDMDL
MODEL 9
REMARK VINA RESULT:      -6.3      2.596      3.510
REMARK  Name = 
REMARK  14 active torsions:
REMARK  status: ('A' for Active; 'I' for Inactive)
REMARK    1  A    between atoms: N_10  and  C_11
REMARK    2  A    between atoms: C_14  and  C_16
REMARK    3  A    between atoms: C_16  and  O_17
REMARK    4  A    between atoms: O_17  and  P_18
REMARK    5  A    between atoms: P_18  and  O_19
REMARK    6  A    between atoms: P_18  and  O_21
REMARK    7  A    between atoms: O_21  and  P_22
REMARK    8  A    between atoms: P_22  and  O_23
REMARK    9  A    between atoms: P_22  and  O_25
REMARK   10  A    between atoms: O_25  and  P_26
REMARK   11  A    between atoms: P_26  and  O_27
REMARK   12  A    between atoms: P_26  and  O_28
REMARK   13  A    between atoms: C_30  and  O_32
REMARK   14  A    between atoms: C_33  and  O_35
REMARK                            x       y       z     vdW  Elec       q    Type
REMARK                         _______ _______ _______ _____ _____    ______ ____
ROOT
ATOM      1  C   UNL     1       9.647  -0.425  22.912  0.00  0.00    +0.253 C 
ATOM      2  C   UNL     1       9.158   0.918  22.356  0.00  0.00    +0.195 C 
ATOM      3  C   UNL     1       8.730   1.710  23.600  0.00  0.00    +0.178 C 
ATOM      4  C   UNL     1       9.202   0.873  24.809  0.00  0.00    +0.178 C 
ATOM      5  O   UNL     1      10.076  -0.143  24.263  0.00  0.00    -0.346 OA
ENDROOT
BRANCH   1  13
ATOM      6  N   UNL     1       6.738  -5.727  23.283  0.00  0.00    -0.341 N 
ATOM      7  H   UNL     1       6.303  -5.469  22.403  0.00  0.00    +0.144 HD
ATOM      8  H   UNL     1       7.064  -6.682  23.353  0.00  0.00    +0.144 HD
ATOM      9  C   UNL     1       7.749  -4.842  23.638  0.00  0.00    +0.147 A 
ATOM     10  C   UNL     1       7.796  -3.505  23.198  0.00  0.00    +0.147 A 
ATOM     11  N   UNL     1       6.957  -2.765  22.394  0.00  0.00    -0.231 NA
ATOM     12  C   UNL     1       7.555  -1.597  22.277  0.00  0.00    +0.203 A 
ATOM     13  N   UNL     1       8.741  -1.549  22.974  0.00  0.00    -0.286 N 
ATOM     14  C   UNL     1       8.903  -2.765  23.580  0.00  0.00    +0.167 A 
ATOM     15  N   UNL     1       9.940  -3.189  24.319  0.00  0.00    -0.216 NA
ATOM     16  C   UNL     1       9.775  -4.471  24.703  0.00  0.00    +0.225 A 
ATOM     17  N   UNL     1       8.762  -5.308  24.403  0.00  0.00    -0.219 NA
ENDBRANCH   1  13
BRANCH   2  18
ATOM     18  O   UNL     1      10.200   1.664  21.673  0.00  0.00    -0.385 OA
ATOM     19  H   UNL     1      11.073   1.325  21.940  0.00  0.00    +0.210 HD
ENDBRANCH   2  18
BRANCH   3  20
ATOM     20  O   UNL     1       9.374   2.997  23.596  0.00  0.00    -0.386 OA
ATOM     21  H   UNL     1       9.037   3.469  24.385  0.00  0.00    +0.210 HD
ENDBRANCH   3  20
BRANCH   4  22
ATOM     22  C   UNL     1       8.040   0.220  25.597  0.00  0.00    +0.206 C 
BRANCH  22  23
ATOM     23  O   UNL     1       6.747   0.450  24.997  0.00  0.00    -0.284 OA
BRANCH  23  24
ATOM     24  P   UNL     1       5.524  -0.346  25.695  0.00  0.00    +0.483 P 
ATOM     25  O   UNL     1       4.368   0.510  26.084  0.00  0.00    -0.227 OA
BRANCH  24  26
ATOM     26  O   UNL     1       6.228  -0.912  27.024  0.00  0.00    -0.302 OA
ATOM     27  H   UNL     1       5.681  -1.602  27.448  0.00  0.00    +0.222 HD
ENDBRANCH  24  26
BRANCH  24  28
ATOM     28  O   UNL     1       5.146  -1.720  24.896  0.00  0.00    -0.186 OA
BRANCH  28  29
ATOM     29  P   UNL     1       5.100  -2.926  26.135  0.00  0.00    +0.492 P 
ATOM     30  O   UNL     1       4.806  -4.003  25.085  0.00  0.00    -0.226 OA
BRANCH  29  31
ATOM     31  O   UNL     1       3.611  -2.414  26.578  0.00  0.00    -0.302 OA
ATOM     32  H   UNL     1       3.028  -2.459  25.797  0.00  0.00    +0.222 HD
ENDBRANCH  29  31
BRANCH  29  33
ATOM     33  O   UNL     1       5.054  -4.132  27.374  0.00  0.00    -0.186 OA
BRANCH  33  34
ATOM     34  P   UNL     1       6.271  -5.109  27.601  0.00  0.00    +0.481 P 
ATOM     35  O   UNL     1       6.506  -5.609  28.980  0.00  0.00    -0.227 OA
BRANCH  34  36
ATOM     36  O   UNL     1       7.479  -4.173  27.102  0.00  0.00    -0.302 OA
ATOM     37  H   UNL     1       7.741  -4.392  26.191  0.00  0.00    +0.222 HD
ENDBRANCH  34  36
BRANCH  34  38
ATOM     38  O   UNL     1       6.281  -6.133  26.382  0.00  0.00    -0.302 OA
ATOM     39  H   UNL     1       5.360  -6.377  26.150  0.00  0.00    +0.222 HD
ENDBRANCH  34  38
ENDBRANCH  33  34
ENDBRANCH  29  33
ENDBRANCH  28  29
ENDBRANCH  24  28
ENDBRANCH  23  24
ENDBRANCH  22  23
ENDBRANCH   4  22
TORSDOF 14
ENDMDL
