MODEL 1
REMARK VINA RESULT:      -6.4      0.000      0.000
REMARK  Name = 
REMARK  4 active torsions:
REMARK  status: ('A' for Active; 'I' for Inactive)
REMARK    1  A    between atoms: C_1  and  O_2
REMARK    2  A    between atoms: C_1  and  C_19
REMARK    3  A    between atoms: O_2  and  C_3
REMARK    4  A    between atoms: N_11  and  C_12
REMARK                            x       y       z     vdW  Elec       q    Type
REMARK                         _______ _______ _______ _____ _____    ______ ____
ROOT
ATOM      1  C   UNL     1       7.298  -2.146  26.512  0.00  0.00    +0.246 A 
ATOM      2  N   UNL     1       8.223  -1.726  25.638  0.00  0.00    -0.177 NA
ATOM      3  C   UNL     1       8.991  -2.619  24.981  0.00  0.00    +0.225 A 
ATOM      4  N   UNL     1       9.911  -2.152  24.037  0.00  0.00    -0.283 N 
ATOM      5  H   UNL     1      10.459  -2.921  23.677  0.00  0.00    +0.155 HD
ATOM      6  N   UNL     1       8.946  -3.946  25.158  0.00  0.00    -0.193 NA
ATOM      7  C   UNL     1       8.006  -4.353  26.029  0.00  0.00    +0.186 A 
ATOM      8  N   UNL     1       7.704  -5.653  26.344  0.00  0.00    -0.216 NA
ATOM      9  C   UNL     1       6.711  -5.577  27.206  0.00  0.00    +0.199 A 
ATOM     10  N   UNL     1       6.372  -4.280  27.478  0.00  0.00    -0.339 N 
ATOM     11  H   UNL     1       5.641  -3.962  28.100  0.00  0.00    +0.167 HD
ATOM     12  C   UNL     1       7.180  -3.490  26.716  0.00  0.00    +0.147 A 
ENDROOT
BRANCH   4  13
ATOM     13  C   UNL     1       9.931  -0.962  23.291  0.00  0.00    +0.034 A 
ATOM     14  C   UNL     1      10.503   0.191  23.848  0.00  0.00    +0.023 A 
ATOM     15  C   UNL     1      10.490   1.412  23.159  0.00  0.00    +0.002 A 
ATOM     16  C   UNL     1       9.889   1.505  21.907  0.00  0.00    +0.000 A 
ATOM     17  C   UNL     1       9.304   0.379  21.342  0.00  0.00    +0.002 A 
ATOM     18  C   UNL     1       9.328  -0.836  22.030  0.00  0.00    +0.023 A 
ENDBRANCH   4  13
BRANCH   1  19
ATOM     19  O   UNL     1       6.491  -1.251  27.176  0.00  0.00    -0.475 OA
BRANCH  19  20
ATOM     20  C   UNL     1       7.108   0.036  27.299  0.00  0.00    +0.234 C 
BRANCH  20  21
ATOM     21  C   UNL     1       6.107   1.111  26.845  0.00  0.00    +0.027 C 
ATOM     22  C   UNL     1       5.442   0.732  25.514  0.00  0.00    +0.007 C 
ATOM     23  C   UNL     1       6.395   0.833  24.323  0.00  0.00    +0.000 C 
ATOM     24  C   UNL     1       7.051   2.208  24.241  0.00  0.00    +0.000 C 
ATOM     25  C   UNL     1       7.723   2.608  25.551  0.00  0.00    +0.000 C 
ATOM     26  C   UNL     1       6.764   2.498  26.736  0.00  0.00    +0.007 C 
ENDBRANCH  20  21
ENDBRANCH  19  20
ENDBRANCH   1  19
TORSDOF 4
ENDMDL
MODEL 2
REMARK VINA RESULT:      -6.3      2.274      2.474
REMARK  Name = 
REMARK  4 active torsions:
REMARK  status: ('A' for Active; 'I' for Inactive)
REMARK    1  A    between atoms: C_1  and  O_2
REMARK    2  A    between atoms: C_1  and  C_19
REMARK    3  A    between atoms: O_2  and  C_3
REMARK    4  A    between atoms: N_11  and  C_12
REMARK                            x       y       z     vdW  Elec       q    Type
REMARK                         _______ _______ _______ _____ _____    ______ ____
ROOT
ATOM      1  C   UNL     1       6.003  -2.151  24.093  0.00  0.00    +0.246 A 
ATOM      2  N   UNL     1       7.239  -1.672  23.895  0.00  0.00    -0.177 NA
ATOM      3  C   UNL     1       8.119  -2.360  23.139  0.00  0.00    +0.225 A 
ATOM      4  N   UNL     1       9.384  -1.810  22.909  0.00  0.00    -0.283 N 
ATOM      5  H   UNL     1       9.955  -2.460  22.387  0.00  0.00    +0.155 HD
ATOM      6  N   UNL     1       7.880  -3.551  22.575  0.00  0.00    -0.193 NA
ATOM      7  C   UNL     1       6.632  -4.013  22.774  0.00  0.00    +0.186 A 
ATOM      8  N   UNL     1       6.106  -5.168  22.257  0.00  0.00    -0.216 NA
ATOM      9  C   UNL     1       4.860  -5.200  22.682  0.00  0.00    +0.199 A 
ATOM     10  N   UNL     1       4.565  -4.122  23.472  0.00  0.00    -0.339 N 
ATOM     11  H   UNL     1       3.678  -3.918  23.912  0.00  0.00    +0.167 HD
ATOM     12  C   UNL     1       5.685  -3.347  23.521  0.00  0.00    +0.147 A 
ENDROOT
BRANCH   4  13
ATOM     13  C   UNL     1       9.820  -0.475  22.938  0.00  0.00    +0.034 A 
ATOM     14  C   UNL     1      10.400   0.034  24.109  0.00  0.00    +0.023 A 
ATOM     15  C   UNL     1      10.794   1.376  24.199  0.00  0.00    +0.002 A 
ATOM     16  C   UNL     1      10.598   2.239  23.123  0.00  0.00    +0.000 A 
ATOM     17  C   UNL     1      10.012   1.760  21.959  0.00  0.00    +0.002 A 
ATOM     18  C   UNL     1       9.630   0.419  21.874  0.00  0.00    +0.023 A 
ENDBRANCH   4  13
BRANCH   1  19
ATOM     19  O   UNL     1       5.085  -1.453  24.845  0.00  0.00    -0.475 OA
BRANCH  19  20
ATOM     20  C   UNL     1       5.716  -0.640  25.841  0.00  0.00    +0.234 C 
BRANCH  20  21
ATOM     21  C   UNL     1       5.158   0.788  25.741  0.00  0.00    +0.027 C 
ATOM     22  C   UNL     1       5.603   1.475  24.443  0.00  0.00    +0.007 C 
ATOM     23  C   UNL     1       7.087   1.842  24.441  0.00  0.00    +0.000 C 
ATOM     24  C   UNL     1       7.463   2.675  25.664  0.00  0.00    +0.000 C 
ATOM     25  C   UNL     1       7.034   2.013  26.970  0.00  0.00    +0.000 C 
ATOM     26  C   UNL     1       5.551   1.645  26.959  0.00  0.00    +0.007 C 
ENDBRANCH  20  21
ENDBRANCH  19  20
ENDBRANCH   1  19
TORSDOF 4
ENDMDL
MODEL 3
REMARK VINA RESULT:      -6.1      1.265      1.614
REMARK  Name = 
REMARK  4 active torsions:
REMARK  status: ('A' for Active; 'I' for Inactive)
REMARK    1  A    between atoms: C_1  and  O_2
REMARK    2  A    between atoms: C_1  and  C_19
REMARK    3  A    between atoms: O_2  and  C_3
REMARK    4  A    between atoms: N_11  and  C_12
REMARK                            x       y       z     vdW  Elec       q    Type
REMARK                         _______ _______ _______ _____ _____    ______ ____
ROOT
ATOM      1  C   UNL     1       8.334  -2.117  25.944  0.00  0.00    +0.246 A 
ATOM      2  N   UNL     1       8.891  -1.229  25.108  0.00  0.00    -0.177 NA
ATOM      3  C   UNL     1       9.691  -1.648  24.108  0.00  0.00    +0.225 A 
ATOM      4  N   UNL     1      10.215  -0.702  23.221  0.00  0.00    -0.283 N 
ATOM      5  H   UNL     1      10.845  -1.149  22.570  0.00  0.00    +0.155 HD
ATOM      6  N   UNL     1      10.036  -2.924  23.884  0.00  0.00    -0.193 NA
ATOM      7  C   UNL     1       9.461  -3.804  24.724  0.00  0.00    +0.186 A 
ATOM      8  N   UNL     1       9.590  -5.168  24.677  0.00  0.00    -0.216 NA
ATOM      9  C   UNL     1       8.837  -5.618  25.660  0.00  0.00    +0.199 A 
ATOM     10  N   UNL     1       8.245  -4.600  26.354  0.00  0.00    -0.339 N 
ATOM     11  H   UNL     1       7.620  -4.688  27.145  0.00  0.00    +0.167 HD
ATOM     12  C   UNL     1       8.621  -3.436  25.753  0.00  0.00    +0.147 A 
ENDROOT
BRANCH   4  13
ATOM     13  C   UNL     1       9.751   0.576  22.870  0.00  0.00    +0.034 A 
ATOM     14  C   UNL     1      10.229   1.697  23.565  0.00  0.00    +0.023 A 
ATOM     15  C   UNL     1       9.749   2.983  23.285  0.00  0.00    +0.002 A 
ATOM     16  C   UNL     1       8.767   3.170  22.316  0.00  0.00    +0.000 A 
ATOM     17  C   UNL     1       8.269   2.073  21.625  0.00  0.00    +0.002 A 
ATOM     18  C   UNL     1       8.759   0.795  21.903  0.00  0.00    +0.023 A 
ENDBRANCH   4  13
BRANCH   1  19
ATOM     19  O   UNL     1       7.498  -1.709  26.959  0.00  0.00    -0.475 OA
BRANCH  19  20
ATOM     20  C   UNL     1       7.701  -0.332  27.298  0.00  0.00    +0.234 C 
BRANCH  20  21
ATOM     21  C   UNL     1       6.343   0.388  27.282  0.00  0.00    +0.027 C 
ATOM     22  C   UNL     1       5.589   0.132  25.970  0.00  0.00    +0.007 C 
ATOM     23  C   UNL     1       6.211   0.854  24.775  0.00  0.00    +0.000 C 
ATOM     24  C   UNL     1       6.369   2.349  25.038  0.00  0.00    +0.000 C 
ATOM     25  C   UNL     1       7.119   2.632  26.337  0.00  0.00    +0.000 C 
ATOM     26  C   UNL     1       6.493   1.901  27.524  0.00  0.00    +0.007 C 
ENDBRANCH  20  21
ENDBRANCH  19  20
ENDBRANCH   1  19
TORSDOF 4
ENDMDL
MODEL 4
REMARK VINA RESULT:      -6.1      2.534      5.070
REMARK  Name = 
REMARK  4 active torsions:
REMARK  status: ('A' for Active; 'I' for Inactive)
REMARK    1  A    between atoms: C_1  and  O_2
REMARK    2  A    between atoms: C_1  and  C_19
REMARK    3  A    between atoms: O_2  and  C_3
REMARK    4  A    between atoms: N_11  and  C_12
REMARK                            x       y       z     vdW  Elec       q    Type
REMARK                         _______ _______ _______ _____ _____    ______ ____
ROOT
ATOM      1  C   UNL     1       8.214  -0.592  26.105  0.00  0.00    +0.246 A 
ATOM      2  N   UNL     1       7.746  -1.723  25.559  0.00  0.00    -0.177 NA
ATOM      3  C   UNL     1       6.551  -2.217  25.942  0.00  0.00    +0.225 A 
ATOM      4  N   UNL     1       6.066  -3.371  25.317  0.00  0.00    -0.283 N 
ATOM      5  H   UNL     1       5.200  -3.661  25.749  0.00  0.00    +0.155 HD
ATOM      6  N   UNL     1       5.769  -1.685  26.892  0.00  0.00    -0.193 NA
ATOM      7  C   UNL     1       6.247  -0.545  27.422  0.00  0.00    +0.186 A 
ATOM      8  N   UNL     1       5.621   0.236  28.359  0.00  0.00    -0.216 NA
ATOM      9  C   UNL     1       6.432   1.254  28.556  0.00  0.00    +0.199 A 
ATOM     10  N   UNL     1       7.568   1.153  27.802  0.00  0.00    -0.339 N 
ATOM     11  H   UNL     1       8.337   1.809  27.772  0.00  0.00    +0.167 HD
ATOM     12  C   UNL     1       7.452   0.017  27.058  0.00  0.00    +0.147 A 
ENDROOT
BRANCH   4  13
ATOM     13  C   UNL     1       6.352  -3.915  24.055  0.00  0.00    +0.034 A 
ATOM     14  C   UNL     1       5.854  -3.285  22.905  0.00  0.00    +0.023 A 
ATOM     15  C   UNL     1       6.068  -3.828  21.630  0.00  0.00    +0.002 A 
ATOM     16  C   UNL     1       6.769  -5.023  21.485  0.00  0.00    +0.000 A 
ATOM     17  C   UNL     1       7.258  -5.671  22.611  0.00  0.00    +0.002 A 
ATOM     18  C   UNL     1       7.049  -5.119  23.877  0.00  0.00    +0.023 A 
ENDBRANCH   4  13
BRANCH   1  19
ATOM     19  O   UNL     1       9.422  -0.062  25.712  0.00  0.00    -0.475 OA
BRANCH  19  20
ATOM     20  C   UNL     1       9.270   0.878  24.641  0.00  0.00    +0.234 C 
BRANCH  20  21
ATOM     21  C   UNL     1      10.374   0.626  23.601  0.00  0.00    +0.027 C 
ATOM     22  C   UNL     1      10.193   1.518  22.365  0.00  0.00    +0.007 C 
ATOM     23  C   UNL     1       9.005   1.102  21.498  0.00  0.00    +0.000 C 
ATOM     24  C   UNL     1       9.079  -0.372  21.110  0.00  0.00    +0.000 C 
ATOM     25  C   UNL     1       9.256  -1.282  22.322  0.00  0.00    +0.000 C 
ATOM     26  C   UNL     1      10.442  -0.854  23.185  0.00  0.00    +0.007 C 
ENDBRANCH  20  21
ENDBRANCH  19  20
ENDBRANCH   1  19
TORSDOF 4
ENDMDL
MODEL 5
REMARK VINA RESULT:      -5.8      1.581      4.389
REMARK  Name = 
REMARK  4 active torsions:
REMARK  status: ('A' for Active; 'I' for Inactive)
REMARK    1  A    between atoms: C_1  and  O_2
REMARK    2  A    between atoms: C_1  and  C_19
REMARK    3  A    between atoms: O_2  and  C_3
REMARK    4  A    between atoms: N_11  and  C_12
REMARK                            x       y       z     vdW  Elec       q    Type
REMARK                         _______ _______ _______ _____ _____    ______ ____
ROOT
ATOM      1  C   UNL     1       8.887  -2.094  24.798  0.00  0.00    +0.246 A 
ATOM      2  N   UNL     1       7.946  -1.251  25.247  0.00  0.00    -0.177 NA
ATOM      3  C   UNL     1       7.052  -1.663  26.169  0.00  0.00    +0.225 A 
ATOM      4  N   UNL     1       6.116  -0.745  26.657  0.00  0.00    -0.283 N 
ATOM      5  H   UNL     1       5.474  -1.207  27.286  0.00  0.00    +0.155 HD
ATOM      6  N   UNL     1       6.983  -2.903  26.671  0.00  0.00    -0.193 NA
ATOM      7  C   UNL     1       7.939  -3.734  26.219  0.00  0.00    +0.186 A 
ATOM      8  N   UNL     1       8.137  -5.031  26.615  0.00  0.00    -0.216 NA
ATOM      9  C   UNL     1       9.192  -5.440  25.941  0.00  0.00    +0.199 A 
ATOM     10  N   UNL     1       9.671  -4.467  25.107  0.00  0.00    -0.339 N 
ATOM     11  H   UNL     1      10.471  -4.535  24.493  0.00  0.00    +0.167 HD
ATOM     12  C   UNL     1       8.890  -3.366  25.291  0.00  0.00    +0.147 A 
ENDROOT
BRANCH   4  13
ATOM     13  C   UNL     1       6.157   0.657  26.719  0.00  0.00    +0.034 A 
ATOM     14  C   UNL     1       5.522   1.409  25.719  0.00  0.00    +0.023 A 
ATOM     15  C   UNL     1       5.589   2.809  25.712  0.00  0.00    +0.002 A 
ATOM     16  C   UNL     1       6.308   3.482  26.696  0.00  0.00    +0.000 A 
ATOM     17  C   UNL     1       6.957   2.758  27.687  0.00  0.00    +0.002 A 
ATOM     18  C   UNL     1       6.879   1.363  27.693  0.00  0.00    +0.023 A 
ENDBRANCH   4  13
BRANCH   1  19
ATOM     19  O   UNL     1       9.820  -1.686  23.872  0.00  0.00    -0.475 OA
BRANCH  19  20
ATOM     20  C   UNL     1       9.300  -0.678  22.997  0.00  0.00    +0.234 C 
BRANCH  20  21
ATOM     21  C   UNL     1      10.287   0.500  22.957  0.00  0.00    +0.027 C 
ATOM     22  C   UNL     1      10.405   1.180  24.328  0.00  0.00    +0.007 C 
ATOM     23  C   UNL     1       9.158   1.979  24.705  0.00  0.00    +0.000 C 
ATOM     24  C   UNL     1       8.783   2.985  23.620  0.00  0.00    +0.000 C 
ATOM     25  C   UNL     1       8.656   2.334  22.246  0.00  0.00    +0.000 C 
ATOM     26  C   UNL     1       9.906   1.532  21.881  0.00  0.00    +0.007 C 
ENDBRANCH  20  21
ENDBRANCH  19  20
ENDBRANCH   1  19
TORSDOF 4
ENDMDL
MODEL 6
REMARK VINA RESULT:      -5.8      2.845      5.478
REMARK  Name = 
REMARK  4 active torsions:
REMARK  status: ('A' for Active; 'I' for Inactive)
REMARK    1  A    between atoms: C_1  and  O_2
REMARK    2  A    between atoms: C_1  and  C_19
REMARK    3  A    between atoms: O_2  and  C_3
REMARK    4  A    between atoms: N_11  and  C_12
REMARK                            x       y       z     vdW  Elec       q    Type
REMARK                         _______ _______ _______ _____ _____    ______ ____
ROOT
ATOM      1  C   UNL     1       6.797   0.830  25.530  0.00  0.00    +0.246 A 
ATOM      2  N   UNL     1       6.598  -0.460  25.224  0.00  0.00    -0.177 NA
ATOM      3  C   UNL     1       5.417  -1.048  25.499  0.00  0.00    +0.225 A 
ATOM      4  N   UNL     1       5.222  -2.380  25.120  0.00  0.00    -0.283 N 
ATOM      5  H   UNL     1       4.324  -2.706  25.448  0.00  0.00    +0.155 HD
ATOM      6  N   UNL     1       4.389  -0.453  26.118  0.00  0.00    -0.193 NA
ATOM      7  C   UNL     1       4.599   0.844  26.410  0.00  0.00    +0.186 A 
ATOM      8  N   UNL     1       3.694   1.701  26.980  0.00  0.00    -0.216 NA
ATOM      9  C   UNL     1       4.314   2.861  27.048  0.00  0.00    +0.199 A 
ATOM     10  N   UNL     1       5.592   2.783  26.565  0.00  0.00    -0.339 N 
ATOM     11  H   UNL     1       6.264   3.537  26.506  0.00  0.00    +0.167 HD
ATOM     12  C   UNL     1       5.778   1.504  26.136  0.00  0.00    +0.147 A 
ENDROOT
BRANCH   4  13
ATOM     13  C   UNL     1       5.840  -3.145  24.117  0.00  0.00    +0.034 A 
ATOM     14  C   UNL     1       6.878  -4.023  24.462  0.00  0.00    +0.023 A 
ATOM     15  C   UNL     1       7.559  -4.760  23.484  0.00  0.00    +0.002 A 
ATOM     16  C   UNL     1       7.226  -4.618  22.139  0.00  0.00    +0.000 A 
ATOM     17  C   UNL     1       6.211  -3.744  21.774  0.00  0.00    +0.002 A 
ATOM     18  C   UNL     1       5.531  -3.019  22.755  0.00  0.00    +0.023 A 
ENDBRANCH   4  13
BRANCH   1  19
ATOM     19  O   UNL     1       7.989   1.453  25.238  0.00  0.00    -0.475 OA
BRANCH  19  20
ATOM     20  C   UNL     1       8.236   1.501  23.828  0.00  0.00    +0.234 C 
BRANCH  20  21
ATOM     21  C   UNL     1       9.719   1.190  23.573  0.00  0.00    +0.027 C 
ATOM     22  C   UNL     1      10.023   1.095  22.072  0.00  0.00    +0.007 C 
ATOM     23  C   UNL     1       9.443  -0.163  21.425  0.00  0.00    +0.000 C 
ATOM     24  C   UNL     1       9.881  -1.427  22.159  0.00  0.00    +0.000 C 
ATOM     25  C   UNL     1       9.588  -1.360  23.655  0.00  0.00    +0.000 C 
ATOM     26  C   UNL     1      10.167  -0.096  24.290  0.00  0.00    +0.007 C 
ENDBRANCH  20  21
ENDBRANCH  19  20
ENDBRANCH   1  19
TORSDOF 4
ENDMDL
MODEL 7
REMARK VINA RESULT:      -5.7      3.118      6.672
REMARK  Name = 
REMARK  4 active torsions:
REMARK  status: ('A' for Active; 'I' for Inactive)
REMARK    1  A    between atoms: C_1  and  O_2
REMARK    2  A    between atoms: C_1  and  C_19
REMARK    3  A    between atoms: O_2  and  C_3
REMARK    4  A    between atoms: N_11  and  C_12
REMARK                            x       y       z     vdW  Elec       q    Type
REMARK                         _______ _______ _______ _____ _____    ______ ____
ROOT
ATOM      1  C   UNL     1       8.592  -2.505  24.121  0.00  0.00    +0.246 A 
ATOM      2  N   UNL     1       7.654  -2.656  25.067  0.00  0.00    -0.177 NA
ATOM      3  C   UNL     1       7.488  -1.711  26.014  0.00  0.00    +0.225 A 
ATOM      4  N   UNL     1       6.466  -1.872  26.956  0.00  0.00    -0.283 N 
ATOM      5  H   UNL     1       6.503  -1.128  27.638  0.00  0.00    +0.155 HD
ATOM      6  N   UNL     1       8.233  -0.604  26.133  0.00  0.00    -0.193 NA
ATOM      7  C   UNL     1       9.163  -0.461  25.171  0.00  0.00    +0.186 A 
ATOM      8  N   UNL     1      10.011   0.605  25.018  0.00  0.00    -0.216 NA
ATOM      9  C   UNL     1      10.715   0.333  23.939  0.00  0.00    +0.199 A 
ATOM     10  N   UNL     1      10.372  -0.876  23.400  0.00  0.00    -0.339 N 
ATOM     11  H   UNL     1      10.764  -1.303  22.571  0.00  0.00    +0.167 HD
ATOM     12  C   UNL     1       9.367  -1.384  24.168  0.00  0.00    +0.147 A 
ENDROOT
BRANCH   4  13
ATOM     13  C   UNL     1       5.271  -2.607  26.891  0.00  0.00    +0.034 A 
ATOM     14  C   UNL     1       5.257  -3.939  27.330  0.00  0.00    +0.023 A 
ATOM     15  C   UNL     1       4.100  -4.723  27.228  0.00  0.00    +0.002 A 
ATOM     16  C   UNL     1       2.940  -4.194  26.667  0.00  0.00    +0.000 A 
ATOM     17  C   UNL     1       2.935  -2.882  26.214  0.00  0.00    +0.002 A 
ATOM     18  C   UNL     1       4.090  -2.103  26.326  0.00  0.00    +0.023 A 
ENDBRANCH   4  13
BRANCH   1  19
ATOM     19  O   UNL     1       8.763  -3.450  23.135  0.00  0.00    -0.475 OA
BRANCH  19  20
ATOM     20  C   UNL     1       7.984  -4.626  23.380  0.00  0.00    +0.234 C 
BRANCH  20  21
ATOM     21  C   UNL     1       7.059  -4.867  22.177  0.00  0.00    +0.027 C 
ATOM     22  C   UNL     1       6.083  -3.699  21.977  0.00  0.00    +0.007 C 
ATOM     23  C   UNL     1       4.998  -3.638  23.052  0.00  0.00    +0.000 C 
ATOM     24  C   UNL     1       4.254  -4.964  23.177  0.00  0.00    +0.000 C 
ATOM     25  C   UNL     1       5.201  -6.144  23.380  0.00  0.00    +0.000 C 
ATOM     26  C   UNL     1       6.285  -6.192  22.304  0.00  0.00    +0.007 C 
ENDBRANCH  20  21
ENDBRANCH  19  20
ENDBRANCH   1  19
TORSDOF 4
ENDMDL
MODEL 8
REMARK VINA RESULT:      -5.6      2.900      4.103
REMARK  Name = 
REMARK  4 active torsions:
REMARK  status: ('A' for Active; 'I' for Inactive)
REMARK    1  A    between atoms: C_1  and  O_2
REMARK    2  A    between atoms: C_1  and  C_19
REMARK    3  A    between atoms: O_2  and  C_3
REMARK    4  A    between atoms: N_11  and  C_12
REMARK                            x       y       z     vdW  Elec       q    Type
REMARK                         _______ _______ _______ _____ _____    ______ ____
ROOT
ATOM      1  C   UNL     1       6.146  -2.538  23.879  0.00  0.00    +0.246 A 
ATOM      2  N   UNL     1       7.352  -1.962  23.783  0.00  0.00    -0.177 NA
ATOM      3  C   UNL     1       8.360  -2.600  23.153  0.00  0.00    +0.225 A 
ATOM      4  N   UNL     1       9.592  -1.951  23.023  0.00  0.00    -0.283 N 
ATOM      5  H   UNL     1      10.265  -2.569  22.593  0.00  0.00    +0.155 HD
ATOM      6  N   UNL     1       8.280  -3.830  22.627  0.00  0.00    -0.193 NA
ATOM      7  C   UNL     1       7.061  -4.390  22.722  0.00  0.00    +0.186 A 
ATOM      8  N   UNL     1       6.688  -5.607  22.213  0.00  0.00    -0.216 NA
ATOM      9  C   UNL     1       5.412  -5.730  22.513  0.00  0.00    +0.199 A 
ATOM     10  N   UNL     1       4.949  -4.652  23.216  0.00  0.00    -0.339 N 
ATOM     11  H   UNL     1       4.007  -4.509  23.555  0.00  0.00    +0.167 HD
ATOM     12  C   UNL     1       5.989  -3.781  23.338  0.00  0.00    +0.147 A 
ENDROOT
BRANCH   4  13
ATOM     13  C   UNL     1       9.910  -0.583  23.030  0.00  0.00    +0.034 A 
ATOM     14  C   UNL     1      10.365   0.012  24.216  0.00  0.00    +0.023 A 
ATOM     15  C   UNL     1      10.637   1.385  24.280  0.00  0.00    +0.002 A 
ATOM     16  C   UNL     1      10.441   2.193  23.162  0.00  0.00    +0.000 A 
ATOM     17  C   UNL     1       9.977   1.628  21.982  0.00  0.00    +0.002 A 
ATOM     18  C   UNL     1       9.716   0.257  21.923  0.00  0.00    +0.023 A 
ENDBRANCH   4  13
BRANCH   1  19
ATOM     19  O   UNL     1       5.100  -1.894  24.501  0.00  0.00    -0.475 OA
BRANCH  19  20
ATOM     20  C   UNL     1       5.185  -1.990  25.928  0.00  0.00    +0.234 C 
BRANCH  20  21
ATOM     21  C   UNL     1       3.762  -2.046  26.506  0.00  0.00    +0.027 C 
ATOM     22  C   UNL     1       3.782  -2.094  28.040  0.00  0.00    +0.007 C 
ATOM     23  C   UNL     1       4.271  -3.434  28.588  0.00  0.00    +0.000 C 
ATOM     24  C   UNL     1       3.480  -4.603  28.009  0.00  0.00    +0.000 C 
ATOM     25  C   UNL     1       3.447  -4.582  26.484  0.00  0.00    +0.000 C 
ATOM     26  C   UNL     1       2.962  -3.236  25.946  0.00  0.00    +0.007 C 
ENDBRANCH  20  21
ENDBRANCH  19  20
ENDBRANCH   1  19
TORSDOF 4
ENDMDL
MODEL 9
REMARK VINA RESULT:      -5.6      2.667      4.894
REMARK  Name = 
REMARK  4 active torsions:
REMARK  status: ('A' for Active; 'I' for Inactive)
REMARK    1  A    between atoms: C_1  and  O_2
REMARK    2  A    between atoms: C_1  and  C_19
REMARK    3  A    between atoms: O_2  and  C_3
REMARK    4  A    between atoms: N_11  and  C_12
REMARK                            x       y       z     vdW  Elec       q    Type
REMARK                         _______ _______ _______ _____ _____    ______ ____
ROOT
ATOM      1  C   UNL     1       7.430  -2.694  22.737  0.00  0.00    +0.246 A 
ATOM      2  N   UNL     1       6.819  -1.862  23.591  0.00  0.00    -0.177 NA
ATOM      3  C   UNL     1       5.706  -2.255  24.243  0.00  0.00    +0.225 A 
ATOM      4  N   UNL     1       5.121  -1.383  25.167  0.00  0.00    -0.283 N 
ATOM      5  H   UNL     1       4.264  -1.781  25.525  0.00  0.00    +0.155 HD
ATOM      6  N   UNL     1       5.098  -3.438  24.079  0.00  0.00    -0.193 NA
ATOM      7  C   UNL     1       5.729  -4.267  23.227  0.00  0.00    +0.186 A 
ATOM      8  N   UNL     1       5.361  -5.553  22.928  0.00  0.00    -0.216 NA
ATOM      9  C   UNL     1       6.274  -5.985  22.084  0.00  0.00    +0.199 A 
ATOM     10  N   UNL     1       7.205  -5.023  21.806  0.00  0.00    -0.339 N 
ATOM     11  H   UNL     1       8.005  -5.113  21.193  0.00  0.00    +0.167 HD
ATOM     12  C   UNL     1       6.878  -3.927  22.546  0.00  0.00    +0.147 A 
ENDROOT
BRANCH   4  13
ATOM     13  C   UNL     1       5.677  -0.324  25.902  0.00  0.00    +0.034 A 
ATOM     14  C   UNL     1       6.444  -0.605  27.042  0.00  0.00    +0.023 A 
ATOM     15  C   UNL     1       6.968   0.425  27.836  0.00  0.00    +0.002 A 
ATOM     16  C   UNL     1       6.717   1.756  27.513  0.00  0.00    +0.000 A 
ATOM     17  C   UNL     1       5.949   2.058  26.397  0.00  0.00    +0.002 A 
ATOM     18  C   UNL     1       5.438   1.027  25.606  0.00  0.00    +0.023 A 
ENDBRANCH   4  13
BRANCH   1  19
ATOM     19  O   UNL     1       8.578  -2.317  22.078  0.00  0.00    -0.475 OA
BRANCH  19  20
ATOM     20  C   UNL     1       9.594  -1.873  22.985  0.00  0.00    +0.234 C 
BRANCH  20  21
ATOM     21  C   UNL     1      10.183  -0.554  22.461  0.00  0.00    +0.027 C 
ATOM     22  C   UNL     1      10.737   0.307  23.606  0.00  0.00    +0.007 C 
ATOM     23  C   UNL     1       9.639   0.913  24.480  0.00  0.00    +0.000 C 
ATOM     24  C   UNL     1       8.620   1.688  23.650  0.00  0.00    +0.000 C 
ATOM     25  C   UNL     1       8.051   0.854  22.505  0.00  0.00    +0.000 C 
ATOM     26  C   UNL     1       9.156   0.247  21.641  0.00  0.00    +0.007 C 
ENDBRANCH  20  21
ENDBRANCH  19  20
ENDBRANCH   1  19
TORSDOF 4
ENDMDL
