MODEL 1
REMARK VINA RESULT:      -7.0      0.000      0.000
REMARK  Name = 
REMARK  3 active torsions:
REMARK  status: ('A' for Active; 'I' for Inactive)
REMARK    1  A    between atoms: O_1  and  C_2
REMARK    2  A    between atoms: C_2  and  C_4
REMARK    3  A    between atoms: C_11  and  C_13
REMARK                            x       y       z     vdW  Elec       q    Type
REMARK                         _______ _______ _______ _____ _____    ______ ____
ROOT
ATOM      1  C   UNL     1       8.949   0.141  22.353  0.00  0.00    +0.062 A 
ATOM      2  C   UNL     1      10.166  -0.536  22.562  0.00  0.00    +0.017 A 
ATOM      3  C   UNL     1      10.181  -1.860  23.026  0.00  0.00    +0.032 A 
ATOM      4  C   UNL     1       8.954  -2.492  23.266  0.00  0.00    +0.110 A 
ATOM      5  N   UNL     1       8.672  -3.756  23.700  0.00  0.00    -0.209 NA
ATOM      6  C   UNL     1       7.353  -3.786  23.791  0.00  0.00    +0.231 A 
ATOM      7  O   UNL     1       6.745  -2.610  23.411  0.00  0.00    -0.435 OA
ATOM      8  C   UNL     1       7.780  -1.792  23.058  0.00  0.00    +0.156 A 
ATOM      9  C   UNL     1       7.712  -0.485  22.589  0.00  0.00    +0.063 A 
ENDROOT
BRANCH   6  10
ATOM     10  C   UNL     1       6.489  -4.838  24.338  0.00  0.00    +0.073 A 
ATOM     11  C   UNL     1       5.715  -5.689  23.520  0.00  0.00    +0.055 A 
ATOM     12 CL   UNL     1       5.796  -5.679  21.789  0.00  0.00    -0.083 Cl
ATOM     13  C   UNL     1       4.851  -6.647  24.079  0.00  0.00    +0.021 A 
ATOM     14  C   UNL     1       4.756  -6.797  25.458  0.00  0.00    +0.003 A 
ATOM     15  C   UNL     1       5.537  -6.000  26.282  0.00  0.00    +0.021 A 
ATOM     16  C   UNL     1       6.394  -5.032  25.734  0.00  0.00    +0.055 A 
ATOM     17 CL   UNL     1       7.281  -4.093  26.895  0.00  0.00    -0.083 Cl
ENDBRANCH   6  10
BRANCH   1  18
ATOM     18  C   UNL     1       8.927   1.529  21.828  0.00  0.00    +0.337 C 
ATOM     19  O   UNL     1       7.896   2.166  21.685  0.00  0.00    -0.245 OA
BRANCH  18  20
ATOM     20  O   UNL     1      10.150   2.035  21.562  0.00  0.00    -0.477 OA
ATOM     21  H   UNL     1      10.276   2.972  21.796  0.00  0.00    +0.295 HD
ENDBRANCH  18  20
ENDBRANCH   1  18
TORSDOF 3
ENDMDL
MODEL 2
REMARK VINA RESULT:      -6.9      0.108      2.060
REMARK  Name = 
REMARK  3 active torsions:
REMARK  status: ('A' for Active; 'I' for Inactive)
REMARK    1  A    between atoms: O_1  and  C_2
REMARK    2  A    between atoms: C_2  and  C_4
REMARK    3  A    between atoms: C_11  and  C_13
REMARK                            x       y       z     vdW  Elec       q    Type
REMARK                         _______ _______ _______ _____ _____    ______ ____
ROOT
ATOM      1  C   UNL     1       8.955   0.122  22.324  0.00  0.00    +0.062 A 
ATOM      2  C   UNL     1      10.160  -0.575  22.535  0.00  0.00    +0.017 A 
ATOM      3  C   UNL     1      10.154  -1.891  23.021  0.00  0.00    +0.032 A 
ATOM      4  C   UNL     1       8.918  -2.496  23.279  0.00  0.00    +0.110 A 
ATOM      5  N   UNL     1       8.615  -3.747  23.736  0.00  0.00    -0.209 NA
ATOM      6  C   UNL     1       7.296  -3.750  23.837  0.00  0.00    +0.231 A 
ATOM      7  O   UNL     1       6.708  -2.569  23.442  0.00  0.00    -0.435 OA
ATOM      8  C   UNL     1       7.756  -1.778  23.069  0.00  0.00    +0.156 A 
ATOM      9  C   UNL     1       7.708  -0.477  22.580  0.00  0.00    +0.063 A 
ENDROOT
BRANCH   6  10
ATOM     10  C   UNL     1       6.417  -4.777  24.407  0.00  0.00    +0.073 A 
ATOM     11  C   UNL     1       6.279  -4.974  25.798  0.00  0.00    +0.055 A 
ATOM     12 CL   UNL     1       7.020  -3.950  26.984  0.00  0.00    -0.083 Cl
ATOM     13  C   UNL     1       5.475  -6.008  26.310  0.00  0.00    +0.021 A 
ATOM     14  C   UNL     1       4.774  -6.850  25.455  0.00  0.00    +0.003 A 
ATOM     15  C   UNL     1       4.861  -6.651  24.084  0.00  0.00    +0.021 A 
ATOM     16  C   UNL     1       5.670  -5.629  23.563  0.00  0.00    +0.055 A 
ATOM     17 CL   UNL     1       5.700  -5.527  21.830  0.00  0.00    -0.083 Cl
ENDBRANCH   6  10
BRANCH   1  18
ATOM     18  C   UNL     1       8.955   1.501  21.777  0.00  0.00    +0.337 C 
ATOM     19  O   UNL     1       7.930   2.121  21.545  0.00  0.00    -0.245 OA
BRANCH  18  20
ATOM     20  O   UNL     1      10.188   2.021  21.599  0.00  0.00    -0.477 OA
ATOM     21  H   UNL     1      10.277   2.644  20.854  0.00  0.00    +0.295 HD
ENDBRANCH  18  20
ENDBRANCH   1  18
TORSDOF 3
ENDMDL
MODEL 3
REMARK VINA RESULT:      -6.6      3.135      6.779
REMARK  Name = 
REMARK  3 active torsions:
REMARK  status: ('A' for Active; 'I' for Inactive)
REMARK    1  A    between atoms: O_1  and  C_2
REMARK    2  A    between atoms: C_2  and  C_4
REMARK    3  A    between atoms: C_11  and  C_13
REMARK                            x       y       z     vdW  Elec       q    Type
REMARK                         _______ _______ _______ _____ _____    ______ ____
ROOT
ATOM      1  C   UNL     1       6.952  -4.662  22.382  0.00  0.00    +0.062 A 
ATOM      2  C   UNL     1       7.827  -5.085  23.401  0.00  0.00    +0.017 A 
ATOM      3  C   UNL     1       8.484  -4.152  24.217  0.00  0.00    +0.032 A 
ATOM      4  C   UNL     1       8.238  -2.791  23.997  0.00  0.00    +0.110 A 
ATOM      5  N   UNL     1       8.719  -1.683  24.635  0.00  0.00    -0.209 NA
ATOM      6  C   UNL     1       8.188  -0.667  23.976  0.00  0.00    +0.231 A 
ATOM      7  O   UNL     1       7.355  -1.049  22.948  0.00  0.00    -0.435 OA
ATOM      8  C   UNL     1       7.380  -2.413  22.982  0.00  0.00    +0.156 A 
ATOM      9  C   UNL     1       6.697  -3.299  22.154  0.00  0.00    +0.063 A 
ENDROOT
BRANCH   6  10
ATOM     10  C   UNL     1       8.455   0.768  24.122  0.00  0.00    +0.073 A 
ATOM     11  C   UNL     1       7.965   1.528  25.205  0.00  0.00    +0.055 A 
ATOM     12 CL   UNL     1       7.110   0.835  26.546  0.00  0.00    -0.083 Cl
ATOM     13  C   UNL     1       8.188   2.914  25.283  0.00  0.00    +0.021 A 
ATOM     14  C   UNL     1       8.923   3.569  24.302  0.00  0.00    +0.003 A 
ATOM     15  C   UNL     1       9.451   2.837  23.247  0.00  0.00    +0.021 A 
ATOM     16  C   UNL     1       9.223   1.455  23.155  0.00  0.00    +0.055 A 
ATOM     17 CL   UNL     1       9.921   0.686  21.763  0.00  0.00    -0.083 Cl
ENDBRANCH   6  10
BRANCH   1  18
ATOM     18  C   UNL     1       6.228  -5.646  21.540  0.00  0.00    +0.337 C 
ATOM     19  O   UNL     1       5.938  -5.433  20.374  0.00  0.00    -0.245 OA
BRANCH  18  20
ATOM     20  O   UNL     1       5.955  -6.811  22.166  0.00  0.00    -0.477 OA
ATOM     21  H   UNL     1       6.275  -7.614  21.717  0.00  0.00    +0.295 HD
ENDBRANCH  18  20
ENDBRANCH   1  18
TORSDOF 3
ENDMDL
MODEL 4
REMARK VINA RESULT:      -6.6      3.146      6.585
REMARK  Name = 
REMARK  3 active torsions:
REMARK  status: ('A' for Active; 'I' for Inactive)
REMARK    1  A    between atoms: O_1  and  C_2
REMARK    2  A    between atoms: C_2  and  C_4
REMARK    3  A    between atoms: C_11  and  C_13
REMARK                            x       y       z     vdW  Elec       q    Type
REMARK                         _______ _______ _______ _____ _____    ______ ____
ROOT
ATOM      1  C   UNL     1       6.920  -4.675  22.392  0.00  0.00    +0.062 A 
ATOM      2  C   UNL     1       7.816  -5.085  23.399  0.00  0.00    +0.017 A 
ATOM      3  C   UNL     1       8.482  -4.142  24.195  0.00  0.00    +0.032 A 
ATOM      4  C   UNL     1       8.224  -2.784  23.970  0.00  0.00    +0.110 A 
ATOM      5  N   UNL     1       8.710  -1.668  24.590  0.00  0.00    -0.209 NA
ATOM      6  C   UNL     1       8.162  -0.660  23.933  0.00  0.00    +0.231 A 
ATOM      7  O   UNL     1       7.313  -1.055  22.922  0.00  0.00    -0.435 OA
ATOM      8  C   UNL     1       7.346  -2.419  22.966  0.00  0.00    +0.156 A 
ATOM      9  C   UNL     1       6.654  -3.315  22.158  0.00  0.00    +0.063 A 
ENDROOT
BRANCH   6  10
ATOM     10  C   UNL     1       8.424   0.777  24.062  0.00  0.00    +0.073 A 
ATOM     11  C   UNL     1       9.255   1.484  23.166  0.00  0.00    +0.055 A 
ATOM     12 CL   UNL     1       9.948   0.771  21.746  0.00  0.00    -0.083 Cl
ATOM     13  C   UNL     1       9.534   2.849  23.355  0.00  0.00    +0.021 A 
ATOM     14  C   UNL     1       8.976   3.545  24.420  0.00  0.00    +0.003 A 
ATOM     15  C   UNL     1       8.123   2.883  25.292  0.00  0.00    +0.021 A 
ATOM     16  C   UNL     1       7.847   1.517  25.119  0.00  0.00    +0.055 A 
ATOM     17 CL   UNL     1       6.789   0.824  26.308  0.00  0.00    -0.083 Cl
ENDBRANCH   6  10
BRANCH   1  18
ATOM     18  C   UNL     1       6.187  -5.670  21.571  0.00  0.00    +0.337 C 
ATOM     19  O   UNL     1       5.945  -5.501  20.387  0.00  0.00    -0.245 OA
BRANCH  18  20
ATOM     20  O   UNL     1       5.847  -6.792  22.240  0.00  0.00    -0.477 OA
ATOM     21  H   UNL     1       6.559  -7.448  22.349  0.00  0.00    +0.295 HD
ENDBRANCH  18  20
ENDBRANCH   1  18
TORSDOF 3
ENDMDL
MODEL 5
REMARK VINA RESULT:      -6.6      4.419      8.272
REMARK  Name = 
REMARK  3 active torsions:
REMARK  status: ('A' for Active; 'I' for Inactive)
REMARK    1  A    between atoms: O_1  and  C_2
REMARK    2  A    between atoms: C_2  and  C_4
REMARK    3  A    between atoms: C_11  and  C_13
REMARK                            x       y       z     vdW  Elec       q    Type
REMARK                         _______ _______ _______ _____ _____    ______ ____
ROOT
ATOM      1  C   UNL     1       9.457  -1.931  23.880  0.00  0.00    +0.062 A 
ATOM      2  C   UNL     1       9.664  -1.841  22.490  0.00  0.00    +0.017 A 
ATOM      3  C   UNL     1       9.816  -0.594  21.865  0.00  0.00    +0.032 A 
ATOM      4  C   UNL     1       9.766   0.556  22.662  0.00  0.00    +0.110 A 
ATOM      5  N   UNL     1       9.893   1.876  22.333  0.00  0.00    -0.209 NA
ATOM      6  C   UNL     1       9.711   2.519  23.474  0.00  0.00    +0.231 A 
ATOM      7  O   UNL     1       9.496   1.687  24.550  0.00  0.00    -0.435 OA
ATOM      8  C   UNL     1       9.551   0.429  24.022  0.00  0.00    +0.156 A 
ATOM      9  C   UNL     1       9.406  -0.782  24.689  0.00  0.00    +0.063 A 
ENDROOT
BRANCH   6  10
ATOM     10  C   UNL     1       9.597   3.962  23.711  0.00  0.00    +0.073 A 
ATOM     11  C   UNL     1      10.717   4.821  23.736  0.00  0.00    +0.055 A 
ATOM     12 CL   UNL     1      12.327   4.298  23.361  0.00  0.00    -0.083 Cl
ATOM     13  C   UNL     1      10.578   6.189  24.027  0.00  0.00    +0.021 A 
ATOM     14  C   UNL     1       9.325   6.738  24.274  0.00  0.00    +0.003 A 
ATOM     15  C   UNL     1       8.204   5.923  24.215  0.00  0.00    +0.021 A 
ATOM     16  C   UNL     1       8.333   4.552  23.937  0.00  0.00    +0.055 A 
ATOM     17 CL   UNL     1       6.844   3.660  23.929  0.00  0.00    -0.083 Cl
ENDBRANCH   6  10
BRANCH   1  18
ATOM     18  C   UNL     1       9.331  -3.249  24.550  0.00  0.00    +0.337 C 
ATOM     19  O   UNL     1      10.195  -4.109  24.485  0.00  0.00    -0.245 OA
BRANCH  18  20
ATOM     20  O   UNL     1       8.197  -3.395  25.268  0.00  0.00    -0.477 OA
ATOM     21  H   UNL     1       7.386  -3.058  24.845  0.00  0.00    +0.295 HD
ENDBRANCH  18  20
ENDBRANCH   1  18
TORSDOF 3
ENDMDL
MODEL 6
REMARK VINA RESULT:      -6.6      2.762      6.465
REMARK  Name = 
REMARK  3 active torsions:
REMARK  status: ('A' for Active; 'I' for Inactive)
REMARK    1  A    between atoms: O_1  and  C_2
REMARK    2  A    between atoms: C_2  and  C_4
REMARK    3  A    between atoms: C_11  and  C_13
REMARK                            x       y       z     vdW  Elec       q    Type
REMARK                         _______ _______ _______ _____ _____    ______ ____
ROOT
ATOM      1  C   UNL     1       4.911  -5.336  23.072  0.00  0.00    +0.062 A 
ATOM      2  C   UNL     1       5.987  -6.131  22.632  0.00  0.00    +0.017 A 
ATOM      3  C   UNL     1       7.299  -5.635  22.645  0.00  0.00    +0.032 A 
ATOM      4  C   UNL     1       7.510  -4.333  23.115  0.00  0.00    +0.110 A 
ATOM      5  N   UNL     1       8.661  -3.609  23.251  0.00  0.00    -0.209 NA
ATOM      6  C   UNL     1       8.257  -2.430  23.695  0.00  0.00    +0.231 A 
ATOM      7  O   UNL     1       6.896  -2.347  23.887  0.00  0.00    -0.435 OA
ATOM      8  C   UNL     1       6.429  -3.579  23.530  0.00  0.00    +0.156 A 
ATOM      9  C   UNL     1       5.112  -4.029  23.547  0.00  0.00    +0.063 A 
ENDROOT
BRANCH   6  10
ATOM     10  C   UNL     1       9.036  -1.203  23.892  0.00  0.00    +0.073 A 
ATOM     11  C   UNL     1       9.562  -0.454  22.817  0.00  0.00    +0.055 A 
ATOM     12 CL   UNL     1       9.238  -0.818  21.154  0.00  0.00    -0.083 Cl
ATOM     13  C   UNL     1      10.356   0.685  23.043  0.00  0.00    +0.021 A 
ATOM     14  C   UNL     1      10.624   1.116  24.336  0.00  0.00    +0.003 A 
ATOM     15  C   UNL     1      10.086   0.420  25.409  0.00  0.00    +0.021 A 
ATOM     16  C   UNL     1       9.301  -0.724  25.195  0.00  0.00    +0.055 A 
ATOM     17 CL   UNL     1       8.726  -1.503  26.637  0.00  0.00    -0.083 Cl
ENDBRANCH   6  10
BRANCH   1  18
ATOM     18  C   UNL     1       3.527  -5.870  23.094  0.00  0.00    +0.337 C 
ATOM     19  O   UNL     1       2.544  -5.167  22.919  0.00  0.00    -0.245 OA
BRANCH  18  20
ATOM     20  O   UNL     1       3.454  -7.204  23.285  0.00  0.00    -0.477 OA
ATOM     21  H   UNL     1       3.837  -7.530  24.119  0.00  0.00    +0.295 HD
ENDBRANCH  18  20
ENDBRANCH   1  18
TORSDOF 3
ENDMDL
MODEL 7
REMARK VINA RESULT:      -6.5      3.712      5.725
REMARK  Name = 
REMARK  3 active torsions:
REMARK  status: ('A' for Active; 'I' for Inactive)
REMARK    1  A    between atoms: O_1  and  C_2
REMARK    2  A    between atoms: C_2  and  C_4
REMARK    3  A    between atoms: C_11  and  C_13
REMARK                            x       y       z     vdW  Elec       q    Type
REMARK                         _______ _______ _______ _____ _____    ______ ____
ROOT
ATOM      1  C   UNL     1      11.438   4.674  23.539  0.00  0.00    +0.062 A 
ATOM      2  C   UNL     1      10.171   5.157  23.923  0.00  0.00    +0.017 A 
ATOM      3  C   UNL     1       9.127   4.271  24.228  0.00  0.00    +0.032 A 
ATOM      4  C   UNL     1       9.382   2.896  24.151  0.00  0.00    +0.110 A 
ATOM      5  N   UNL     1       8.573   1.823  24.400  0.00  0.00    -0.209 NA
ATOM      6  C   UNL     1       9.324   0.772  24.119  0.00  0.00    +0.231 A 
ATOM      7  O   UNL     1      10.602   1.096  23.720  0.00  0.00    -0.435 OA
ATOM      8  C   UNL     1      10.634   2.460  23.762  0.00  0.00    +0.156 A 
ATOM      9  C   UNL     1      11.704   3.296  23.460  0.00  0.00    +0.063 A 
ENDROOT
BRANCH   6  10
ATOM     10  C   UNL     1       8.945  -0.644  24.066  0.00  0.00    +0.073 A 
ATOM     11  C   UNL     1       8.676  -1.404  25.224  0.00  0.00    +0.055 A 
ATOM     12 CL   UNL     1       8.630  -0.726  26.819  0.00  0.00    -0.083 Cl
ATOM     13  C   UNL     1       8.375  -2.775  25.142  0.00  0.00    +0.021 A 
ATOM     14  C   UNL     1       8.312  -3.414  23.909  0.00  0.00    +0.003 A 
ATOM     15  C   UNL     1       8.533  -2.679  22.752  0.00  0.00    +0.021 A 
ATOM     16  C   UNL     1       8.845  -1.312  22.825  0.00  0.00    +0.055 A 
ATOM     17 CL   UNL     1       9.125  -0.540  21.295  0.00  0.00    -0.083 Cl
ENDBRANCH   6  10
BRANCH   1  18
ATOM     18  C   UNL     1      12.555   5.607  23.250  0.00  0.00    +0.337 C 
ATOM     19  O   UNL     1      13.069   5.702  22.147  0.00  0.00    -0.245 OA
BRANCH  18  20
ATOM     20  O   UNL     1      12.924   6.367  24.303  0.00  0.00    -0.477 OA
ATOM     21  H   UNL     1      13.464   7.149  24.088  0.00  0.00    +0.295 HD
ENDBRANCH  18  20
ENDBRANCH   1  18
TORSDOF 3
ENDMDL
MODEL 8
REMARK VINA RESULT:      -6.5      3.694      5.349
REMARK  Name = 
REMARK  3 active torsions:
REMARK  status: ('A' for Active; 'I' for Inactive)
REMARK    1  A    between atoms: O_1  and  C_2
REMARK    2  A    between atoms: C_2  and  C_4
REMARK    3  A    between atoms: C_11  and  C_13
REMARK                            x       y       z     vdW  Elec       q    Type
REMARK                         _______ _______ _______ _____ _____    ______ ____
ROOT
ATOM      1  C   UNL     1      11.400   4.662  23.564  0.00  0.00    +0.062 A 
ATOM      2  C   UNL     1      10.139   5.137  23.973  0.00  0.00    +0.017 A 
ATOM      3  C   UNL     1       9.099   4.246  24.277  0.00  0.00    +0.032 A 
ATOM      4  C   UNL     1       9.352   2.873  24.172  0.00  0.00    +0.110 A 
ATOM      5  N   UNL     1       8.546   1.796  24.412  0.00  0.00    -0.209 NA
ATOM      6  C   UNL     1       9.293   0.750  24.101  0.00  0.00    +0.231 A 
ATOM      7  O   UNL     1      10.566   1.080  23.691  0.00  0.00    -0.435 OA
ATOM      8  C   UNL     1      10.599   2.444  23.758  0.00  0.00    +0.156 A 
ATOM      9  C   UNL     1      11.665   3.285  23.456  0.00  0.00    +0.063 A 
ENDROOT
BRANCH   6  10
ATOM     10  C   UNL     1       8.913  -0.665  24.027  0.00  0.00    +0.073 A 
ATOM     11  C   UNL     1       8.783  -1.356  22.803  0.00  0.00    +0.055 A 
ATOM     12 CL   UNL     1       9.182  -0.657  21.267  0.00  0.00    -0.083 Cl
ATOM     13  C   UNL     1       8.358  -2.695  22.765  0.00  0.00    +0.021 A 
ATOM     14  C   UNL     1       8.078  -3.383  23.939  0.00  0.00    +0.003 A 
ATOM     15  C   UNL     1       8.238  -2.739  25.158  0.00  0.00    +0.021 A 
ATOM     16  C   UNL     1       8.651  -1.398  25.206  0.00  0.00    +0.055 A 
ATOM     17 CL   UNL     1       8.773  -0.723  26.801  0.00  0.00    -0.083 Cl
ENDBRANCH   6  10
BRANCH   1  18
ATOM     18  C   UNL     1      12.514   5.600  23.276  0.00  0.00    +0.337 C 
ATOM     19  O   UNL     1      13.019   5.707  22.171  0.00  0.00    -0.245 OA
BRANCH  18  20
ATOM     20  O   UNL     1      12.889   6.349  24.334  0.00  0.00    -0.477 OA
ATOM     21  H   UNL     1      12.222   6.447  25.038  0.00  0.00    +0.295 HD
ENDBRANCH  18  20
ENDBRANCH   1  18
TORSDOF 3
ENDMDL
MODEL 9
REMARK VINA RESULT:      -6.5      4.353      8.181
REMARK  Name = 
REMARK  3 active torsions:
REMARK  status: ('A' for Active; 'I' for Inactive)
REMARK    1  A    between atoms: O_1  and  C_2
REMARK    2  A    between atoms: C_2  and  C_4
REMARK    3  A    between atoms: C_11  and  C_13
REMARK                            x       y       z     vdW  Elec       q    Type
REMARK                         _______ _______ _______ _____ _____    ______ ____
ROOT
ATOM      1  C   UNL     1       9.380  -1.994  23.705  0.00  0.00    +0.062 A 
ATOM      2  C   UNL     1       9.594  -1.860  22.319  0.00  0.00    +0.017 A 
ATOM      3  C   UNL     1       9.753  -0.594  21.736  0.00  0.00    +0.032 A 
ATOM      4  C   UNL     1       9.703   0.530  22.569  0.00  0.00    +0.110 A 
ATOM      5  N   UNL     1       9.836   1.859  22.283  0.00  0.00    -0.209 NA
ATOM      6  C   UNL     1       9.651   2.466  23.444  0.00  0.00    +0.231 A 
ATOM      7  O   UNL     1       9.428   1.601  24.491  0.00  0.00    -0.435 OA
ATOM      8  C   UNL     1       9.482   0.360  23.923  0.00  0.00    +0.156 A 
ATOM      9  C   UNL     1       9.330  -0.872  24.550  0.00  0.00    +0.063 A 
ENDROOT
BRANCH   6  10
ATOM     10  C   UNL     1       9.540   3.901  23.727  0.00  0.00    +0.073 A 
ATOM     11  C   UNL     1       8.310   4.525  24.029  0.00  0.00    +0.055 A 
ATOM     12 CL   UNL     1       6.824   3.654  24.231  0.00  0.00    -0.083 Cl
ATOM     13  C   UNL     1       8.230   5.913  24.235  0.00  0.00    +0.021 A 
ATOM     14  C   UNL     1       9.369   6.706  24.170  0.00  0.00    +0.003 A 
ATOM     15  C   UNL     1      10.596   6.112  23.915  0.00  0.00    +0.021 A 
ATOM     16  C   UNL     1      10.685   4.727  23.696  0.00  0.00    +0.055 A 
ATOM     17 CL   UNL     1      12.283   4.138  23.358  0.00  0.00    -0.083 Cl
ENDBRANCH   6  10
BRANCH   1  18
ATOM     18  C   UNL     1       9.247  -3.332  24.331  0.00  0.00    +0.337 C 
ATOM     19  O   UNL     1      10.193  -4.087  24.486  0.00  0.00    -0.245 OA
BRANCH  18  20
ATOM     20  O   UNL     1       7.997  -3.622  24.748  0.00  0.00    -0.477 OA
ATOM     21  H   UNL     1       7.759  -3.284  25.631  0.00  0.00    +0.295 HD
ENDBRANCH  18  20
ENDBRANCH   1  18
TORSDOF 3
ENDMDL
