MODEL 1
REMARK VINA RESULT:      -6.3      0.000      0.000
REMARK  Name = 
REMARK  4 active torsions:
REMARK  status: ('A' for Active; 'I' for Inactive)
REMARK    1  A    between atoms: C_1  and  N_2
REMARK    2  A    between atoms: N_2  and  C_3
REMARK    3  A    between atoms: C_3  and  C_4
REMARK    4  A    between atoms: C_7  and  C_10
REMARK                            x       y       z     vdW  Elec       q    Type
REMARK                         _______ _______ _______ _____ _____    ______ ____
ROOT
ATOM      1  C   UNL     1       9.825  -0.594  22.944  0.00  0.00    -0.034 A 
ATOM      2  C   UNL     1       9.650   0.316  21.899  0.00  0.00    +0.005 A 
ATOM      3  C   UNL     1       9.982   1.663  22.067  0.00  0.00    +0.010 A 
ATOM      4  C   UNL     1      10.478   2.157  23.286  0.00  0.00    +0.003 A 
ATOM      5  C   UNL     1      10.719   1.218  24.303  0.00  0.00    +0.010 A 
ATOM      6  C   UNL     1      10.402  -0.137  24.136  0.00  0.00    +0.005 A 
ENDROOT
BRANCH   4   7
ATOM      7  C   UNL     1      10.687   3.594  23.514  0.00  0.00    +0.102 A 
ATOM      8  C   UNL     1       9.679   4.443  24.007  0.00  0.00    +0.134 A 
ATOM      9  N   UNL     1       8.354   4.253  24.353  0.00  0.00    -0.232 NA
ATOM     10  C   UNL     1       7.933   5.423  24.775  0.00  0.00    +0.198 A 
ATOM     11  N   UNL     1       8.920   6.366  24.716  0.00  0.00    -0.329 N 
ATOM     12  H   UNL     1       8.851   7.333  24.988  0.00  0.00    +0.168 HD
ATOM     13  C   UNL     1      10.043   5.760  24.230  0.00  0.00    +0.161 A 
ATOM     14  N   UNL     1      11.238   6.333  24.034  0.00  0.00    -0.216 NA
ATOM     15  C   UNL     1      12.127   5.434  23.571  0.00  0.00    +0.224 A 
ATOM     16  N   UNL     1      11.934   4.123  23.308  0.00  0.00    -0.233 NA
ENDBRANCH   4   7
BRANCH   1  17
ATOM     17  C   UNL     1       9.379  -2.029  22.783  0.00  0.00    +0.116 C 
BRANCH  17  19
ATOM     18  C   UNL     1       9.102  -3.716  24.483  0.00  0.00    +0.101 C 
ATOM     19  N   UNL     1      10.054  -2.903  23.744  0.00  0.00    -0.315 NA
ATOM     20  H   UNL     1      10.704  -3.508  23.246  0.00  0.00    +0.122 HD
ENDBRANCH  17  19
ENDBRANCH   1  17
TORSDOF 3
ENDMDL
MODEL 2
REMARK VINA RESULT:      -6.3      3.011      7.442
REMARK  Name = 
REMARK  4 active torsions:
REMARK  status: ('A' for Active; 'I' for Inactive)
REMARK    1  A    between atoms: C_1  and  N_2
REMARK    2  A    between atoms: N_2  and  C_3
REMARK    3  A    between atoms: C_3  and  C_4
REMARK    4  A    between atoms: C_7  and  C_10
REMARK                            x       y       z     vdW  Elec       q    Type
REMARK                         _______ _______ _______ _____ _____    ______ ____
ROOT
ATOM      1  C   UNL     1      10.013   0.501  22.862  0.00  0.00    -0.034 A 
ATOM      2  C   UNL     1      10.058   0.438  24.256  0.00  0.00    +0.005 A 
ATOM      3  C   UNL     1       9.800  -0.763  24.922  0.00  0.00    +0.010 A 
ATOM      4  C   UNL     1       9.467  -1.938  24.226  0.00  0.00    +0.003 A 
ATOM      5  C   UNL     1       9.499  -1.878  22.823  0.00  0.00    +0.010 A 
ATOM      6  C   UNL     1       9.771  -0.680  22.149  0.00  0.00    +0.005 A 
ENDROOT
BRANCH   4   7
ATOM      7  C   UNL     1       9.051  -3.162  24.925  0.00  0.00    +0.102 A 
ATOM      8  C   UNL     1       7.919  -3.217  25.760  0.00  0.00    +0.134 A 
ATOM      9  N   UNL     1       6.986  -2.282  26.167  0.00  0.00    -0.232 NA
ATOM     10  C   UNL     1       6.144  -2.940  26.931  0.00  0.00    +0.198 A 
ATOM     11  N   UNL     1       6.487  -4.258  27.042  0.00  0.00    -0.329 N 
ATOM     12  H   UNL     1       6.000  -4.969  27.562  0.00  0.00    +0.168 HD
ATOM     13  C   UNL     1       7.616  -4.455  26.300  0.00  0.00    +0.161 A 
ATOM     14  N   UNL     1       8.267  -5.614  26.130  0.00  0.00    -0.216 NA
ATOM     15  C   UNL     1       9.325  -5.451  25.313  0.00  0.00    +0.224 A 
ATOM     16  N   UNL     1       9.748  -4.321  24.705  0.00  0.00    -0.233 NA
ENDBRANCH   4   7
BRANCH   1  17
ATOM     17  C   UNL     1      10.204   1.823  22.155  0.00  0.00    +0.116 C 
BRANCH  17  19
ATOM     18  C   UNL     1       7.959   2.703  22.136  0.00  0.00    +0.101 C 
ATOM     19  N   UNL     1       9.040   2.155  21.332  0.00  0.00    -0.315 NA
ATOM     20  H   UNL     1       9.314   2.833  20.624  0.00  0.00    +0.122 HD
ENDBRANCH  17  19
ENDBRANCH   1  17
TORSDOF 3
ENDMDL
MODEL 3
REMARK VINA RESULT:      -6.1      1.961      7.460
REMARK  Name = 
REMARK  4 active torsions:
REMARK  status: ('A' for Active; 'I' for Inactive)
REMARK    1  A    between atoms: C_1  and  N_2
REMARK    2  A    between atoms: N_2  and  C_3
REMARK    3  A    between atoms: C_3  and  C_4
REMARK    4  A    between atoms: C_7  and  C_10
REMARK                            x       y       z     vdW  Elec       q    Type
REMARK                         _______ _______ _______ _____ _____    ______ ____
ROOT
ATOM      1  C   UNL     1      10.276   1.485  23.407  0.00  0.00    -0.034 A 
ATOM      2  C   UNL     1      10.179   0.882  24.662  0.00  0.00    +0.005 A 
ATOM      3  C   UNL     1       9.854  -0.473  24.776  0.00  0.00    +0.010 A 
ATOM      4  C   UNL     1       9.595  -1.269  23.647  0.00  0.00    +0.003 A 
ATOM      5  C   UNL     1       9.771  -0.669  22.390  0.00  0.00    +0.010 A 
ATOM      6  C   UNL     1      10.109   0.685  22.268  0.00  0.00    +0.005 A 
ENDROOT
BRANCH   4   7
ATOM      7  C   UNL     1       9.110  -2.652  23.768  0.00  0.00    +0.102 A 
ATOM      8  C   UNL     1       7.971  -3.122  23.088  0.00  0.00    +0.134 A 
ATOM      9  N   UNL     1       7.051  -2.533  22.242  0.00  0.00    -0.232 NA
ATOM     10  C   UNL     1       6.223  -3.493  21.903  0.00  0.00    +0.198 A 
ATOM     11  N   UNL     1       6.559  -4.680  22.491  0.00  0.00    -0.329 N 
ATOM     12  H   UNL     1       6.088  -5.564  22.385  0.00  0.00    +0.168 HD
ATOM     13  C   UNL     1       7.673  -4.465  23.249  0.00  0.00    +0.161 A 
ATOM     14  N   UNL     1       8.333  -5.378  23.976  0.00  0.00    -0.216 NA
ATOM     15  C   UNL     1       9.404  -4.826  24.576  0.00  0.00    +0.224 A 
ATOM     16  N   UNL     1       9.831  -3.545  24.515  0.00  0.00    -0.233 NA
ENDBRANCH   4   7
BRANCH   1  17
ATOM     17  C   UNL     1      10.538   2.969  23.296  0.00  0.00    +0.116 C 
BRANCH  17  19
ATOM     18  C   UNL     1       8.915   4.493  24.221  0.00  0.00    +0.101 C 
ATOM     19  N   UNL     1       9.297   3.708  23.058  0.00  0.00    -0.315 NA
ATOM     20  H   UNL     1       9.424   4.325  22.258  0.00  0.00    +0.122 HD
ENDBRANCH  17  19
ENDBRANCH   1  17
TORSDOF 3
ENDMDL
MODEL 4
REMARK VINA RESULT:      -6.1      3.118      7.851
REMARK  Name = 
REMARK  4 active torsions:
REMARK  status: ('A' for Active; 'I' for Inactive)
REMARK    1  A    between atoms: C_1  and  N_2
REMARK    2  A    between atoms: N_2  and  C_3
REMARK    3  A    between atoms: C_3  and  C_4
REMARK    4  A    between atoms: C_7  and  C_10
REMARK                            x       y       z     vdW  Elec       q    Type
REMARK                         _______ _______ _______ _____ _____    ______ ____
ROOT
ATOM      1  C   UNL     1       9.951   0.408  23.381  0.00  0.00    -0.034 A 
ATOM      2  C   UNL     1       9.387   0.411  24.659  0.00  0.00    +0.005 A 
ATOM      3  C   UNL     1       8.942  -0.778  25.242  0.00  0.00    +0.010 A 
ATOM      4  C   UNL     1       9.022  -2.008  24.567  0.00  0.00    +0.003 A 
ATOM      5  C   UNL     1       9.659  -2.008  23.314  0.00  0.00    +0.010 A 
ATOM      6  C   UNL     1      10.120  -0.821  22.730  0.00  0.00    +0.005 A 
ENDROOT
BRANCH   4   7
ATOM      7  C   UNL     1       8.423  -3.234  25.114  0.00  0.00    +0.102 A 
ATOM      8  C   UNL     1       7.376  -3.922  24.473  0.00  0.00    +0.134 A 
ATOM      9  N   UNL     1       6.649  -3.698  23.319  0.00  0.00    -0.232 NA
ATOM     10  C   UNL     1       5.816  -4.709  23.229  0.00  0.00    +0.198 A 
ATOM     11  N   UNL     1       5.965  -5.580  24.271  0.00  0.00    -0.329 N 
ATOM     12  H   UNL     1       5.452  -6.432  24.427  0.00  0.00    +0.168 HD
ATOM     13  C   UNL     1       6.956  -5.097  25.076  0.00  0.00    +0.161 A 
ATOM     14  N   UNL     1       7.421  -5.663  26.197  0.00  0.00    -0.216 NA
ATOM     15  C   UNL     1       8.421  -4.930  26.723  0.00  0.00    +0.224 A 
ATOM     16  N   UNL     1       8.946  -3.775  26.258  0.00  0.00    -0.233 NA
ENDBRANCH   4   7
BRANCH   1  17
ATOM     17  C   UNL     1      10.345   1.709  22.722  0.00  0.00    +0.116 C 
BRANCH  17  19
ATOM     18  C   UNL     1       8.199   2.189  21.733  0.00  0.00    +0.101 C 
ATOM     19  N   UNL     1       9.604   1.917  21.476  0.00  0.00    -0.315 NA
ATOM     20  H   UNL     1      10.015   2.698  20.969  0.00  0.00    +0.122 HD
ENDBRANCH  17  19
ENDBRANCH   1  17
TORSDOF 3
ENDMDL
MODEL 5
REMARK VINA RESULT:      -6.1      1.825      7.588
REMARK  Name = 
REMARK  4 active torsions:
REMARK  status: ('A' for Active; 'I' for Inactive)
REMARK    1  A    between atoms: C_1  and  N_2
REMARK    2  A    between atoms: N_2  and  C_3
REMARK    3  A    between atoms: C_3  and  C_4
REMARK    4  A    between atoms: C_7  and  C_10
REMARK                            x       y       z     vdW  Elec       q    Type
REMARK                         _______ _______ _______ _____ _____    ______ ____
ROOT
ATOM      1  C   UNL     1      10.220   1.662  23.251  0.00  0.00    -0.034 A 
ATOM      2  C   UNL     1       9.976   0.924  24.411  0.00  0.00    +0.005 A 
ATOM      3  C   UNL     1       9.416  -0.354  24.335  0.00  0.00    +0.010 A 
ATOM      4  C   UNL     1       9.061  -0.935  23.105  0.00  0.00    +0.003 A 
ATOM      5  C   UNL     1       9.382  -0.213  21.943  0.00  0.00    +0.010 A 
ATOM      6  C   UNL     1       9.955   1.063  22.012  0.00  0.00    +0.005 A 
ENDROOT
BRANCH   4   7
ATOM      7  C   UNL     1       8.339  -2.213  23.030  0.00  0.00    +0.102 A 
ATOM      8  C   UNL     1       8.736  -3.356  23.749  0.00  0.00    +0.134 A 
ATOM      9  N   UNL     1       9.787  -3.631  24.603  0.00  0.00    -0.232 NA
ATOM     10  C   UNL     1       9.610  -4.875  24.985  0.00  0.00    +0.198 A 
ATOM     11  N   UNL     1       8.494  -5.423  24.418  0.00  0.00    -0.329 N 
ATOM     12  H   UNL     1       8.140  -6.356  24.556  0.00  0.00    +0.168 HD
ATOM     13  C   UNL     1       7.921  -4.469  23.627  0.00  0.00    +0.161 A 
ATOM     14  N   UNL     1       6.799  -4.599  22.907  0.00  0.00    -0.216 NA
ATOM     15  C   UNL     1       6.507  -3.450  22.268  0.00  0.00    +0.224 A 
ATOM     16  N   UNL     1       7.191  -2.284  22.287  0.00  0.00    -0.233 NA
ENDBRANCH   4   7
BRANCH   1  17
ATOM     17  C   UNL     1      10.740   3.077  23.347  0.00  0.00    +0.116 C 
BRANCH  17  19
ATOM     18  C   UNL     1       9.239   4.657  24.378  0.00  0.00    +0.101 C 
ATOM     19  N   UNL     1       9.668   4.050  23.128  0.00  0.00    -0.315 NA
ATOM     20  H   UNL     1       9.999   4.775  22.494  0.00  0.00    +0.122 HD
ENDBRANCH  17  19
ENDBRANCH   1  17
TORSDOF 3
ENDMDL
MODEL 6
REMARK VINA RESULT:      -6.0      4.252      6.381
REMARK  Name = 
REMARK  4 active torsions:
REMARK  status: ('A' for Active; 'I' for Inactive)
REMARK    1  A    between atoms: C_1  and  N_2
REMARK    2  A    between atoms: N_2  and  C_3
REMARK    3  A    between atoms: C_3  and  C_4
REMARK    4  A    between atoms: C_7  and  C_10
REMARK                            x       y       z     vdW  Elec       q    Type
REMARK                         _______ _______ _______ _____ _____    ______ ____
ROOT
ATOM      1  C   UNL     1       5.233  -5.030  22.980  0.00  0.00    -0.034 A 
ATOM      2  C   UNL     1       4.915  -3.672  22.903  0.00  0.00    +0.005 A 
ATOM      3  C   UNL     1       5.923  -2.705  22.893  0.00  0.00    +0.010 A 
ATOM      4  C   UNL     1       7.283  -3.052  22.980  0.00  0.00    +0.003 A 
ATOM      5  C   UNL     1       7.592  -4.423  22.980  0.00  0.00    +0.010 A 
ATOM      6  C   UNL     1       6.585  -5.398  22.977  0.00  0.00    +0.005 A 
ENDROOT
BRANCH   4   7
ATOM      7  C   UNL     1       8.336  -2.037  23.118  0.00  0.00    +0.102 A 
ATOM      8  C   UNL     1       8.626  -1.400  24.339  0.00  0.00    +0.134 A 
ATOM      9  N   UNL     1       8.085  -1.476  25.609  0.00  0.00    -0.232 NA
ATOM     10  C   UNL     1       8.801  -0.655  26.343  0.00  0.00    +0.198 A 
ATOM     11  N   UNL     1       9.782  -0.048  25.609  0.00  0.00    -0.329 N 
ATOM     12  H   UNL     1      10.464   0.615  25.941  0.00  0.00    +0.168 HD
ATOM     13  C   UNL     1       9.688  -0.511  24.329  0.00  0.00    +0.161 A 
ATOM     14  N   UNL     1      10.477  -0.176  23.299  0.00  0.00    -0.216 NA
ATOM     15  C   UNL     1      10.118  -0.844  22.186  0.00  0.00    +0.224 A 
ATOM     16  N   UNL     1       9.119  -1.742  22.034  0.00  0.00    -0.233 NA
ENDBRANCH   4   7
BRANCH   1  17
ATOM     17  C   UNL     1       4.135  -6.063  23.083  0.00  0.00    +0.116 C 
BRANCH  17  19
ATOM     18  C   UNL     1       4.101  -7.129  25.245  0.00  0.00    +0.101 C 
ATOM     19  N   UNL     1       4.569  -7.218  23.871  0.00  0.00    -0.315 NA
ATOM     20  H   UNL     1       4.207  -8.068  23.443  0.00  0.00    +0.122 HD
ENDBRANCH  17  19
ENDBRANCH   1  17
TORSDOF 3
ENDMDL
MODEL 7
REMARK VINA RESULT:      -5.9      0.949      2.560
REMARK  Name = 
REMARK  4 active torsions:
REMARK  status: ('A' for Active; 'I' for Inactive)
REMARK    1  A    between atoms: C_1  and  N_2
REMARK    2  A    between atoms: N_2  and  C_3
REMARK    3  A    between atoms: C_3  and  C_4
REMARK    4  A    between atoms: C_7  and  C_10
REMARK                            x       y       z     vdW  Elec       q    Type
REMARK                         _______ _______ _______ _____ _____    ______ ____
ROOT
ATOM      1  C   UNL     1       9.974  -0.416  22.904  0.00  0.00    -0.034 A 
ATOM      2  C   UNL     1      10.048   0.038  24.223  0.00  0.00    +0.005 A 
ATOM      3  C   UNL     1      10.003   1.406  24.507  0.00  0.00    +0.010 A 
ATOM      4  C   UNL     1       9.904   2.370  23.489  0.00  0.00    +0.003 A 
ATOM      5  C   UNL     1       9.755   1.897  22.175  0.00  0.00    +0.010 A 
ATOM      6  C   UNL     1       9.786   0.526  21.885  0.00  0.00    +0.005 A 
ENDROOT
BRANCH   4   7
ATOM      7  C   UNL     1      10.005   3.809  23.771  0.00  0.00    +0.102 A 
ATOM      8  C   UNL     1      11.204   4.531  23.630  0.00  0.00    +0.134 A 
ATOM      9  N   UNL     1      12.493   4.184  23.271  0.00  0.00    -0.232 NA
ATOM     10  C   UNL     1      13.176   5.305  23.294  0.00  0.00    +0.198 A 
ATOM     11  N   UNL     1      12.393   6.366  23.653  0.00  0.00    -0.329 N 
ATOM     12  H   UNL     1      12.678   7.328  23.737  0.00  0.00    +0.168 HD
ATOM     13  C   UNL     1      11.131   5.893  23.870  0.00  0.00    +0.161 A 
ATOM     14  N   UNL     1      10.059   6.614  24.224  0.00  0.00    -0.216 NA
ATOM     15  C   UNL     1       8.969   5.830  24.324  0.00  0.00    +0.224 A 
ATOM     16  N   UNL     1       8.873   4.498  24.118  0.00  0.00    -0.233 NA
ENDBRANCH   4   7
BRANCH   1  17
ATOM     17  C   UNL     1      10.115  -1.889  22.600  0.00  0.00    +0.116 C 
BRANCH  17  19
ATOM     18  C   UNL     1       7.958  -2.946  22.813  0.00  0.00    +0.101 C 
ATOM     19  N   UNL     1       9.238  -2.692  23.455  0.00  0.00    -0.315 NA
ATOM     20  H   UNL     1       9.695  -3.577  23.664  0.00  0.00    +0.122 HD
ENDBRANCH  17  19
ENDBRANCH   1  17
TORSDOF 3
ENDMDL
MODEL 8
REMARK VINA RESULT:      -5.8      3.352      7.917
REMARK  Name = 
REMARK  4 active torsions:
REMARK  status: ('A' for Active; 'I' for Inactive)
REMARK    1  A    between atoms: C_1  and  N_2
REMARK    2  A    between atoms: N_2  and  C_3
REMARK    3  A    between atoms: C_3  and  C_4
REMARK    4  A    between atoms: C_7  and  C_10
REMARK                            x       y       z     vdW  Elec       q    Type
REMARK                         _______ _______ _______ _____ _____    ______ ____
ROOT
ATOM      1  C   UNL     1       7.929   1.495  22.162  0.00  0.00    -0.034 A 
ATOM      2  C   UNL     1       8.959   0.696  21.660  0.00  0.00    +0.005 A 
ATOM      3  C   UNL     1       9.032  -0.660  21.991  0.00  0.00    +0.010 A 
ATOM      4  C   UNL     1       8.096  -1.264  22.847  0.00  0.00    +0.003 A 
ATOM      5  C   UNL     1       7.024  -0.468  23.283  0.00  0.00    +0.010 A 
ATOM      6  C   UNL     1       6.937   0.889  22.945  0.00  0.00    +0.005 A 
ENDROOT
BRANCH   4   7
ATOM      7  C   UNL     1       8.252  -2.649  23.314  0.00  0.00    +0.102 A 
ATOM      8  C   UNL     1       7.535  -3.726  22.760  0.00  0.00    +0.134 A 
ATOM      9  N   UNL     1       6.571  -3.826  21.774  0.00  0.00    -0.232 NA
ATOM     10  C   UNL     1       6.298  -5.107  21.682  0.00  0.00    +0.198 A 
ATOM     11  N   UNL     1       7.037  -5.845  22.564  0.00  0.00    -0.329 N 
ATOM     12  H   UNL     1       7.017  -6.845  22.683  0.00  0.00    +0.168 HD
ATOM     13  C   UNL     1       7.834  -4.982  23.259  0.00  0.00    +0.161 A 
ATOM     14  N   UNL     1       8.722  -5.306  24.209  0.00  0.00    -0.216 NA
ATOM     15  C   UNL     1       9.355  -4.207  24.664  0.00  0.00    +0.224 A 
ATOM     16  N   UNL     1       9.184  -2.923  24.280  0.00  0.00    -0.233 NA
ENDBRANCH   4   7
BRANCH   1  17
ATOM     17  C   UNL     1       7.909   2.978  21.874  0.00  0.00    +0.116 C 
BRANCH  17  19
ATOM     18  C   UNL     1       6.420   4.723  22.615  0.00  0.00    +0.101 C 
ATOM     19  N   UNL     1       6.539   3.493  21.848  0.00  0.00    -0.315 NA
ATOM     20  H   UNL     1       6.265   3.666  20.883  0.00  0.00    +0.122 HD
ENDBRANCH  17  19
ENDBRANCH   1  17
TORSDOF 3
ENDMDL
MODEL 9
REMARK VINA RESULT:      -5.8      3.106      8.368
REMARK  Name = 
REMARK  4 active torsions:
REMARK  status: ('A' for Active; 'I' for Inactive)
REMARK    1  A    between atoms: C_1  and  N_2
REMARK    2  A    between atoms: N_2  and  C_3
REMARK    3  A    between atoms: C_3  and  C_4
REMARK    4  A    between atoms: C_7  and  C_10
REMARK                            x       y       z     vdW  Elec       q    Type
REMARK                         _______ _______ _______ _____ _____    ______ ____
ROOT
ATOM      1  C   UNL     1       9.036   0.269  22.152  0.00  0.00    -0.034 A 
ATOM      2  C   UNL     1       9.621  -0.988  21.987  0.00  0.00    +0.005 A 
ATOM      3  C   UNL     1       8.951  -2.143  22.398  0.00  0.00    +0.010 A 
ATOM      4  C   UNL     1       7.686  -2.088  23.006  0.00  0.00    +0.003 A 
ATOM      5  C   UNL     1       7.077  -0.825  23.098  0.00  0.00    +0.010 A 
ATOM      6  C   UNL     1       7.738   0.336  22.675  0.00  0.00    +0.005 A 
ENDROOT
BRANCH   4   7
ATOM      7  C   UNL     1       7.043  -3.283  23.572  0.00  0.00    +0.102 A 
ATOM      8  C   UNL     1       6.599  -4.357  22.780  0.00  0.00    +0.134 A 
ATOM      9  N   UNL     1       6.586  -4.600  21.419  0.00  0.00    -0.232 NA
ATOM     10  C   UNL     1       6.065  -5.798  21.283  0.00  0.00    +0.198 A 
ATOM     11  N   UNL     1       5.736  -6.345  22.491  0.00  0.00    -0.329 N 
ATOM     12  H   UNL     1       5.330  -7.252  22.656  0.00  0.00    +0.168 HD
ATOM     13  C   UNL     1       6.071  -5.442  23.459  0.00  0.00    +0.161 A 
ATOM     14  N   UNL     1       5.926  -5.599  24.782  0.00  0.00    -0.216 NA
ATOM     15  C   UNL     1       6.387  -4.521  25.443  0.00  0.00    +0.224 A 
ATOM     16  N   UNL     1       6.932  -3.395  24.933  0.00  0.00    -0.233 NA
ENDBRANCH   4   7
BRANCH   1  17
ATOM     17  C   UNL     1       9.805   1.518  21.789  0.00  0.00    +0.116 C 
BRANCH  17  19
ATOM     18  C   UNL     1       9.992   3.174  23.531  0.00  0.00    +0.101 C 
ATOM     19  N   UNL     1       9.205   2.705  22.402  0.00  0.00    -0.315 NA
ATOM     20  H   UNL     1       9.138   3.443  21.704  0.00  0.00    +0.122 HD
ENDBRANCH  17  19
ENDBRANCH   1  17
TORSDOF 3
ENDMDL
