MODEL 1
REMARK VINA RESULT:      -7.0      0.000      0.000
REMARK  Name = 
REMARK  1 active torsions:
REMARK  status: ('A' for Active; 'I' for Inactive)
REMARK    1  A    between atoms: C_7  and  C_8
REMARK                            x       y       z     vdW  Elec       q    Type
REMARK                         _______ _______ _______ _____ _____    ______ ____
ROOT
ATOM      1  C   UNL     1       7.549  -3.685  24.964  0.00  0.00    +0.180 C 
ATOM      2  C   UNL     1       7.708  -2.188  24.695  0.00  0.00    +0.026 A 
ATOM      3  C   UNL     1       8.977  -1.566  24.711  0.00  0.00    +0.025 A 
ATOM      4  C   UNL     1       9.125  -0.229  24.349  0.00  0.00    +0.018 A 
ATOM      5  C   UNL     1       8.037   0.491  23.876  0.00  0.00    +0.017 A 
ATOM      6  C   UNL     1       6.775  -0.098  23.893  0.00  0.00    +0.025 A 
ATOM      7 BR   UNL     1      10.803   0.621  24.531  0.00  0.00    -0.050 Br
ATOM      8  C   UNL     1       6.591  -1.394  24.403  0.00  0.00    +0.041 A 
ATOM      9  N   UNL     1       5.258  -1.760  24.640  0.00  0.00    -0.284 N 
ATOM     10  H   UNL     1       4.550  -1.115  24.306  0.00  0.00    +0.155 HD
ATOM     11  C   UNL     1       4.693  -2.649  25.498  0.00  0.00    +0.231 C 
ATOM     12  O   UNL     1       3.463  -2.546  25.642  0.00  0.00    -0.274 OA
ATOM     13  C   UNL     1       5.414  -3.731  26.297  0.00  0.00    +0.184 C 
ATOM     14  N   UNL     1       6.858  -3.735  26.252  0.00  0.00    -0.256 NA
ATOM     15  C   UNL     1       7.542  -4.713  27.064  0.00  0.00    +0.116 C 
ATOM     16  C   UNL     1       8.966  -4.482  26.604  0.00  0.00    +0.178 C 
ATOM     17  O   UNL     1       8.854  -4.289  25.185  0.00  0.00    -0.349 OA
ENDROOT
BRANCH   1  20
ATOM     18  F   UNL     1       8.233  -3.262  22.168  0.00  0.00    -0.205 F 
ATOM     19  C   UNL     1       7.298  -4.189  22.446  0.00  0.00    +0.131 A 
ATOM     20  C   UNL     1       6.958  -4.487  23.778  0.00  0.00    +0.039 A 
ATOM     21  C   UNL     1       6.086  -5.583  23.944  0.00  0.00    +0.011 A 
ATOM     22  C   UNL     1       5.475  -6.223  22.856  0.00  0.00    +0.001 A 
ATOM     23  C   UNL     1       5.768  -5.827  21.557  0.00  0.00    +0.003 A 
ATOM     24  C   UNL     1       6.710  -4.830  21.356  0.00  0.00    +0.039 A 
ENDBRANCH   1  20
TORSDOF 1
ENDMDL
MODEL 2
REMARK VINA RESULT:      -6.9      2.500      3.725
REMARK  Name = 
REMARK  1 active torsions:
REMARK  status: ('A' for Active; 'I' for Inactive)
REMARK    1  A    between atoms: C_7  and  C_8
REMARK                            x       y       z     vdW  Elec       q    Type
REMARK                         _______ _______ _______ _____ _____    ______ ____
ROOT
ATOM      1  C   UNL     1       7.509  -1.476  25.035  0.00  0.00    +0.180 C 
ATOM      2  C   UNL     1       8.242  -0.768  23.895  0.00  0.00    +0.026 A 
ATOM      3  C   UNL     1       8.925   0.452  24.103  0.00  0.00    +0.025 A 
ATOM      4  C   UNL     1       9.686   1.029  23.089  0.00  0.00    +0.018 A 
ATOM      5  C   UNL     1       9.862   0.364  21.884  0.00  0.00    +0.017 A 
ATOM      6  C   UNL     1       9.164  -0.818  21.652  0.00  0.00    +0.025 A 
ATOM      7 BR   UNL     1      10.458   2.735  23.339  0.00  0.00    -0.050 Br
ATOM      8  C   UNL     1       8.271  -1.326  22.610  0.00  0.00    +0.041 A 
ATOM      9  N   UNL     1       7.417  -2.341  22.153  0.00  0.00    -0.284 N 
ATOM     10  H   UNL     1       7.605  -2.700  21.224  0.00  0.00    +0.155 HD
ATOM     11  C   UNL     1       6.186  -2.751  22.557  0.00  0.00    +0.231 C 
ATOM     12  O   UNL     1       5.590  -3.509  21.773  0.00  0.00    -0.274 OA
ATOM     13  C   UNL     1       5.473  -2.362  23.849  0.00  0.00    +0.184 C 
ATOM     14  N   UNL     1       6.098  -1.352  24.672  0.00  0.00    -0.256 NA
ATOM     15  C   UNL     1       5.389  -0.933  25.858  0.00  0.00    +0.116 C 
ATOM     16  C   UNL     1       6.434  -0.031  26.479  0.00  0.00    +0.178 C 
ATOM     17  O   UNL     1       7.673  -0.726  26.270  0.00  0.00    -0.349 OA
ENDROOT
BRANCH   1  20
ATOM     18  F   UNL     1       6.340  -3.300  26.978  0.00  0.00    -0.205 F 
ATOM     19  C   UNL     1       7.473  -3.689  26.364  0.00  0.00    +0.131 A 
ATOM     20  C   UNL     1       8.063  -2.884  25.372  0.00  0.00    +0.039 A 
ATOM     21  C   UNL     1       9.150  -3.469  24.693  0.00  0.00    +0.011 A 
ATOM     22  C   UNL     1       9.706  -4.695  25.088  0.00  0.00    +0.001 A 
ATOM     23  C   UNL     1       9.147  -5.409  26.140  0.00  0.00    +0.003 A 
ATOM     24  C   UNL     1       8.005  -4.917  26.754  0.00  0.00    +0.039 A 
ENDBRANCH   1  20
TORSDOF 1
ENDMDL
MODEL 3
REMARK VINA RESULT:      -6.8      1.443      1.691
REMARK  Name = 
REMARK  1 active torsions:
REMARK  status: ('A' for Active; 'I' for Inactive)
REMARK    1  A    between atoms: C_7  and  C_8
REMARK                            x       y       z     vdW  Elec       q    Type
REMARK                         _______ _______ _______ _____ _____    ______ ____
ROOT
ATOM      1  C   UNL     1       7.600  -4.140  24.755  0.00  0.00    +0.180 C 
ATOM      2  C   UNL     1       7.549  -2.689  24.277  0.00  0.00    +0.026 A 
ATOM      3  C   UNL     1       8.533  -2.162  23.410  0.00  0.00    +0.025 A 
ATOM      4  C   UNL     1       8.414  -0.876  22.888  0.00  0.00    +0.018 A 
ATOM      5  C   UNL     1       7.276  -0.123  23.139  0.00  0.00    +0.017 A 
ATOM      6  C   UNL     1       6.319  -0.614  24.023  0.00  0.00    +0.025 A 
ATOM      7 BR   UNL     1       9.818  -0.139  21.860  0.00  0.00    -0.050 Br
ATOM      8  C   UNL     1       6.505  -1.843  24.677  0.00  0.00    +0.041 A 
ATOM      9  N   UNL     1       5.635  -2.088  25.749  0.00  0.00    -0.284 N 
ATOM     10  H   UNL     1       4.879  -1.425  25.872  0.00  0.00    +0.155 HD
ATOM     11  C   UNL     1       5.752  -2.856  26.864  0.00  0.00    +0.231 C 
ATOM     12  O   UNL     1       4.902  -2.651  27.747  0.00  0.00    -0.274 OA
ATOM     13  C   UNL     1       6.818  -3.913  27.137  0.00  0.00    +0.184 C 
ATOM     14  N   UNL     1       7.897  -4.027  26.182  0.00  0.00    -0.256 NA
ATOM     15  C   UNL     1       8.942  -4.978  26.477  0.00  0.00    +0.116 C 
ATOM     16  C   UNL     1       9.739  -4.892  25.192  0.00  0.00    +0.178 C 
ATOM     17  O   UNL     1       8.743  -4.817  24.161  0.00  0.00    -0.349 OA
ENDROOT
BRANCH   1  20
ATOM     18  F   UNL     1       6.520  -4.240  22.055  0.00  0.00    -0.205 F 
ATOM     19  C   UNL     1       5.887  -4.953  23.005  0.00  0.00    +0.131 A 
ATOM     20  C   UNL     1       6.386  -4.998  24.320  0.00  0.00    +0.039 A 
ATOM     21  C   UNL     1       5.730  -5.902  25.180  0.00  0.00    +0.011 A 
ATOM     22  C   UNL     1       4.565  -6.584  24.800  0.00  0.00    +0.001 A 
ATOM     23  C   UNL     1       4.053  -6.432  23.517  0.00  0.00    +0.003 A 
ATOM     24  C   UNL     1       4.740  -5.640  22.610  0.00  0.00    +0.039 A 
ENDBRANCH   1  20
TORSDOF 1
ENDMDL
MODEL 4
REMARK VINA RESULT:      -6.7      3.341      5.780
REMARK  Name = 
REMARK  1 active torsions:
REMARK  status: ('A' for Active; 'I' for Inactive)
REMARK    1  A    between atoms: C_7  and  C_8
REMARK                            x       y       z     vdW  Elec       q    Type
REMARK                         _______ _______ _______ _____ _____    ______ ____
ROOT
ATOM      1  C   UNL     1       7.538  -0.441  24.696  0.00  0.00    +0.180 C 
ATOM      2  C   UNL     1       6.791  -1.609  24.054  0.00  0.00    +0.026 A 
ATOM      3  C   UNL     1       5.613  -2.138  24.629  0.00  0.00    +0.025 A 
ATOM      4  C   UNL     1       4.876  -3.124  23.976  0.00  0.00    +0.018 A 
ATOM      5  C   UNL     1       5.238  -3.537  22.701  0.00  0.00    +0.017 A 
ATOM      6  C   UNL     1       6.417  -3.052  22.140  0.00  0.00    +0.025 A 
ATOM      7 BR   UNL     1       3.397  -3.926  24.836  0.00  0.00    -0.050 Br
ATOM      8  C   UNL     1       7.249  -2.177  22.857  0.00  0.00    +0.041 A 
ATOM      9  N   UNL     1       8.531  -1.996  22.319  0.00  0.00    -0.284 N 
ATOM     10  H   UNL     1       8.696  -2.406  21.406  0.00  0.00    +0.155 HD
ATOM     11  C   UNL     1       9.719  -1.651  22.882  0.00  0.00    +0.231 C 
ATOM     12  O   UNL     1      10.722  -1.832  22.171  0.00  0.00    -0.274 OA
ATOM     13  C   UNL     1       9.935  -1.089  24.284  0.00  0.00    +0.184 C 
ATOM     14  N   UNL     1       8.788  -1.040  25.161  0.00  0.00    -0.256 NA
ATOM     15  C   UNL     1       9.007  -0.575  26.511  0.00  0.00    +0.116 C 
ATOM     16  C   UNL     1       7.575  -0.527  27.003  0.00  0.00    +0.178 C 
ATOM     17  O   UNL     1       6.835  -0.001  25.891  0.00  0.00    -0.349 OA
ENDROOT
BRANCH   1  20
ATOM     18  F   UNL     1       9.212   1.873  25.256  0.00  0.00    -0.205 F 
ATOM     19  C   UNL     1       8.407   1.934  24.178  0.00  0.00    +0.131 A 
ATOM     20  C   UNL     1       7.613   0.831  23.814  0.00  0.00    +0.039 A 
ATOM     21  C   UNL     1       6.939   0.958  22.582  0.00  0.00    +0.011 A 
ATOM     22  C   UNL     1       6.930   2.157  21.855  0.00  0.00    +0.001 A 
ATOM     23  C   UNL     1       7.653   3.254  22.307  0.00  0.00    +0.003 A 
ATOM     24  C   UNL     1       8.421   3.125  23.455  0.00  0.00    +0.039 A 
ENDBRANCH   1  20
TORSDOF 1
ENDMDL
MODEL 5
REMARK VINA RESULT:      -6.7      2.592      4.741
REMARK  Name = 
REMARK  1 active torsions:
REMARK  status: ('A' for Active; 'I' for Inactive)
REMARK    1  A    between atoms: C_7  and  C_8
REMARK                            x       y       z     vdW  Elec       q    Type
REMARK                         _______ _______ _______ _____ _____    ______ ____
ROOT
ATOM      1  C   UNL     1       6.605  -3.205  24.885  0.00  0.00    +0.180 C 
ATOM      2  C   UNL     1       6.339  -3.816  26.261  0.00  0.00    +0.026 A 
ATOM      3  C   UNL     1       5.322  -3.319  27.106  0.00  0.00    +0.025 A 
ATOM      4  C   UNL     1       5.011  -3.955  28.306  0.00  0.00    +0.018 A 
ATOM      5  C   UNL     1       5.636  -5.147  28.647  0.00  0.00    +0.017 A 
ATOM      6  C   UNL     1       6.667  -5.626  27.843  0.00  0.00    +0.025 A 
ATOM      7 BR   UNL     1       3.758  -3.182  29.491  0.00  0.00    -0.050 Br
ATOM      8  C   UNL     1       7.094  -4.907  26.714  0.00  0.00    +0.041 A 
ATOM      9  N   UNL     1       8.313  -5.328  26.164  0.00  0.00    -0.284 N 
ATOM     10  H   UNL     1       8.708  -6.180  26.546  0.00  0.00    +0.155 HD
ATOM     11  C   UNL     1       9.258  -4.679  25.432  0.00  0.00    +0.231 C 
ATOM     12  O   UNL     1      10.347  -5.268  25.322  0.00  0.00    -0.274 OA
ATOM     13  C   UNL     1       9.116  -3.316  24.761  0.00  0.00    +0.184 C 
ATOM     14  N   UNL     1       7.911  -2.567  25.033  0.00  0.00    -0.256 NA
ATOM     15  C   UNL     1       7.808  -1.248  24.455  0.00  0.00    +0.116 C 
ATOM     16  C   UNL     1       6.384  -0.908  24.839  0.00  0.00    +0.178 C 
ATOM     17  O   UNL     1       5.659  -2.130  24.631  0.00  0.00    -0.349 OA
ENDROOT
BRANCH   1  20
ATOM     18  F   UNL     1       4.225  -4.831  24.483  0.00  0.00    -0.205 F 
ATOM     19  C   UNL     1       5.233  -4.976  23.603  0.00  0.00    +0.131 A 
ATOM     20  C   UNL     1       6.391  -4.182  23.702  0.00  0.00    +0.039 A 
ATOM     21  C   UNL     1       7.302  -4.314  22.634  0.00  0.00    +0.011 A 
ATOM     22  C   UNL     1       7.144  -5.283  21.632  0.00  0.00    +0.001 A 
ATOM     23  C   UNL     1       6.030  -6.113  21.632  0.00  0.00    +0.003 A 
ATOM     24  C   UNL     1       5.057  -5.931  22.602  0.00  0.00    +0.039 A 
ENDBRANCH   1  20
TORSDOF 1
ENDMDL
MODEL 6
REMARK VINA RESULT:      -6.5      2.155      4.099
REMARK  Name = 
REMARK  1 active torsions:
REMARK  status: ('A' for Active; 'I' for Inactive)
REMARK    1  A    between atoms: C_7  and  C_8
REMARK                            x       y       z     vdW  Elec       q    Type
REMARK                         _______ _______ _______ _____ _____    ______ ____
ROOT
ATOM      1  C   UNL     1       6.641  -3.081  23.630  0.00  0.00    +0.180 C 
ATOM      2  C   UNL     1       7.632  -1.919  23.679  0.00  0.00    +0.026 A 
ATOM      3  C   UNL     1       7.481  -0.784  22.849  0.00  0.00    +0.025 A 
ATOM      4  C   UNL     1       8.322   0.319  22.983  0.00  0.00    +0.018 A 
ATOM      5  C   UNL     1       9.265   0.359  24.000  0.00  0.00    +0.017 A 
ATOM      6  C   UNL     1       9.450  -0.767  24.799  0.00  0.00    +0.025 A 
ATOM      7 BR   UNL     1       8.201   1.754  21.760  0.00  0.00    -0.050 Br
ATOM      8  C   UNL     1       8.715  -1.942  24.569  0.00  0.00    +0.041 A 
ATOM      9  N   UNL     1       9.190  -3.084  25.230  0.00  0.00    -0.284 N 
ATOM     10  H   UNL     1       9.933  -2.934  25.904  0.00  0.00    +0.155 HD
ATOM     11  C   UNL     1       9.092  -4.410  24.950  0.00  0.00    +0.231 C 
ATOM     12  O   UNL     1       9.848  -5.152  25.599  0.00  0.00    -0.274 OA
ATOM     13  C   UNL     1       8.170  -5.059  23.922  0.00  0.00    +0.184 C 
ATOM     14  N   UNL     1       7.418  -4.179  23.058  0.00  0.00    -0.256 NA
ATOM     15  C   UNL     1       6.600  -4.793  22.038  0.00  0.00    +0.116 C 
ATOM     16  C   UNL     1       5.893  -3.566  21.500  0.00  0.00    +0.178 C 
ATOM     17  O   UNL     1       5.587  -2.792  22.670  0.00  0.00    -0.349 OA
ENDROOT
BRANCH   1  20
ATOM     18  F   UNL     1       5.319  -1.016  25.198  0.00  0.00    -0.205 F 
ATOM     19  C   UNL     1       5.314  -2.270  25.690  0.00  0.00    +0.131 A 
ATOM     20  C   UNL     1       5.883  -3.329  24.959  0.00  0.00    +0.039 A 
ATOM     21  C   UNL     1       5.674  -4.613  25.501  0.00  0.00    +0.011 A 
ATOM     22  C   UNL     1       5.085  -4.805  26.759  0.00  0.00    +0.001 A 
ATOM     23  C   UNL     1       4.625  -3.717  27.490  0.00  0.00    +0.003 A 
ATOM     24  C   UNL     1       4.710  -2.450  26.933  0.00  0.00    +0.039 A 
ENDBRANCH   1  20
TORSDOF 1
ENDMDL
MODEL 7
REMARK VINA RESULT:      -6.5      2.600      4.414
REMARK  Name = 
REMARK  1 active torsions:
REMARK  status: ('A' for Active; 'I' for Inactive)
REMARK    1  A    between atoms: C_7  and  C_8
REMARK                            x       y       z     vdW  Elec       q    Type
REMARK                         _______ _______ _______ _____ _____    ______ ____
ROOT
ATOM      1  C   UNL     1       7.570  -3.475  24.965  0.00  0.00    +0.180 C 
ATOM      2  C   UNL     1       6.114  -3.497  25.429  0.00  0.00    +0.026 A 
ATOM      3  C   UNL     1       5.774  -3.424  26.799  0.00  0.00    +0.025 A 
ATOM      4  C   UNL     1       4.444  -3.327  27.203  0.00  0.00    +0.018 A 
ATOM      5  C   UNL     1       3.434  -3.205  26.259  0.00  0.00    +0.017 A 
ATOM      6  C   UNL     1       3.751  -3.314  24.908  0.00  0.00    +0.025 A 
ATOM      7 BR   UNL     1       4.007  -3.391  29.040  0.00  0.00    -0.050 Br
ATOM      8  C   UNL     1       5.070  -3.570  24.496  0.00  0.00    +0.041 A 
ATOM      9  N   UNL     1       5.214  -3.950  23.154  0.00  0.00    -0.284 N 
ATOM     10  H   UNL     1       4.383  -3.883  22.577  0.00  0.00    +0.155 HD
ATOM     11  C   UNL     1       6.154  -4.690  22.509  0.00  0.00    +0.231 C 
ATOM     12  O   UNL     1       5.851  -5.060  21.363  0.00  0.00    -0.274 OA
ATOM     13  C   UNL     1       7.514  -5.114  23.055  0.00  0.00    +0.184 C 
ATOM     14  N   UNL     1       7.790  -4.823  24.443  0.00  0.00    -0.256 NA
ATOM     15  C   UNL     1       9.048  -5.287  24.979  0.00  0.00    +0.116 C 
ATOM     16  C   UNL     1       8.996  -4.648  26.351  0.00  0.00    +0.178 C 
ATOM     17  O   UNL     1       8.453  -3.341  26.114  0.00  0.00    -0.349 OA
ENDROOT
BRANCH   1  20
ATOM     18  F   UNL     1      10.202  -2.992  23.821  0.00  0.00    -0.205 F 
ATOM     19  C   UNL     1       9.246  -2.072  23.592  0.00  0.00    +0.131 A 
ATOM     20  C   UNL     1       7.936  -2.267  24.065  0.00  0.00    +0.039 A 
ATOM     21  C   UNL     1       6.991  -1.317  23.627  0.00  0.00    +0.011 A 
ATOM     22  C   UNL     1       7.363  -0.172  22.907  0.00  0.00    +0.001 A 
ATOM     23  C   UNL     1       8.689   0.027  22.546  0.00  0.00    +0.003 A 
ATOM     24  C   UNL     1       9.624  -0.947  22.861  0.00  0.00    +0.039 A 
ENDBRANCH   1  20
TORSDOF 1
ENDMDL
MODEL 8
REMARK VINA RESULT:      -6.4      2.903      5.174
REMARK  Name = 
REMARK  1 active torsions:
REMARK  status: ('A' for Active; 'I' for Inactive)
REMARK    1  A    between atoms: C_7  and  C_8
REMARK                            x       y       z     vdW  Elec       q    Type
REMARK                         _______ _______ _______ _____ _____    ______ ____
ROOT
ATOM      1  C   UNL     1       6.835  -2.449  24.656  0.00  0.00    +0.180 C 
ATOM      2  C   UNL     1       6.223  -3.726  24.079  0.00  0.00    +0.026 A 
ATOM      3  C   UNL     1       4.825  -3.873  23.933  0.00  0.00    +0.025 A 
ATOM      4  C   UNL     1       4.284  -4.991  23.301  0.00  0.00    +0.018 A 
ATOM      5  C   UNL     1       5.117  -5.935  22.719  0.00  0.00    +0.017 A 
ATOM      6  C   UNL     1       6.495  -5.822  22.889  0.00  0.00    +0.025 A 
ATOM      7 BR   UNL     1       2.412  -5.240  23.259  0.00  0.00    -0.050 Br
ATOM      8  C   UNL     1       7.042  -4.783  23.660  0.00  0.00    +0.041 A 
ATOM      9  N   UNL     1       8.393  -4.940  24.002  0.00  0.00    -0.284 N 
ATOM     10  H   UNL     1       8.880  -5.713  23.562  0.00  0.00    +0.155 HD
ATOM     11  C   UNL     1       9.134  -4.469  25.040  0.00  0.00    +0.231 C 
ATOM     12  O   UNL     1      10.243  -5.006  25.193  0.00  0.00    -0.274 OA
ATOM     13  C   UNL     1       8.733  -3.375  26.025  0.00  0.00    +0.184 C 
ATOM     14  N   UNL     1       7.380  -2.874  25.944  0.00  0.00    -0.256 NA
ATOM     15  C   UNL     1       6.979  -1.890  26.922  0.00  0.00    +0.116 C 
ATOM     16  C   UNL     1       5.607  -1.537  26.386  0.00  0.00    +0.178 C 
ATOM     17  O   UNL     1       5.784  -1.491  24.962  0.00  0.00    -0.349 OA
ENDROOT
BRANCH   1  20
ATOM     18  F   UNL     1       8.273  -0.001  25.293  0.00  0.00    -0.205 F 
ATOM     19  C   UNL     1       8.386  -0.480  24.040  0.00  0.00    +0.131 A 
ATOM     20  C   UNL     1       7.765  -1.689  23.676  0.00  0.00    +0.039 A 
ATOM     21  C   UNL     1       8.086  -2.165  22.389  0.00  0.00    +0.011 A 
ATOM     22  C   UNL     1       8.838  -1.409  21.478  0.00  0.00    +0.001 A 
ATOM     23  C   UNL     1       9.349  -0.172  21.851  0.00  0.00    +0.003 A 
ATOM     24  C   UNL     1       9.149   0.273  23.149  0.00  0.00    +0.039 A 
ENDBRANCH   1  20
TORSDOF 1
ENDMDL
MODEL 9
REMARK VINA RESULT:      -6.3      2.408      3.819
REMARK  Name = 
REMARK  1 active torsions:
REMARK  status: ('A' for Active; 'I' for Inactive)
REMARK    1  A    between atoms: C_7  and  C_8
REMARK                            x       y       z     vdW  Elec       q    Type
REMARK                         _______ _______ _______ _____ _____    ______ ____
ROOT
ATOM      1  C   UNL     1       7.367  -2.263  23.658  0.00  0.00    +0.180 C 
ATOM      2  C   UNL     1       6.679  -1.738  24.919  0.00  0.00    +0.026 A 
ATOM      3  C   UNL     1       6.008  -0.495  24.930  0.00  0.00    +0.025 A 
ATOM      4  C   UNL     1       5.286  -0.079  26.047  0.00  0.00    +0.018 A 
ATOM      5  C   UNL     1       5.136  -0.926  27.136  0.00  0.00    +0.017 A 
ATOM      6  C   UNL     1       5.824  -2.137  27.154  0.00  0.00    +0.025 A 
ATOM      7 BR   UNL     1       4.531   1.652  26.095  0.00  0.00    -0.050 Br
ATOM      8  C   UNL     1       6.681  -2.494  26.099  0.00  0.00    +0.041 A 
ATOM      9  N   UNL     1       7.533  -3.577  26.361  0.00  0.00    -0.284 N 
ATOM     10  H   UNL     1       7.368  -4.077  27.228  0.00  0.00    +0.155 HD
ATOM     11  C   UNL     1       8.746  -3.928  25.859  0.00  0.00    +0.231 C 
ATOM     12  O   UNL     1       9.354  -4.807  26.492  0.00  0.00    -0.274 OA
ATOM     13  C   UNL     1       9.425  -3.345  24.623  0.00  0.00    +0.184 C 
ATOM     14  N   UNL     1       8.790  -2.212  23.991  0.00  0.00    -0.256 NA
ATOM     15  C   UNL     1       9.469  -1.616  22.865  0.00  0.00    +0.116 C 
ATOM     16  C   UNL     1       8.419  -0.616  22.428  0.00  0.00    +0.178 C 
ATOM     17  O   UNL     1       7.177  -1.325  22.563  0.00  0.00    -0.349 OA
ENDROOT
BRANCH   1  20
ATOM     18  F   UNL     1       4.550  -2.988  23.727  0.00  0.00    -0.205 F 
ATOM     19  C   UNL     1       5.414  -3.897  23.237  0.00  0.00    +0.131 A 
ATOM     20  C   UNL     1       6.783  -3.594  23.120  0.00  0.00    +0.039 A 
ATOM     21  C   UNL     1       7.557  -4.561  22.447  0.00  0.00    +0.011 A 
ATOM     22  C   UNL     1       7.032  -5.805  22.068  0.00  0.00    +0.001 A 
ATOM     23  C   UNL     1       5.693  -6.098  22.293  0.00  0.00    +0.003 A 
ATOM     24  C   UNL     1       4.877  -5.123  22.848  0.00  0.00    +0.039 A 
ENDBRANCH   1  20
TORSDOF 1
ENDMDL
