MODEL 1
REMARK VINA RESULT:      -5.5      0.000      0.000
REMARK  Name = 
REMARK  8 active torsions:
REMARK  status: ('A' for Active; 'I' for Inactive)
REMARK    1  A    between atoms: C_2  and  C_3
REMARK    2  A    between atoms: C_2  and  C_10
REMARK    3  A    between atoms: C_2  and  C_12
REMARK    4  A    between atoms: C_3  and  C_4
REMARK    5  A    between atoms: C_4  and  C_5
REMARK    6  A    between atoms: C_5  and  C_6
REMARK    7  A    between atoms: C_6  and  C_7
REMARK    8  A    between atoms: C_17  and  O_19
REMARK                            x       y       z     vdW  Elec       q    Type
REMARK                         _______ _______ _______ _____ _____    ______ ____
ROOT
ATOM      1  C   UNL     1      10.025  -0.452  23.528  0.00  0.00    +0.057 C 
ENDROOT
BRANCH   1   2
ATOM      2  C   UNL     1       9.336   0.927  23.467  0.00  0.00    +0.027 C 
ATOM      3  C   UNL     1      10.306   2.045  23.031  0.00  0.00    +0.118 C 
ATOM      4  C   UNL     1       9.914   3.308  23.801  0.00  0.00    +0.031 C 
ATOM      5  C   UNL     1       8.669   2.934  24.591  0.00  0.00    +0.003 C 
ATOM      6  C   UNL     1       8.796   1.433  24.806  0.00  0.00    +0.007 C 
BRANCH   3   7
ATOM      7  O   UNL     1      10.226   2.248  21.630  0.00  0.00    -0.391 OA
ATOM      8  H   UNL     1      11.089   2.579  21.318  0.00  0.00    +0.210 HD
ENDBRANCH   3   7
ENDBRANCH   1   2
BRANCH   1   9
ATOM      9  C   UNL     1       9.970  -1.066  22.134  0.00  0.00    +0.227 C 
ATOM     10  O   UNL     1       9.366  -0.570  21.187  0.00  0.00    -0.301 OA
ENDBRANCH   1   9
BRANCH   1  11
ATOM     11  C   UNL     1       9.406  -1.406  24.570  0.00  0.00    +0.011 C 
BRANCH  11  12
ATOM     12  C   UNL     1       8.195  -2.165  24.005  0.00  0.00    +0.001 C 
BRANCH  12  13
ATOM     13  C   UNL     1       7.657  -3.212  24.983  0.00  0.00    +0.012 C 
BRANCH  13  14
ATOM     14  C   UNL     1       8.605  -3.383  26.170  0.00  0.00    +0.127 C 
BRANCH  14  15
ATOM     15  C   UNL     1       8.940  -4.842  26.391  0.00  0.00    +0.276 C 
ATOM     16  N   UNL     1       8.193  -5.605  27.121  0.00  0.00    -0.104 NA
ATOM     17  H   UNL     1       7.410  -5.071  27.511  0.00  0.00    +0.363 HD
ATOM     18  N   UNL     1      10.033  -5.379  25.792  0.00  0.00    -0.251 N 
ATOM     19  H   UNL     1      10.032  -6.394  25.815  0.00  0.00    +0.288 HD
ATOM     20  H   UNL     1      10.327  -4.983  24.908  0.00  0.00    +0.288 HD
ENDBRANCH  14  15
ENDBRANCH  13  14
ENDBRANCH  12  13
ENDBRANCH  11  12
ENDBRANCH   1  11
TORSDOF 8
ENDMDL
MODEL 2
REMARK VINA RESULT:      -5.4      1.732      2.208
REMARK  Name = 
REMARK  8 active torsions:
REMARK  status: ('A' for Active; 'I' for Inactive)
REMARK    1  A    between atoms: C_2  and  C_3
REMARK    2  A    between atoms: C_2  and  C_10
REMARK    3  A    between atoms: C_2  and  C_12
REMARK    4  A    between atoms: C_3  and  C_4
REMARK    5  A    between atoms: C_4  and  C_5
REMARK    6  A    between atoms: C_5  and  C_6
REMARK    7  A    between atoms: C_6  and  C_7
REMARK    8  A    between atoms: C_17  and  O_19
REMARK                            x       y       z     vdW  Elec       q    Type
REMARK                         _______ _______ _______ _____ _____    ______ ____
ROOT
ATOM      1  C   UNL     1       9.348  -1.678  23.594  0.00  0.00    +0.057 C 
ENDROOT
BRANCH   1   2
ATOM      2  C   UNL     1      10.114  -0.394  23.209  0.00  0.00    +0.027 C 
ATOM      3  C   UNL     1       9.936   0.726  24.255  0.00  0.00    +0.118 C 
ATOM      4  C   UNL     1       9.898   2.052  23.494  0.00  0.00    +0.031 C 
ATOM      5  C   UNL     1      10.153   1.693  22.037  0.00  0.00    +0.003 C 
ATOM      6  C   UNL     1       9.650   0.262  21.908  0.00  0.00    +0.007 C 
BRANCH   3   7
ATOM      7  O   UNL     1      11.000   0.699  25.191  0.00  0.00    -0.391 OA
ATOM      8  H   UNL     1      11.170  -0.231  25.437  0.00  0.00    +0.210 HD
ENDBRANCH   3   7
ENDBRANCH   1   2
BRANCH   1   9
ATOM      9  C   UNL     1       8.727  -2.251  22.326  0.00  0.00    +0.227 C 
ATOM     10  O   UNL     1       7.715  -2.946  22.308  0.00  0.00    -0.301 OA
ENDBRANCH   1   9
BRANCH   1  11
ATOM     11  C   UNL     1       8.272  -1.454  24.676  0.00  0.00    +0.011 C 
BRANCH  11  12
ATOM     12  C   UNL     1       8.514  -2.330  25.916  0.00  0.00    +0.001 C 
BRANCH  12  13
ATOM     13  C   UNL     1       7.477  -3.449  26.047  0.00  0.00    +0.012 C 
BRANCH  13  14
ATOM     14  C   UNL     1       8.151  -4.772  26.414  0.00  0.00    +0.127 C 
BRANCH  14  15
ATOM     15  C   UNL     1       9.074  -5.236  25.309  0.00  0.00    +0.276 C 
ATOM     16  N   UNL     1       8.663  -5.355  24.089  0.00  0.00    -0.104 NA
ATOM     17  H   UNL     1       7.667  -5.119  24.022  0.00  0.00    +0.363 HD
ATOM     18  N   UNL     1      10.373  -5.513  25.590  0.00  0.00    -0.251 N 
ATOM     19  H   UNL     1      10.946  -5.585  24.755  0.00  0.00    +0.288 HD
ATOM     20  H   UNL     1      10.808  -5.005  26.350  0.00  0.00    +0.288 HD
ENDBRANCH  14  15
ENDBRANCH  13  14
ENDBRANCH  12  13
ENDBRANCH  11  12
ENDBRANCH   1  11
TORSDOF 8
ENDMDL
MODEL 3
REMARK VINA RESULT:      -5.4      1.572      2.010
REMARK  Name = 
REMARK  8 active torsions:
REMARK  status: ('A' for Active; 'I' for Inactive)
REMARK    1  A    between atoms: C_2  and  C_3
REMARK    2  A    between atoms: C_2  and  C_10
REMARK    3  A    between atoms: C_2  and  C_12
REMARK    4  A    between atoms: C_3  and  C_4
REMARK    5  A    between atoms: C_4  and  C_5
REMARK    6  A    between atoms: C_5  and  C_6
REMARK    7  A    between atoms: C_6  and  C_7
REMARK    8  A    between atoms: C_17  and  O_19
REMARK                            x       y       z     vdW  Elec       q    Type
REMARK                         _______ _______ _______ _____ _____    ______ ____
ROOT
ATOM      1  C   UNL     1       9.460  -1.069  24.864  0.00  0.00    +0.057 C 
ENDROOT
BRANCH   1   2
ATOM      2  C   UNL     1       9.367   0.338  24.237  0.00  0.00    +0.027 C 
ATOM      3  C   UNL     1       9.037   0.284  22.730  0.00  0.00    +0.118 C 
ATOM      4  C   UNL     1       9.795   1.433  22.062  0.00  0.00    +0.031 C 
ATOM      5  C   UNL     1      10.467   2.193  23.196  0.00  0.00    +0.003 C 
ATOM      6  C   UNL     1      10.663   1.148  24.285  0.00  0.00    +0.007 C 
BRANCH   3   7
ATOM      7  O   UNL     1       7.639   0.399  22.527  0.00  0.00    -0.391 OA
ATOM      8  H   UNL     1       7.387   1.334  22.649  0.00  0.00    +0.210 HD
ENDBRANCH   3   7
ENDBRANCH   1   2
BRANCH   1   9
ATOM      9  C   UNL     1       9.675  -2.072  23.737  0.00  0.00    +0.227 C 
ATOM     10  O   UNL     1      10.332  -3.103  23.849  0.00  0.00    -0.301 OA
ENDBRANCH   1   9
BRANCH   1  11
ATOM     11  C   UNL     1       8.226  -1.452  25.707  0.00  0.00    +0.011 C 
BRANCH  11  12
ATOM     12  C   UNL     1       7.200  -2.254  24.891  0.00  0.00    +0.001 C 
BRANCH  12  13
ATOM     13  C   UNL     1       6.748  -3.525  25.614  0.00  0.00    +0.012 C 
BRANCH  13  14
ATOM     14  C   UNL     1       7.429  -4.758  25.019  0.00  0.00    +0.127 C 
BRANCH  14  15
ATOM     15  C   UNL     1       8.431  -5.345  25.989  0.00  0.00    +0.276 C 
ATOM     16  N   UNL     1       8.099  -5.658  27.199  0.00  0.00    -0.104 NA
ATOM     17  H   UNL     1       7.115  -5.429  27.370  0.00  0.00    +0.363 HD
ATOM     18  N   UNL     1       9.706  -5.575  25.582  0.00  0.00    -0.251 N 
ATOM     19  H   UNL     1      10.218  -6.173  26.222  0.00  0.00    +0.288 HD
ATOM     20  H   UNL     1       9.856  -5.787  24.604  0.00  0.00    +0.288 HD
ENDBRANCH  14  15
ENDBRANCH  13  14
ENDBRANCH  12  13
ENDBRANCH  11  12
ENDBRANCH   1  11
TORSDOF 8
ENDMDL
MODEL 4
REMARK VINA RESULT:      -5.4      4.735      6.825
REMARK  Name = 
REMARK  8 active torsions:
REMARK  status: ('A' for Active; 'I' for Inactive)
REMARK    1  A    between atoms: C_2  and  C_3
REMARK    2  A    between atoms: C_2  and  C_10
REMARK    3  A    between atoms: C_2  and  C_12
REMARK    4  A    between atoms: C_3  and  C_4
REMARK    5  A    between atoms: C_4  and  C_5
REMARK    6  A    between atoms: C_5  and  C_6
REMARK    7  A    between atoms: C_6  and  C_7
REMARK    8  A    between atoms: C_17  and  O_19
REMARK                            x       y       z     vdW  Elec       q    Type
REMARK                         _______ _______ _______ _____ _____    ______ ____
ROOT
ATOM      1  C   UNL     1      10.114   1.591  22.442  0.00  0.00    +0.057 C 
ENDROOT
BRANCH   1   2
ATOM      2  C   UNL     1      10.258   0.192  23.076  0.00  0.00    +0.027 C 
ATOM      3  C   UNL     1       9.383  -0.863  22.367  0.00  0.00    +0.118 C 
ATOM      4  C   UNL     1       8.885  -1.832  23.440  0.00  0.00    +0.031 C 
ATOM      5  C   UNL     1       9.556  -1.389  24.732  0.00  0.00    +0.003 C 
ATOM      6  C   UNL     1       9.808   0.099  24.534  0.00  0.00    +0.007 C 
BRANCH   3   7
ATOM      7  O   UNL     1      10.133  -1.536  21.370  0.00  0.00    -0.391 OA
ATOM      8  H   UNL     1      10.617  -0.869  20.846  0.00  0.00    +0.210 HD
ENDBRANCH   3   7
ENDBRANCH   1   2
BRANCH   1   9
ATOM      9  C   UNL     1      10.298   2.627  23.545  0.00  0.00    +0.227 C 
ATOM     10  O   UNL     1      10.848   3.712  23.385  0.00  0.00    -0.301 OA
ENDBRANCH   1   9
BRANCH   1  11
ATOM     11  C   UNL     1       8.771   1.803  21.713  0.00  0.00    +0.011 C 
BRANCH  11  12
ATOM     12  C   UNL     1       7.665   2.271  22.672  0.00  0.00    +0.001 C 
BRANCH  12  13
ATOM     13  C   UNL     1       6.891   3.473  22.124  0.00  0.00    +0.012 C 
BRANCH  13  14
ATOM     14  C   UNL     1       7.032   4.679  23.054  0.00  0.00    +0.127 C 
BRANCH  14  15
ATOM     15  C   UNL     1       7.851   5.773  22.403  0.00  0.00    +0.276 C 
ATOM     16  N   UNL     1       9.024   6.093  22.843  0.00  0.00    -0.104 NA
ATOM     17  H   UNL     1       9.264   5.529  23.665  0.00  0.00    +0.363 HD
ATOM     18  N   UNL     1       7.361   6.422  21.316  0.00  0.00    -0.251 N 
ATOM     19  H   UNL     1       8.073   6.958  20.829  0.00  0.00    +0.288 HD
ATOM     20  H   UNL     1       6.735   5.912  20.707  0.00  0.00    +0.288 HD
ENDBRANCH  14  15
ENDBRANCH  13  14
ENDBRANCH  12  13
ENDBRANCH  11  12
ENDBRANCH   1  11
TORSDOF 8
ENDMDL
MODEL 5
REMARK VINA RESULT:      -5.3      2.123      3.360
REMARK  Name = 
REMARK  8 active torsions:
REMARK  status: ('A' for Active; 'I' for Inactive)
REMARK    1  A    between atoms: C_2  and  C_3
REMARK    2  A    between atoms: C_2  and  C_10
REMARK    3  A    between atoms: C_2  and  C_12
REMARK    4  A    between atoms: C_3  and  C_4
REMARK    5  A    between atoms: C_4  and  C_5
REMARK    6  A    between atoms: C_5  and  C_6
REMARK    7  A    between atoms: C_6  and  C_7
REMARK    8  A    between atoms: C_17  and  O_19
REMARK                            x       y       z     vdW  Elec       q    Type
REMARK                         _______ _______ _______ _____ _____    ______ ____
ROOT
ATOM      1  C   UNL     1       7.505  -3.386  22.306  0.00  0.00    +0.057 C 
ENDROOT
BRANCH   1   2
ATOM      2  C   UNL     1       8.016  -1.967  22.631  0.00  0.00    +0.027 C 
ATOM      3  C   UNL     1       9.539  -1.937  22.878  0.00  0.00    +0.118 C 
ATOM      4  C   UNL     1       9.799  -0.895  23.967  0.00  0.00    +0.031 C 
ATOM      5  C   UNL     1       8.445  -0.268  24.263  0.00  0.00    +0.003 C 
ATOM      6  C   UNL     1       7.440  -1.356  23.909  0.00  0.00    +0.007 C 
BRANCH   3   7
ATOM      7  O   UNL     1      10.226  -1.615  21.680  0.00  0.00    -0.391 OA
ATOM      8  H   UNL     1      10.793  -2.371  21.438  0.00  0.00    +0.210 HD
ENDBRANCH   3   7
ENDBRANCH   1   2
BRANCH   1   9
ATOM      9  C   UNL     1       6.026  -3.284  21.957  0.00  0.00    +0.227 C 
ATOM     10  O   UNL     1       5.547  -3.629  20.881  0.00  0.00    -0.301 OA
ENDBRANCH   1   9
BRANCH   1  11
ATOM     11  C   UNL     1       7.728  -4.398  23.449  0.00  0.00    +0.011 C 
BRANCH  11  12
ATOM     12  C   UNL     1       6.467  -5.232  23.731  0.00  0.00    +0.001 C 
BRANCH  12  13
ATOM     13  C   UNL     1       6.089  -5.230  25.214  0.00  0.00    +0.012 C 
BRANCH  13  14
ATOM     14  C   UNL     1       7.041  -4.341  26.015  0.00  0.00    +0.127 C 
BRANCH  14  15
ATOM     15  C   UNL     1       7.997  -5.175  26.840  0.00  0.00    +0.276 C 
ATOM     16  N   UNL     1       7.571  -6.018  27.723  0.00  0.00    -0.104 NA
ATOM     17  H   UNL     1       6.547  -5.998  27.772  0.00  0.00    +0.363 HD
ATOM     18  N   UNL     1       9.335  -5.060  26.639  0.00  0.00    -0.251 N 
ATOM     19  H   UNL     1       9.859  -5.816  27.067  0.00  0.00    +0.288 HD
ATOM     20  H   UNL     1       9.650  -4.807  25.711  0.00  0.00    +0.288 HD
ENDBRANCH  14  15
ENDBRANCH  13  14
ENDBRANCH  12  13
ENDBRANCH  11  12
ENDBRANCH   1  11
TORSDOF 8
ENDMDL
MODEL 6
REMARK VINA RESULT:      -5.3      3.773      6.092
REMARK  Name = 
REMARK  8 active torsions:
REMARK  status: ('A' for Active; 'I' for Inactive)
REMARK    1  A    between atoms: C_2  and  C_3
REMARK    2  A    between atoms: C_2  and  C_10
REMARK    3  A    between atoms: C_2  and  C_12
REMARK    4  A    between atoms: C_3  and  C_4
REMARK    5  A    between atoms: C_4  and  C_5
REMARK    6  A    between atoms: C_5  and  C_6
REMARK    7  A    between atoms: C_6  and  C_7
REMARK    8  A    between atoms: C_17  and  O_19
REMARK                            x       y       z     vdW  Elec       q    Type
REMARK                         _______ _______ _______ _____ _____    ______ ____
ROOT
ATOM      1  C   UNL     1       7.859  -1.084  22.979  0.00  0.00    +0.057 C 
ENDROOT
BRANCH   1   2
ATOM      2  C   UNL     1       7.113  -2.400  23.281  0.00  0.00    +0.027 C 
ATOM      3  C   UNL     1       8.016  -3.638  23.097  0.00  0.00    +0.118 C 
ATOM      4  C   UNL     1       7.137  -4.759  22.541  0.00  0.00    +0.031 C 
ATOM      5  C   UNL     1       5.725  -4.192  22.507  0.00  0.00    +0.003 C 
ATOM      6  C   UNL     1       5.926  -2.690  22.361  0.00  0.00    +0.007 C 
BRANCH   3   7
ATOM      7  O   UNL     1       8.605  -4.007  24.332  0.00  0.00    -0.391 OA
ATOM      8  H   UNL     1       9.380  -3.434  24.486  0.00  0.00    +0.210 HD
ENDBRANCH   3   7
ENDBRANCH   1   2
BRANCH   1   9
ATOM      9  C   UNL     1       8.992  -1.398  22.011  0.00  0.00    +0.227 C 
ATOM     10  O   UNL     1       9.348  -0.653  21.102  0.00  0.00    -0.301 OA
ENDBRANCH   1   9
BRANCH   1  11
ATOM     11  C   UNL     1       8.398  -0.377  24.240  0.00  0.00    +0.011 C 
BRANCH  11  12
ATOM     12  C   UNL     1       9.885  -0.685  24.479  0.00  0.00    +0.001 C 
BRANCH  12  13
ATOM     13  C   UNL     1      10.750   0.578  24.464  0.00  0.00    +0.012 C 
BRANCH  13  14
ATOM     14  C   UNL     1       9.891   1.821  24.230  0.00  0.00    +0.127 C 
BRANCH  14  15
ATOM     15  C   UNL     1      10.363   2.584  23.012  0.00  0.00    +0.276 C 
ATOM     16  N   UNL     1      11.078   3.656  23.120  0.00  0.00    -0.104 NA
ATOM     17  H   UNL     1      11.231   3.886  24.107  0.00  0.00    +0.363 HD
ATOM     18  N   UNL     1      10.054   2.127  21.772  0.00  0.00    -0.251 N 
ATOM     19  H   UNL     1      10.605   2.571  21.044  0.00  0.00    +0.288 HD
ATOM     20  H   UNL     1       9.937   1.129  21.654  0.00  0.00    +0.288 HD
ENDBRANCH  14  15
ENDBRANCH  13  14
ENDBRANCH  12  13
ENDBRANCH  11  12
ENDBRANCH   1  11
TORSDOF 8
ENDMDL
MODEL 7
REMARK VINA RESULT:      -5.2      4.405      6.409
REMARK  Name = 
REMARK  8 active torsions:
REMARK  status: ('A' for Active; 'I' for Inactive)
REMARK    1  A    between atoms: C_2  and  C_3
REMARK    2  A    between atoms: C_2  and  C_10
REMARK    3  A    between atoms: C_2  and  C_12
REMARK    4  A    between atoms: C_3  and  C_4
REMARK    5  A    between atoms: C_4  and  C_5
REMARK    6  A    between atoms: C_5  and  C_6
REMARK    7  A    between atoms: C_6  and  C_7
REMARK    8  A    between atoms: C_17  and  O_19
REMARK                            x       y       z     vdW  Elec       q    Type
REMARK                         _______ _______ _______ _____ _____    ______ ____
ROOT
ATOM      1  C   UNL     1       8.771  -4.132  24.304  0.00  0.00    +0.057 C 
ENDROOT
BRANCH   1   2
ATOM      2  C   UNL     1       7.326  -4.305  23.790  0.00  0.00    +0.027 C 
ATOM      3  C   UNL     1       7.246  -4.256  22.249  0.00  0.00    +0.118 C 
ATOM      4  C   UNL     1       5.931  -3.563  21.889  0.00  0.00    +0.031 C 
ATOM      5  C   UNL     1       5.225  -3.312  23.214  0.00  0.00    +0.003 C 
ATOM      6  C   UNL     1       6.355  -3.209  24.228  0.00  0.00    +0.007 C 
BRANCH   3   7
ATOM      7  O   UNL     1       7.304  -5.566  21.711  0.00  0.00    -0.391 OA
ATOM      8  H   UNL     1       7.273  -5.500  20.738  0.00  0.00    +0.210 HD
ENDBRANCH   3   7
ENDBRANCH   1   2
BRANCH   1   9
ATOM      9  C   UNL     1       8.931  -4.991  25.552  0.00  0.00    +0.227 C 
ATOM     10  O   UNL     1       9.170  -4.544  26.670  0.00  0.00    -0.301 OA
ENDBRANCH   1   9
BRANCH   1  11
ATOM     11  C   UNL     1       9.150  -2.666  24.598  0.00  0.00    +0.011 C 
BRANCH  11  12
ATOM     12  C   UNL     1       9.822  -1.994  23.390  0.00  0.00    +0.001 C 
BRANCH  12  13
ATOM     13  C   UNL     1       8.948  -0.899  22.774  0.00  0.00    +0.012 C 
BRANCH  13  14
ATOM     14  C   UNL     1       9.673  -0.213  21.616  0.00  0.00    +0.127 C 
BRANCH  14  15
ATOM     15  C   UNL     1       9.330   1.260  21.557  0.00  0.00    +0.276 C 
ATOM     16  N   UNL     1       8.132   1.666  21.289  0.00  0.00    -0.104 NA
ATOM     17  H   UNL     1       7.515   0.867  21.114  0.00  0.00    +0.363 HD
ATOM     18  N   UNL     1      10.291   2.184  21.814  0.00  0.00    -0.251 N 
ATOM     19  H   UNL     1       9.908   3.110  21.976  0.00  0.00    +0.288 HD
ATOM     20  H   UNL     1      11.035   1.925  22.449  0.00  0.00    +0.288 HD
ENDBRANCH  14  15
ENDBRANCH  13  14
ENDBRANCH  12  13
ENDBRANCH  11  12
ENDBRANCH   1  11
TORSDOF 8
ENDMDL
MODEL 8
REMARK VINA RESULT:      -5.2      4.794      7.085
REMARK  Name = 
REMARK  8 active torsions:
REMARK  status: ('A' for Active; 'I' for Inactive)
REMARK    1  A    between atoms: C_2  and  C_3
REMARK    2  A    between atoms: C_2  and  C_10
REMARK    3  A    between atoms: C_2  and  C_12
REMARK    4  A    between atoms: C_3  and  C_4
REMARK    5  A    between atoms: C_4  and  C_5
REMARK    6  A    between atoms: C_5  and  C_6
REMARK    7  A    between atoms: C_6  and  C_7
REMARK    8  A    between atoms: C_17  and  O_19
REMARK                            x       y       z     vdW  Elec       q    Type
REMARK                         _______ _______ _______ _____ _____    ______ ____
ROOT
ATOM      1  C   UNL     1       7.823   2.853  23.785  0.00  0.00    +0.057 C 
ENDROOT
BRANCH   1   2
ATOM      2  C   UNL     1       8.794   1.720  23.391  0.00  0.00    +0.027 C 
ATOM      3  C   UNL     1       9.161   1.762  21.893  0.00  0.00    +0.118 C 
ATOM      4  C   UNL     1       9.305   0.313  21.424  0.00  0.00    +0.031 C 
ATOM      5  C   UNL     1       9.120  -0.540  22.670  0.00  0.00    +0.003 C 
ATOM      6  C   UNL     1       8.240   0.307  23.579  0.00  0.00    +0.007 C 
BRANCH   3   7
ATOM      7  O   UNL     1      10.363   2.489  21.700  0.00  0.00    -0.391 OA
ATOM      8  H   UNL     1      10.972   1.941  21.171  0.00  0.00    +0.210 HD
ENDBRANCH   3   7
ENDBRANCH   1   2
BRANCH   1   9
ATOM      9  C   UNL     1       6.965   3.179  22.569  0.00  0.00    +0.227 C 
ATOM     10  O   UNL     1       5.827   2.753  22.394  0.00  0.00    -0.301 OA
ENDBRANCH   1   9
BRANCH   1  11
ATOM     11  C   UNL     1       8.531   4.119  24.310  0.00  0.00    +0.011 C 
BRANCH  11  12
ATOM     12  C   UNL     1       8.192   5.357  23.465  0.00  0.00    +0.001 C 
BRANCH  12  13
ATOM     13  C   UNL     1       9.388   6.300  23.310  0.00  0.00    +0.012 C 
BRANCH  13  14
ATOM     14  C   UNL     1      10.437   6.027  24.389  0.00  0.00    +0.127 C 
BRANCH  14  15
ATOM     15  C   UNL     1      11.792   5.756  23.772  0.00  0.00    +0.276 C 
ATOM     16  N   UNL     1      12.881   6.206  24.306  0.00  0.00    -0.104 NA
ATOM     17  H   UNL     1      12.667   6.757  25.144  0.00  0.00    +0.363 HD
ATOM     18  N   UNL     1      11.879   5.004  22.646  0.00  0.00    -0.251 N 
ATOM     19  H   UNL     1      12.827   4.695  22.456  0.00  0.00    +0.288 HD
ATOM     20  H   UNL     1      11.173   4.294  22.498  0.00  0.00    +0.288 HD
ENDBRANCH  14  15
ENDBRANCH  13  14
ENDBRANCH  12  13
ENDBRANCH  11  12
ENDBRANCH   1  11
TORSDOF 8
ENDMDL
MODEL 9
REMARK VINA RESULT:      -5.1      2.460      3.075
REMARK  Name = 
REMARK  8 active torsions:
REMARK  status: ('A' for Active; 'I' for Inactive)
REMARK    1  A    between atoms: C_2  and  C_3
REMARK    2  A    between atoms: C_2  and  C_10
REMARK    3  A    between atoms: C_2  and  C_12
REMARK    4  A    between atoms: C_3  and  C_4
REMARK    5  A    between atoms: C_4  and  C_5
REMARK    6  A    between atoms: C_5  and  C_6
REMARK    7  A    between atoms: C_6  and  C_7
REMARK    8  A    between atoms: C_17  and  O_19
REMARK                            x       y       z     vdW  Elec       q    Type
REMARK                         _______ _______ _______ _____ _____    ______ ____
ROOT
ATOM      1  C   UNL     1       9.074  -1.524  23.468  0.00  0.00    +0.057 C 
ENDROOT
BRANCH   1   2
ATOM      2  C   UNL     1       9.926  -0.269  23.187  0.00  0.00    +0.027 C 
ATOM      3  C   UNL     1       9.757   0.808  24.279  0.00  0.00    +0.118 C 
ATOM      4  C   UNL     1       9.828   2.169  23.585  0.00  0.00    +0.031 C 
ATOM      5  C   UNL     1      10.137   1.868  22.126  0.00  0.00    +0.003 C 
ATOM      6  C   UNL     1       9.565   0.475  21.900  0.00  0.00    +0.007 C 
BRANCH   3   7
ATOM      7  O   UNL     1      10.769   0.675  25.263  0.00  0.00    -0.391 OA
ATOM      8  H   UNL     1      10.702   1.431  25.877  0.00  0.00    +0.210 HD
ENDBRANCH   3   7
ENDBRANCH   1   2
BRANCH   1   9
ATOM      9  C   UNL     1      10.023  -2.684  23.744  0.00  0.00    +0.227 C 
ATOM     10  O   UNL     1       9.701  -3.714  24.329  0.00  0.00    -0.301 OA
ENDBRANCH   1   9
BRANCH   1  11
ATOM     11  C   UNL     1       8.098  -1.877  22.326  0.00  0.00    +0.011 C 
BRANCH  11  12
ATOM     12  C   UNL     1       6.640  -1.919  22.810  0.00  0.00    +0.001 C 
BRANCH  12  13
ATOM     13  C   UNL     1       5.854  -3.075  22.186  0.00  0.00    +0.012 C 
BRANCH  13  14
ATOM     14  C   UNL     1       5.457  -4.099  23.249  0.00  0.00    +0.127 C 
BRANCH  14  15
ATOM     15  C   UNL     1       6.659  -4.892  23.714  0.00  0.00    +0.276 C 
ATOM     16  N   UNL     1       7.457  -5.465  22.874  0.00  0.00    -0.104 NA
ATOM     17  H   UNL     1       7.134  -5.314  21.913  0.00  0.00    +0.363 HD
ATOM     18  N   UNL     1       6.927  -4.989  25.041  0.00  0.00    -0.251 N 
ATOM     19  H   UNL     1       7.864  -5.336  25.225  0.00  0.00    +0.288 HD
ATOM     20  H   UNL     1       6.644  -4.221  25.636  0.00  0.00    +0.288 HD
ENDBRANCH  14  15
ENDBRANCH  13  14
ENDBRANCH  12  13
ENDBRANCH  11  12
ENDBRANCH   1  11
TORSDOF 8
ENDMDL
