MODEL 1
REMARK VINA RESULT:      -6.3      0.000      0.000
REMARK  Name = 
REMARK  8 active torsions:
REMARK  status: ('A' for Active; 'I' for Inactive)
REMARK    1  A    between atoms: C_2  and  C_3
REMARK    2  A    between atoms: C_3  and  O_4
REMARK    3  A    between atoms: C_6  and  S_8
REMARK    4  A    between atoms: S_8  and  C_9
REMARK    5  A    between atoms: C_12  and  N_15
REMARK    6  A    between atoms: C_18  and  O_20
REMARK    7  A    between atoms: C_21  and  O_23
REMARK    8  A    between atoms: C_24  and  O_26
REMARK                            x       y       z     vdW  Elec       q    Type
REMARK                         _______ _______ _______ _____ _____    ______ ____
ROOT
ATOM      1  C   UNL     1       7.077  -3.924  25.518  0.00  0.00    +0.176 C 
ATOM      2  C   UNL     1       6.490  -5.017  24.605  0.00  0.00    +0.176 C 
ATOM      3  C   UNL     1       7.323  -5.162  23.325  0.00  0.00    +0.177 C 
ATOM      4  C   UNL     1       7.441  -3.801  22.618  0.00  0.00    +0.185 C 
ATOM      5  C   UNL     1       7.925  -2.674  23.569  0.00  0.00    +0.212 C 
ATOM      6  O   UNL     1       7.264  -2.667  24.839  0.00  0.00    -0.355 OA
ENDROOT
BRANCH   2   7
ATOM      7  O   UNL     1       5.125  -4.702  24.290  0.00  0.00    -0.386 OA
ATOM      8  H   UNL     1       5.070  -4.540  23.325  0.00  0.00    +0.210 HD
ENDBRANCH   2   7
BRANCH   3   9
ATOM      9  O   UNL     1       8.584  -5.765  23.627  0.00  0.00    -0.386 OA
ATOM     10  H   UNL     1       9.277  -5.082  23.676  0.00  0.00    +0.210 HD
ENDBRANCH   3   9
BRANCH   4  11
ATOM     11  O   UNL     1       6.132  -3.462  22.108  0.00  0.00    -0.386 OA
ATOM     12  H   UNL     1       5.506  -3.459  22.854  0.00  0.00    +0.210 HD
ENDBRANCH   4  11
BRANCH   1  13
ATOM     13  C   UNL     1       8.342  -4.353  26.282  0.00  0.00    +0.190 C 
BRANCH  13  14
ATOM     14  O   UNL     1       8.315  -5.725  26.652  0.00  0.00    -0.392 OA
ATOM     15  H   UNL     1       9.130  -5.909  27.156  0.00  0.00    +0.210 HD
ENDBRANCH  13  14
ENDBRANCH   1  13
BRANCH   5  16
ATOM     16  S   UNL     1       9.753  -2.599  23.689  0.00  0.00    -0.091 S 
BRANCH  16  17
ATOM     17  C   UNL     1      10.019  -0.837  23.574  0.00  0.00    +0.011 A 
ATOM     18  C   UNL     1      10.292  -0.100  24.733  0.00  0.00    +0.021 A 
ATOM     19  C   UNL     1      10.439   1.289  24.678  0.00  0.00    +0.085 A 
ATOM     20  C   UNL     1      10.303   1.954  23.452  0.00  0.00    +0.273 A 
ATOM     21  C   UNL     1      10.022   1.231  22.288  0.00  0.00    +0.085 A 
ATOM     22  C   UNL     1       9.877  -0.161  22.355  0.00  0.00    +0.021 A 
BRANCH  20  23
ATOM     23  N   UNL     1      10.443   3.415  23.393  0.00  0.00    +0.080 N 
ATOM     24  O   UNL     1       9.406   4.095  23.437  0.00  0.00    +0.041 OA
ATOM     25  O   UNL     1      11.586   3.882  23.304  0.00  0.00    -0.576 OA
ENDBRANCH  20  23
ENDBRANCH  16  17
ENDBRANCH   5  16
TORSDOF 8
ENDMDL
MODEL 2
REMARK VINA RESULT:      -6.1      3.470      7.451
REMARK  Name = 
REMARK  8 active torsions:
REMARK  status: ('A' for Active; 'I' for Inactive)
REMARK    1  A    between atoms: C_2  and  C_3
REMARK    2  A    between atoms: C_3  and  O_4
REMARK    3  A    between atoms: C_6  and  S_8
REMARK    4  A    between atoms: S_8  and  C_9
REMARK    5  A    between atoms: C_12  and  N_15
REMARK    6  A    between atoms: C_18  and  O_20
REMARK    7  A    between atoms: C_21  and  O_23
REMARK    8  A    between atoms: C_24  and  O_26
REMARK                            x       y       z     vdW  Elec       q    Type
REMARK                         _______ _______ _______ _____ _____    ______ ____
ROOT
ATOM      1  C   UNL     1       8.302   1.634  23.170  0.00  0.00    +0.176 C 
ATOM      2  C   UNL     1       9.339   1.988  24.251  0.00  0.00    +0.176 C 
ATOM      3  C   UNL     1      10.109   0.737  24.698  0.00  0.00    +0.177 C 
ATOM      4  C   UNL     1       9.122  -0.351  25.156  0.00  0.00    +0.185 C 
ATOM      5  C   UNL     1       8.008  -0.626  24.111  0.00  0.00    +0.212 C 
ATOM      6  O   UNL     1       7.425   0.561  23.563  0.00  0.00    -0.355 OA
ENDROOT
BRANCH   2   7
ATOM      7  O   UNL     1       8.681   2.605  25.369  0.00  0.00    -0.386 OA
ATOM      8  H   UNL     1       9.348   3.131  25.856  0.00  0.00    +0.210 HD
ENDBRANCH   2   7
BRANCH   3   9
ATOM      9  O   UNL     1      10.993   0.310  23.659  0.00  0.00    -0.386 OA
ATOM     10  H   UNL     1      11.393  -0.547  23.892  0.00  0.00    +0.210 HD
ENDBRANCH   3   9
BRANCH   4  11
ATOM     11  O   UNL     1       8.515   0.104  26.386  0.00  0.00    -0.386 OA
ATOM     12  H   UNL     1       7.656  -0.345  26.487  0.00  0.00    +0.210 HD
ENDBRANCH   4  11
BRANCH   1  13
ATOM     13  C   UNL     1       8.903   1.396  21.773  0.00  0.00    +0.190 C 
BRANCH  13  14
ATOM     14  O   UNL     1      10.058   2.190  21.536  0.00  0.00    -0.392 OA
ATOM     15  H   UNL     1      10.692   2.007  22.254  0.00  0.00    +0.210 HD
ENDBRANCH  13  14
ENDBRANCH   1  13
BRANCH   5  16
ATOM     16  S   UNL     1       8.528  -1.845  22.843  0.00  0.00    -0.091 S 
BRANCH  16  17
ATOM     17  C   UNL     1       7.275  -3.100  23.060  0.00  0.00    +0.011 A 
ATOM     18  C   UNL     1       7.654  -4.441  23.193  0.00  0.00    +0.021 A 
ATOM     19  C   UNL     1       6.689  -5.448  23.298  0.00  0.00    +0.085 A 
ATOM     20  C   UNL     1       5.330  -5.114  23.262  0.00  0.00    +0.273 A 
ATOM     21  C   UNL     1       4.937  -3.778  23.121  0.00  0.00    +0.085 A 
ATOM     22  C   UNL     1       5.912  -2.778  23.017  0.00  0.00    +0.021 A 
BRANCH  20  23
ATOM     23  N   UNL     1       4.314  -6.171  23.358  0.00  0.00    +0.080 N 
ATOM     24  O   UNL     1       3.253  -6.008  22.737  0.00  0.00    +0.041 OA
ATOM     25  O   UNL     1       4.576  -7.162  24.053  0.00  0.00    -0.576 OA
ENDBRANCH  20  23
ENDBRANCH  16  17
ENDBRANCH   5  16
TORSDOF 8
ENDMDL
MODEL 3
REMARK VINA RESULT:      -6.1      3.305      7.096
REMARK  Name = 
REMARK  8 active torsions:
REMARK  status: ('A' for Active; 'I' for Inactive)
REMARK    1  A    between atoms: C_2  and  C_3
REMARK    2  A    between atoms: C_3  and  O_4
REMARK    3  A    between atoms: C_6  and  S_8
REMARK    4  A    between atoms: S_8  and  C_9
REMARK    5  A    between atoms: C_12  and  N_15
REMARK    6  A    between atoms: C_18  and  O_20
REMARK    7  A    between atoms: C_21  and  O_23
REMARK    8  A    between atoms: C_24  and  O_26
REMARK                            x       y       z     vdW  Elec       q    Type
REMARK                         _______ _______ _______ _____ _____    ______ ____
ROOT
ATOM      1  C   UNL     1       9.665   2.004  23.853  0.00  0.00    +0.176 C 
ATOM      2  C   UNL     1       9.154   2.175  22.411  0.00  0.00    +0.176 C 
ATOM      3  C   UNL     1       8.188   1.043  22.038  0.00  0.00    +0.177 C 
ATOM      4  C   UNL     1       8.861  -0.321  22.271  0.00  0.00    +0.185 C 
ATOM      5  C   UNL     1       9.476  -0.449  23.690  0.00  0.00    +0.212 C 
ATOM      6  O   UNL     1      10.226   0.700  24.100  0.00  0.00    -0.355 OA
ENDROOT
BRANCH   2   7
ATOM      7  O   UNL     1      10.269   2.210  21.504  0.00  0.00    -0.386 OA
ATOM      8  H   UNL     1      10.188   1.442  20.902  0.00  0.00    +0.210 HD
ENDBRANCH   2   7
BRANCH   3   9
ATOM      9  O   UNL     1       6.953   1.202  22.741  0.00  0.00    -0.386 OA
ATOM     10  H   UNL     1       7.086   1.033  23.691  0.00  0.00    +0.210 HD
ENDBRANCH   3   9
BRANCH   4  11
ATOM     11  O   UNL     1       9.909  -0.461  21.285  0.00  0.00    -0.386 OA
ATOM     12  H   UNL     1      10.228  -1.382  21.308  0.00  0.00    +0.210 HD
ENDBRANCH   4  11
BRANCH   1  13
ATOM     13  C   UNL     1       8.644   2.399  24.935  0.00  0.00    +0.190 C 
BRANCH  13  14
ATOM     14  O   UNL     1       7.815   3.481  24.531  0.00  0.00    -0.392 OA
ATOM     15  H   UNL     1       8.334   4.301  24.630  0.00  0.00    +0.210 HD
ENDBRANCH  13  14
ENDBRANCH   1  13
BRANCH   5  16
ATOM     16  S   UNL     1       8.251  -1.012  24.933  0.00  0.00    -0.091 S 
BRANCH  16  17
ATOM     17  C   UNL     1       7.441  -2.320  24.026  0.00  0.00    +0.011 A 
ATOM     18  C   UNL     1       6.093  -2.184  23.669  0.00  0.00    +0.021 A 
ATOM     19  C   UNL     1       5.420  -3.221  23.017  0.00  0.00    +0.085 A 
ATOM     20  C   UNL     1       6.095  -4.413  22.725  0.00  0.00    +0.273 A 
ATOM     21  C   UNL     1       7.439  -4.566  23.084  0.00  0.00    +0.085 A 
ATOM     22  C   UNL     1       8.104  -3.520  23.736  0.00  0.00    +0.021 A 
BRANCH  20  23
ATOM     23  N   UNL     1       5.385  -5.510  22.052  0.00  0.00    +0.080 N 
ATOM     24  O   UNL     1       4.254  -5.804  22.468  0.00  0.00    +0.041 OA
ATOM     25  O   UNL     1       5.957  -6.076  21.111  0.00  0.00    -0.576 OA
ENDBRANCH  20  23
ENDBRANCH  16  17
ENDBRANCH   5  16
TORSDOF 8
ENDMDL
MODEL 4
REMARK VINA RESULT:      -6.1      1.580      2.082
REMARK  Name = 
REMARK  8 active torsions:
REMARK  status: ('A' for Active; 'I' for Inactive)
REMARK    1  A    between atoms: C_2  and  C_3
REMARK    2  A    between atoms: C_3  and  O_4
REMARK    3  A    between atoms: C_6  and  S_8
REMARK    4  A    between atoms: S_8  and  C_9
REMARK    5  A    between atoms: C_12  and  N_15
REMARK    6  A    between atoms: C_18  and  O_20
REMARK    7  A    between atoms: C_21  and  O_23
REMARK    8  A    between atoms: C_24  and  O_26
REMARK                            x       y       z     vdW  Elec       q    Type
REMARK                         _______ _______ _______ _____ _____    ______ ____
ROOT
ATOM      1  C   UNL     1       7.598  -4.800  25.017  0.00  0.00    +0.176 C 
ATOM      2  C   UNL     1       7.891  -4.647  23.513  0.00  0.00    +0.176 C 
ATOM      3  C   UNL     1       8.489  -3.265  23.213  0.00  0.00    +0.177 C 
ATOM      4  C   UNL     1       7.562  -2.163  23.752  0.00  0.00    +0.185 C 
ATOM      5  C   UNL     1       7.175  -2.381  25.239  0.00  0.00    +0.212 C 
ATOM      6  O   UNL     1       6.794  -3.727  25.545  0.00  0.00    -0.355 OA
ENDROOT
BRANCH   2   7
ATOM      7  O   UNL     1       6.683  -4.850  22.762  0.00  0.00    -0.386 OA
ATOM      8  H   UNL     1       6.814  -4.459  21.874  0.00  0.00    +0.210 HD
ENDBRANCH   2   7
BRANCH   3   9
ATOM      9  O   UNL     1       9.825  -3.191  23.718  0.00  0.00    -0.386 OA
ATOM     10  H   UNL     1      10.071  -4.036  24.136  0.00  0.00    +0.210 HD
ENDBRANCH   3   9
BRANCH   4  11
ATOM     11  O   UNL     1       6.363  -2.171  22.945  0.00  0.00    -0.386 OA
ATOM     12  H   UNL     1       5.621  -1.868  23.498  0.00  0.00    +0.210 HD
ENDBRANCH   4  11
BRANCH   1  13
ATOM     13  C   UNL     1       8.847  -5.055  25.880  0.00  0.00    +0.190 C 
BRANCH  13  14
ATOM     14  O   UNL     1       9.827  -5.829  25.202  0.00  0.00    -0.392 OA
ATOM     15  H   UNL     1      10.481  -6.119  25.865  0.00  0.00    +0.210 HD
ENDBRANCH  13  14
ENDBRANCH   1  13
BRANCH   5  16
ATOM     16  S   UNL     1       8.420  -1.687  26.393  0.00  0.00    -0.091 S 
BRANCH  16  17
ATOM     17  C   UNL     1       8.853  -0.179  25.540  0.00  0.00    +0.011 A 
ATOM     18  C   UNL     1      10.147  -0.020  25.027  0.00  0.00    +0.021 A 
ATOM     19  C   UNL     1      10.529   1.177  24.413  0.00  0.00    +0.085 A 
ATOM     20  C   UNL     1       9.614   2.232  24.317  0.00  0.00    +0.273 A 
ATOM     21  C   UNL     1       8.320   2.091  24.833  0.00  0.00    +0.085 A 
ATOM     22  C   UNL     1       7.948   0.887  25.446  0.00  0.00    +0.021 A 
BRANCH  20  23
ATOM     23  N   UNL     1      10.017   3.496  23.685  0.00  0.00    +0.080 N 
ATOM     24  O   UNL     1      11.210   3.628  23.374  0.00  0.00    +0.041 OA
ATOM     25  O   UNL     1       9.143   4.353  23.500  0.00  0.00    -0.576 OA
ENDBRANCH  20  23
ENDBRANCH  16  17
ENDBRANCH   5  16
TORSDOF 8
ENDMDL
MODEL 5
REMARK VINA RESULT:      -6.0      1.439      2.775
REMARK  Name = 
REMARK  8 active torsions:
REMARK  status: ('A' for Active; 'I' for Inactive)
REMARK    1  A    between atoms: C_2  and  C_3
REMARK    2  A    between atoms: C_3  and  O_4
REMARK    3  A    between atoms: C_6  and  S_8
REMARK    4  A    between atoms: S_8  and  C_9
REMARK    5  A    between atoms: C_12  and  N_15
REMARK    6  A    between atoms: C_18  and  O_20
REMARK    7  A    between atoms: C_21  and  O_23
REMARK    8  A    between atoms: C_24  and  O_26
REMARK                            x       y       z     vdW  Elec       q    Type
REMARK                         _______ _______ _______ _____ _____    ______ ____
ROOT
ATOM      1  C   UNL     1       7.165  -4.436  23.488  0.00  0.00    +0.176 C 
ATOM      2  C   UNL     1       6.022  -3.680  24.189  0.00  0.00    +0.176 C 
ATOM      3  C   UNL     1       6.183  -2.164  24.011  0.00  0.00    +0.177 C 
ATOM      4  C   UNL     1       7.574  -1.722  24.499  0.00  0.00    +0.185 C 
ATOM      5  C   UNL     1       8.720  -2.563  23.876  0.00  0.00    +0.212 C 
ATOM      6  O   UNL     1       8.471  -3.972  23.881  0.00  0.00    -0.355 OA
ENDROOT
BRANCH   2   7
ATOM      7  O   UNL     1       5.997  -4.027  25.583  0.00  0.00    -0.386 OA
ATOM      8  H   UNL     1       5.062  -4.027  25.874  0.00  0.00    +0.210 HD
ENDBRANCH   2   7
BRANCH   3   9
ATOM      9  O   UNL     1       5.905  -1.798  22.657  0.00  0.00    -0.386 OA
ATOM     10  H   UNL     1       5.802  -2.598  22.110  0.00  0.00    +0.210 HD
ENDBRANCH   3   9
BRANCH   4  11
ATOM     11  O   UNL     1       7.599  -1.876  25.935  0.00  0.00    -0.386 OA
ATOM     12  H   UNL     1       6.690  -2.051  26.239  0.00  0.00    +0.210 HD
ENDBRANCH   4  11
BRANCH   1  13
ATOM     13  C   UNL     1       7.025  -4.511  21.956  0.00  0.00    +0.190 C 
BRANCH  13  14
ATOM     14  O   UNL     1       5.667  -4.521  21.535  0.00  0.00    -0.392 OA
ATOM     15  H   UNL     1       5.623  -4.054  20.680  0.00  0.00    +0.210 HD
ENDBRANCH  13  14
ENDBRANCH   1  13
BRANCH   5  16
ATOM     16  S   UNL     1       9.253  -1.914  22.245  0.00  0.00    -0.091 S 
BRANCH  16  17
ATOM     17  C   UNL     1       9.668  -0.232  22.679  0.00  0.00    +0.011 A 
ATOM     18  C   UNL     1       9.341   0.810  21.804  0.00  0.00    +0.021 A 
ATOM     19  C   UNL     1       9.714   2.127  22.091  0.00  0.00    +0.085 A 
ATOM     20  C   UNL     1      10.429   2.407  23.262  0.00  0.00    +0.273 A 
ATOM     21  C   UNL     1      10.770   1.374  24.142  0.00  0.00    +0.085 A 
ATOM     22  C   UNL     1      10.391   0.058  23.844  0.00  0.00    +0.021 A 
BRANCH  20  23
ATOM     23  N   UNL     1      10.834   3.788  23.559  0.00  0.00    +0.080 N 
ATOM     24  O   UNL     1       9.964   4.563  23.984  0.00  0.00    +0.041 OA
ATOM     25  O   UNL     1      12.018   4.096  23.370  0.00  0.00    -0.576 OA
ENDBRANCH  20  23
ENDBRANCH  16  17
ENDBRANCH   5  16
TORSDOF 8
ENDMDL
MODEL 6
REMARK VINA RESULT:      -5.7      3.099      7.030
REMARK  Name = 
REMARK  8 active torsions:
REMARK  status: ('A' for Active; 'I' for Inactive)
REMARK    1  A    between atoms: C_2  and  C_3
REMARK    2  A    between atoms: C_3  and  O_4
REMARK    3  A    between atoms: C_6  and  S_8
REMARK    4  A    between atoms: S_8  and  C_9
REMARK    5  A    between atoms: C_12  and  N_15
REMARK    6  A    between atoms: C_18  and  O_20
REMARK    7  A    between atoms: C_21  and  O_23
REMARK    8  A    between atoms: C_24  and  O_26
REMARK                            x       y       z     vdW  Elec       q    Type
REMARK                         _______ _______ _______ _____ _____    ______ ____
ROOT
ATOM      1  C   UNL     1       8.599   1.871  22.176  0.00  0.00    +0.176 C 
ATOM      2  C   UNL     1       7.934   2.488  23.420  0.00  0.00    +0.176 C 
ATOM      3  C   UNL     1       7.946   1.497  24.592  0.00  0.00    +0.177 C 
ATOM      4  C   UNL     1       7.293   0.171  24.166  0.00  0.00    +0.185 C 
ATOM      5  C   UNL     1       7.888  -0.392  22.848  0.00  0.00    +0.212 C 
ATOM      6  O   UNL     1       8.044   0.591  21.819  0.00  0.00    -0.355 OA
ENDROOT
BRANCH   2   7
ATOM      7  O   UNL     1       6.589   2.882  23.104  0.00  0.00    -0.386 OA
ATOM      8  H   UNL     1       6.161   3.177  23.934  0.00  0.00    +0.210 HD
ENDBRANCH   2   7
BRANCH   3   9
ATOM      9  O   UNL     1       9.278   1.347  25.092  0.00  0.00    -0.386 OA
ATOM     10  H   UNL     1       9.571   0.423  24.988  0.00  0.00    +0.210 HD
ENDBRANCH   3   9
BRANCH   4  11
ATOM     11  O   UNL     1       5.882   0.423  23.979  0.00  0.00    -0.386 OA
ATOM     12  H   UNL     1       5.705   0.473  23.022  0.00  0.00    +0.210 HD
ENDBRANCH   4  11
BRANCH   1  13
ATOM     13  C   UNL     1      10.137   1.828  22.239  0.00  0.00    +0.190 C 
BRANCH  13  14
ATOM     14  O   UNL     1      10.690   2.998  22.825  0.00  0.00    -0.392 OA
ATOM     15  H   UNL     1      11.229   2.717  23.588  0.00  0.00    +0.210 HD
ENDBRANCH  13  14
ENDBRANCH   1  13
BRANCH   5  16
ATOM     16  S   UNL     1       9.391  -1.402  23.137  0.00  0.00    -0.091 S 
BRANCH  16  17
ATOM     17  C   UNL     1       8.730  -2.680  24.196  0.00  0.00    +0.011 A 
ATOM     18  C   UNL     1       7.879  -3.654  23.659  0.00  0.00    +0.021 A 
ATOM     19  C   UNL     1       7.298  -4.624  24.480  0.00  0.00    +0.085 A 
ATOM     20  C   UNL     1       7.561  -4.619  25.855  0.00  0.00    +0.273 A 
ATOM     21  C   UNL     1       8.403  -3.647  26.407  0.00  0.00    +0.085 A 
ATOM     22  C   UNL     1       8.980  -2.679  25.574  0.00  0.00    +0.021 A 
BRANCH  20  23
ATOM     23  N   UNL     1       6.940  -5.630  26.723  0.00  0.00    +0.080 N 
ATOM     24  O   UNL     1       5.994  -6.283  26.259  0.00  0.00    +0.041 OA
ATOM     25  O   UNL     1       7.399  -5.771  27.864  0.00  0.00    -0.576 OA
ENDBRANCH  20  23
ENDBRANCH  16  17
ENDBRANCH   5  16
TORSDOF 8
ENDMDL
MODEL 7
REMARK VINA RESULT:      -5.7      1.584      2.677
REMARK  Name = 
REMARK  8 active torsions:
REMARK  status: ('A' for Active; 'I' for Inactive)
REMARK    1  A    between atoms: C_2  and  C_3
REMARK    2  A    between atoms: C_3  and  O_4
REMARK    3  A    between atoms: C_6  and  S_8
REMARK    4  A    between atoms: S_8  and  C_9
REMARK    5  A    between atoms: C_12  and  N_15
REMARK    6  A    between atoms: C_18  and  O_20
REMARK    7  A    between atoms: C_21  and  O_23
REMARK    8  A    between atoms: C_24  and  O_26
REMARK                            x       y       z     vdW  Elec       q    Type
REMARK                         _______ _______ _______ _____ _____    ______ ____
ROOT
ATOM      1  C   UNL     1       7.285  -4.805  23.890  0.00  0.00    +0.176 C 
ATOM      2  C   UNL     1       8.312  -4.854  25.036  0.00  0.00    +0.176 C 
ATOM      3  C   UNL     1       8.732  -3.438  25.453  0.00  0.00    +0.177 C 
ATOM      4  C   UNL     1       9.245  -2.661  24.228  0.00  0.00    +0.185 C 
ATOM      5  C   UNL     1       8.257  -2.708  23.032  0.00  0.00    +0.212 C 
ATOM      6  O   UNL     1       7.728  -4.013  22.772  0.00  0.00    -0.355 OA
ENDROOT
BRANCH   2   7
ATOM      7  O   UNL     1       9.456  -5.622  24.628  0.00  0.00    -0.386 OA
ATOM      8  H   UNL     1       9.752  -6.150  25.398  0.00  0.00    +0.210 HD
ENDBRANCH   2   7
BRANCH   3   9
ATOM      9  O   UNL     1       7.655  -2.790  26.134  0.00  0.00    -0.386 OA
ATOM     10  H   UNL     1       7.071  -3.454  26.544  0.00  0.00    +0.210 HD
ENDBRANCH   3   9
BRANCH   4  11
ATOM     11  O   UNL     1      10.500  -3.258  23.830  0.00  0.00    -0.386 OA
ATOM     12  H   UNL     1      10.568  -4.134  24.253  0.00  0.00    +0.210 HD
ENDBRANCH   4  11
BRANCH   1  13
ATOM     13  C   UNL     1       5.863  -4.419  24.335  0.00  0.00    +0.190 C 
BRANCH  13  14
ATOM     14  O   UNL     1       4.925  -4.474  23.268  0.00  0.00    -0.392 OA
ATOM     15  H   UNL     1       5.137  -5.262  22.733  0.00  0.00    +0.210 HD
ENDBRANCH  13  14
ENDBRANCH   1  13
BRANCH   5  16
ATOM     16  S   UNL     1       6.976  -1.400  23.134  0.00  0.00    -0.091 S 
BRANCH  16  17
ATOM     17  C   UNL     1       8.002   0.055  23.269  0.00  0.00    +0.011 A 
ATOM     18  C   UNL     1       8.009   0.791  24.461  0.00  0.00    +0.021 A 
ATOM     19  C   UNL     1       8.753   1.969  24.568  0.00  0.00    +0.085 A 
ATOM     20  C   UNL     1       9.493   2.426  23.470  0.00  0.00    +0.273 A 
ATOM     21  C   UNL     1       9.489   1.706  22.270  0.00  0.00    +0.085 A 
ATOM     22  C   UNL     1       8.740   0.526  22.175  0.00  0.00    +0.021 A 
BRANCH  20  23
ATOM     23  N   UNL     1      10.265   3.672  23.575  0.00  0.00    +0.080 N 
ATOM     24  O   UNL     1       9.658   4.697  23.921  0.00  0.00    +0.041 OA
ATOM     25  O   UNL     1      11.474   3.626  23.312  0.00  0.00    -0.576 OA
ENDBRANCH  20  23
ENDBRANCH  16  17
ENDBRANCH   5  16
TORSDOF 8
ENDMDL
MODEL 8
REMARK VINA RESULT:      -5.7      1.068      1.650
REMARK  Name = 
REMARK  8 active torsions:
REMARK  status: ('A' for Active; 'I' for Inactive)
REMARK    1  A    between atoms: C_2  and  C_3
REMARK    2  A    between atoms: C_3  and  O_4
REMARK    3  A    between atoms: C_6  and  S_8
REMARK    4  A    between atoms: S_8  and  C_9
REMARK    5  A    between atoms: C_12  and  N_15
REMARK    6  A    between atoms: C_18  and  O_20
REMARK    7  A    between atoms: C_21  and  O_23
REMARK    8  A    between atoms: C_24  and  O_26
REMARK                            x       y       z     vdW  Elec       q    Type
REMARK                         _______ _______ _______ _____ _____    ______ ____
ROOT
ATOM      1  C   UNL     1       5.789  -4.055  24.633  0.00  0.00    +0.176 C 
ATOM      2  C   UNL     1       5.391  -5.023  23.503  0.00  0.00    +0.176 C 
ATOM      3  C   UNL     1       6.483  -5.081  22.427  0.00  0.00    +0.177 C 
ATOM      4  C   UNL     1       6.791  -3.664  21.913  0.00  0.00    +0.185 C 
ATOM      5  C   UNL     1       7.081  -2.662  23.062  0.00  0.00    +0.212 C 
ATOM      6  O   UNL     1       6.155  -2.748  24.151  0.00  0.00    -0.355 OA
ENDROOT
BRANCH   2   7
ATOM      7  O   UNL     1       4.138  -4.611  22.934  0.00  0.00    -0.386 OA
ATOM      8  H   UNL     1       4.168  -4.806  21.974  0.00  0.00    +0.210 HD
ENDBRANCH   2   7
BRANCH   3   9
ATOM      9  O   UNL     1       7.630  -5.772  22.930  0.00  0.00    -0.386 OA
ATOM     10  H   UNL     1       8.444  -5.323  22.638  0.00  0.00    +0.210 HD
ENDBRANCH   3   9
BRANCH   4  11
ATOM     11  O   UNL     1       5.637  -3.212  21.170  0.00  0.00    -0.386 OA
ATOM     12  H   UNL     1       5.931  -2.953  20.278  0.00  0.00    +0.210 HD
ENDBRANCH   4  11
BRANCH   1  13
ATOM     13  C   UNL     1       6.842  -4.620  25.605  0.00  0.00    +0.190 C 
BRANCH  13  14
ATOM     14  O   UNL     1       6.614  -5.987  25.919  0.00  0.00    -0.392 OA
ATOM     15  H   UNL     1       7.071  -6.523  25.244  0.00  0.00    +0.210 HD
ENDBRANCH  13  14
ENDBRANCH   1  13
BRANCH   5  16
ATOM     16  S   UNL     1       8.838  -2.690  23.585  0.00  0.00    -0.091 S 
BRANCH  16  17
ATOM     17  C   UNL     1       9.196  -0.940  23.629  0.00  0.00    +0.011 A 
ATOM     18  C   UNL     1       8.653  -0.097  22.651  0.00  0.00    +0.021 A 
ATOM     19  C   UNL     1       8.972   1.264  22.626  0.00  0.00    +0.085 A 
ATOM     20  C   UNL     1       9.850   1.790  23.582  0.00  0.00    +0.273 A 
ATOM     21  C   UNL     1      10.406   0.957  24.560  0.00  0.00    +0.085 A 
ATOM     22  C   UNL     1      10.080  -0.405  24.575  0.00  0.00    +0.021 A 
BRANCH  20  23
ATOM     23  N   UNL     1      10.197   3.218  23.550  0.00  0.00    +0.080 N 
ATOM     24  O   UNL     1      11.381   3.517  23.333  0.00  0.00    +0.041 OA
ATOM     25  O   UNL     1       9.288   4.037  23.740  0.00  0.00    -0.576 OA
ENDBRANCH  20  23
ENDBRANCH  16  17
ENDBRANCH   5  16
TORSDOF 8
ENDMDL
MODEL 9
REMARK VINA RESULT:      -5.7      3.246      7.016
REMARK  Name = 
REMARK  8 active torsions:
REMARK  status: ('A' for Active; 'I' for Inactive)
REMARK    1  A    between atoms: C_2  and  C_3
REMARK    2  A    between atoms: C_3  and  O_4
REMARK    3  A    between atoms: C_6  and  S_8
REMARK    4  A    between atoms: S_8  and  C_9
REMARK    5  A    between atoms: C_12  and  N_15
REMARK    6  A    between atoms: C_18  and  O_20
REMARK    7  A    between atoms: C_21  and  O_23
REMARK    8  A    between atoms: C_24  and  O_26
REMARK                            x       y       z     vdW  Elec       q    Type
REMARK                         _______ _______ _______ _____ _____    ______ ____
ROOT
ATOM      1  C   UNL     1       8.940  -0.346  22.021  0.00  0.00    +0.176 C 
ATOM      2  C   UNL     1       9.803   0.929  22.033  0.00  0.00    +0.176 C 
ATOM      3  C   UNL     1      10.093   1.378  23.472  0.00  0.00    +0.177 C 
ATOM      4  C   UNL     1       8.773   1.548  24.244  0.00  0.00    +0.185 C 
ATOM      5  C   UNL     1       7.853   0.303  24.137  0.00  0.00    +0.212 C 
ATOM      6  O   UNL     1       7.741  -0.219  22.809  0.00  0.00    -0.355 OA
ENDROOT
BRANCH   2   7
ATOM      7  O   UNL     1       9.137   1.970  21.301  0.00  0.00    -0.386 OA
ATOM      8  H   UNL     1       9.743   2.738  21.254  0.00  0.00    +0.210 HD
ENDBRANCH   2   7
BRANCH   3   9
ATOM      9  O   UNL     1      11.009   0.473  24.091  0.00  0.00    -0.386 OA
ATOM     10  H   UNL     1      10.890   0.487  25.059  0.00  0.00    +0.210 HD
ENDBRANCH   3   9
BRANCH   4  11
ATOM     11  O   UNL     1       8.089   2.692  23.687  0.00  0.00    -0.386 OA
ATOM     12  H   UNL     1       8.754   3.370  23.469  0.00  0.00    +0.210 HD
ENDBRANCH   4  11
BRANCH   1  13
ATOM     13  C   UNL     1       9.713  -1.633  22.363  0.00  0.00    +0.190 C 
BRANCH  13  14
ATOM     14  O   UNL     1      11.043  -1.618  21.862  0.00  0.00    -0.392 OA
ATOM     15  H   UNL     1      11.415  -0.735  22.047  0.00  0.00    +0.210 HD
ENDBRANCH  13  14
ENDBRANCH   1  13
BRANCH   5  16
ATOM     16  S   UNL     1       8.251  -0.968  25.398  0.00  0.00    -0.091 S 
BRANCH  16  17
ATOM     17  C   UNL     1       7.101  -2.256  24.941  0.00  0.00    +0.011 A 
ATOM     18  C   UNL     1       7.585  -3.518  24.572  0.00  0.00    +0.021 A 
ATOM     19  C   UNL     1       6.709  -4.521  24.147  0.00  0.00    +0.085 A 
ATOM     20  C   UNL     1       5.334  -4.262  24.081  0.00  0.00    +0.273 A 
ATOM     21  C   UNL     1       4.838  -3.003  24.438  0.00  0.00    +0.085 A 
ATOM     22  C   UNL     1       5.725  -2.005  24.863  0.00  0.00    +0.021 A 
BRANCH  20  23
ATOM     23  N   UNL     1       4.413  -5.311  23.622  0.00  0.00    +0.080 N 
ATOM     24  O   UNL     1       4.541  -6.443  24.112  0.00  0.00    +0.041 OA
ATOM     25  O   UNL     1       3.564  -5.003  22.775  0.00  0.00    -0.576 OA
ENDBRANCH  20  23
ENDBRANCH  16  17
ENDBRANCH   5  16
TORSDOF 8
ENDMDL
