MODEL 1
REMARK VINA RESULT:      -6.5      0.000      0.000
REMARK  Name = 
REMARK  8 active torsions:
REMARK  status: ('A' for Active; 'I' for Inactive)
REMARK    1  A    between atoms: O_1  and  C_2
REMARK    2  A    between atoms: C_2  and  C_3
REMARK    3  A    between atoms: C_6  and  N_18
REMARK    4  A    between atoms: C_8  and  O_10
REMARK    5  A    between atoms: C_11  and  O_13
REMARK    6  A    between atoms: O_13  and  P_14
REMARK    7  A    between atoms: P_14  and  O_15
REMARK    8  A    between atoms: P_14  and  O_16
REMARK                            x       y       z     vdW  Elec       q    Type
REMARK                         _______ _______ _______ _____ _____    ______ ____
ROOT
ATOM      1  C   UNL     1       7.495  -2.548  24.046  0.00  0.00    +0.178 C 
ATOM      2  C   UNL     1       8.805  -2.956  23.359  0.00  0.00    +0.194 C 
ATOM      3  C   UNL     1       9.387  -1.661  22.821  0.00  0.00    +0.196 C 
ATOM      4  C   UNL     1       8.265  -0.621  23.007  0.00  0.00    +0.255 C 
ATOM      5  O   UNL     1       7.462  -1.115  24.096  0.00  0.00    -0.346 OA
ENDROOT
BRANCH   4   6
ATOM      6  N   UNL     1       8.724   0.748  23.319  0.00  0.00    -0.271 N 
ATOM      7  C   UNL     1       9.165   1.564  22.283  0.00  0.00    +0.331 A 
ATOM      8  O   UNL     1       9.202   1.221  21.105  0.00  0.00    -0.246 OA
ATOM      9  N   UNL     1       9.573   2.818  22.640  0.00  0.00    -0.275 N 
ATOM     10  H   UNL     1       9.922   3.408  21.902  0.00  0.00    +0.173 HD
ATOM     11  C   UNL     1       9.388   3.403  23.858  0.00  0.00    +0.254 A 
ATOM     12  O   UNL     1       9.667   4.570  24.089  0.00  0.00    -0.268 OA
ATOM     13  C   UNL     1       8.806   2.540  24.894  0.00  0.00    +0.088 A 
ATOM     14  C   UNL     1       8.508   1.278  24.586  0.00  0.00    +0.098 A 
ENDBRANCH   4   6
BRANCH   3  15
ATOM     15  O   UNL     1       9.754  -1.828  21.448  0.00  0.00    -0.385 OA
ATOM     16  H   UNL     1       9.839  -0.922  21.080  0.00  0.00    +0.210 HD
ENDBRANCH   3  15
BRANCH   1  17
ATOM     17  C   UNL     1       6.258  -3.072  23.297  0.00  0.00    +0.190 C 
BRANCH  17  18
ATOM     18  O   UNL     1       6.639  -3.919  22.220  0.00  0.00    -0.392 OA
ATOM     19  H   UNL     1       7.094  -4.692  22.598  0.00  0.00    +0.210 HD
ENDBRANCH  17  18
ENDBRANCH   1  17
BRANCH   2  20
ATOM     20  O   UNL     1       9.731  -3.548  24.305  0.00  0.00    -0.278 OA
BRANCH  20  21
ATOM     21  P   UNL     1       8.932  -4.750  25.259  0.00  0.00    +0.473 P 
ATOM     22  O   UNL     1       8.217  -5.825  26.114  0.00  0.00    -0.228 OA
BRANCH  21  23
ATOM     23  O   UNL     1      10.436  -5.364  25.467  0.00  0.00    -0.303 OA
ATOM     24  H   UNL     1      10.435  -6.336  25.424  0.00  0.00    +0.222 HD
ENDBRANCH  21  23
BRANCH  21  25
ATOM     25  O   UNL     1       8.696  -5.501  23.828  0.00  0.00    -0.303 OA
ATOM     26  H   UNL     1       9.086  -4.925  23.144  0.00  0.00    +0.222 HD
ENDBRANCH  21  25
ENDBRANCH  20  21
ENDBRANCH   2  20
TORSDOF 8
ENDMDL
MODEL 2
REMARK VINA RESULT:      -6.4      2.897      6.538
REMARK  Name = 
REMARK  8 active torsions:
REMARK  status: ('A' for Active; 'I' for Inactive)
REMARK    1  A    between atoms: O_1  and  C_2
REMARK    2  A    between atoms: C_2  and  C_3
REMARK    3  A    between atoms: C_6  and  N_18
REMARK    4  A    between atoms: C_8  and  O_10
REMARK    5  A    between atoms: C_11  and  O_13
REMARK    6  A    between atoms: O_13  and  P_14
REMARK    7  A    between atoms: P_14  and  O_15
REMARK    8  A    between atoms: P_14  and  O_16
REMARK                            x       y       z     vdW  Elec       q    Type
REMARK                         _______ _______ _______ _____ _____    ______ ____
ROOT
ATOM      1  C   UNL     1       8.644   0.023  24.126  0.00  0.00    +0.178 C 
ATOM      2  C   UNL     1       9.790  -0.494  23.246  0.00  0.00    +0.194 C 
ATOM      3  C   UNL     1       9.460  -1.954  22.989  0.00  0.00    +0.196 C 
ATOM      4  C   UNL     1       8.284  -2.262  23.936  0.00  0.00    +0.255 C 
ATOM      5  O   UNL     1       7.635  -0.996  24.165  0.00  0.00    -0.346 OA
ENDROOT
BRANCH   4   6
ATOM      6  N   UNL     1       7.298  -3.230  23.415  0.00  0.00    -0.271 N 
ATOM      7  C   UNL     1       7.587  -4.588  23.482  0.00  0.00    +0.331 A 
ATOM      8  O   UNL     1       8.625  -5.050  23.948  0.00  0.00    -0.246 OA
ATOM      9  N   UNL     1       6.632  -5.430  22.986  0.00  0.00    -0.275 N 
ATOM     10  H   UNL     1       6.843  -6.415  23.002  0.00  0.00    +0.173 HD
ATOM     11  C   UNL     1       5.360  -5.081  22.640  0.00  0.00    +0.254 A 
ATOM     12  O   UNL     1       4.508  -5.894  22.313  0.00  0.00    -0.268 OA
ATOM     13  C   UNL     1       5.058  -3.645  22.700  0.00  0.00    +0.088 A 
ATOM     14  C   UNL     1       6.020  -2.801  23.076  0.00  0.00    +0.098 A 
ENDBRANCH   4   6
BRANCH   3  15
ATOM     15  O   UNL     1      10.608  -2.764  23.263  0.00  0.00    -0.385 OA
ATOM     16  H   UNL     1      11.090  -2.843  22.411  0.00  0.00    +0.210 HD
ENDBRANCH   3  15
BRANCH   1  17
ATOM     17  C   UNL     1       9.110   0.349  25.555  0.00  0.00    +0.190 C 
BRANCH  17  18
ATOM     18  O   UNL     1      10.524   0.494  25.606  0.00  0.00    -0.392 OA
ATOM     19  H   UNL     1      10.917  -0.294  25.190  0.00  0.00    +0.210 HD
ENDBRANCH  17  18
ENDBRANCH   1  17
BRANCH   2  20
ATOM     20  O   UNL     1       9.845   0.220  21.985  0.00  0.00    -0.278 OA
BRANCH  20  21
ATOM     21  P   UNL     1       8.953   1.699  22.089  0.00  0.00    +0.473 P 
ATOM     22  O   UNL     1       8.155   3.022  22.182  0.00  0.00    -0.228 OA
BRANCH  21  23
ATOM     23  O   UNL     1       8.477   1.340  20.564  0.00  0.00    -0.303 OA
ATOM     24  H   UNL     1       8.293   0.390  20.460  0.00  0.00    +0.222 HD
ENDBRANCH  21  23
BRANCH  21  25
ATOM     25  O   UNL     1      10.355   2.391  21.614  0.00  0.00    -0.303 OA
ATOM     26  H   UNL     1      11.074   1.854  21.997  0.00  0.00    +0.222 HD
ENDBRANCH  21  25
ENDBRANCH  20  21
ENDBRANCH   2  20
TORSDOF 8
ENDMDL
MODEL 3
REMARK VINA RESULT:      -6.3      2.056      3.876
REMARK  Name = 
REMARK  8 active torsions:
REMARK  status: ('A' for Active; 'I' for Inactive)
REMARK    1  A    between atoms: O_1  and  C_2
REMARK    2  A    between atoms: C_2  and  C_3
REMARK    3  A    between atoms: C_6  and  N_18
REMARK    4  A    between atoms: C_8  and  O_10
REMARK    5  A    between atoms: C_11  and  O_13
REMARK    6  A    between atoms: O_13  and  P_14
REMARK    7  A    between atoms: P_14  and  O_15
REMARK    8  A    between atoms: P_14  and  O_16
REMARK                            x       y       z     vdW  Elec       q    Type
REMARK                         _______ _______ _______ _____ _____    ______ ____
ROOT
ATOM      1  C   UNL     1       8.337  -4.811  24.232  0.00  0.00    +0.178 C 
ATOM      2  C   UNL     1       7.014  -4.261  24.784  0.00  0.00    +0.194 C 
ATOM      3  C   UNL     1       7.204  -2.755  24.831  0.00  0.00    +0.196 C 
ATOM      4  C   UNL     1       8.703  -2.540  24.545  0.00  0.00    +0.255 C 
ATOM      5  O   UNL     1       9.116  -3.692  23.785  0.00  0.00    -0.346 OA
ENDROOT
BRANCH   4   6
ATOM      6  N   UNL     1       9.026  -1.314  23.788  0.00  0.00    -0.271 N 
ATOM      7  C   UNL     1       9.201  -0.121  24.480  0.00  0.00    +0.331 A 
ATOM      8  O   UNL     1       9.100  -0.010  25.699  0.00  0.00    -0.246 OA
ATOM      9  N   UNL     1       9.501   0.975  23.721  0.00  0.00    -0.275 N 
ATOM     10  H   UNL     1       9.601   1.851  24.209  0.00  0.00    +0.173 HD
ATOM     11  C   UNL     1       9.851   0.963  22.403  0.00  0.00    +0.254 A 
ATOM     12  O   UNL     1      10.225   1.959  21.802  0.00  0.00    -0.268 OA
ATOM     13  C   UNL     1       9.770  -0.343  21.737  0.00  0.00    +0.088 A 
ATOM     14  C   UNL     1       9.369  -1.400  22.443  0.00  0.00    +0.098 A 
ENDBRANCH   4   6
BRANCH   3  15
ATOM     15  O   UNL     1       6.817  -2.259  26.117  0.00  0.00    -0.385 OA
ATOM     16  H   UNL     1       7.591  -1.755  26.454  0.00  0.00    +0.210 HD
ENDBRANCH   3  15
BRANCH   1  17
ATOM     17  C   UNL     1       9.122  -5.604  25.289  0.00  0.00    +0.190 C 
BRANCH  17  18
ATOM     18  O   UNL     1      10.521  -5.390  25.147  0.00  0.00    -0.392 OA
ATOM     19  H   UNL     1      10.646  -4.664  24.510  0.00  0.00    +0.210 HD
ENDBRANCH  17  18
ENDBRANCH   1  17
BRANCH   2  20
ATOM     20  O   UNL     1       5.906  -4.583  23.906  0.00  0.00    -0.278 OA
BRANCH  20  21
ATOM     21  P   UNL     1       6.486  -5.278  22.432  0.00  0.00    +0.473 P 
ATOM     22  O   UNL     1       7.005  -5.900  21.113  0.00  0.00    -0.228 OA
BRANCH  21  23
ATOM     23  O   UNL     1       5.417  -4.266  21.714  0.00  0.00    -0.303 OA
ATOM     24  H   UNL     1       5.868  -3.572  21.202  0.00  0.00    +0.222 HD
ENDBRANCH  21  23
BRANCH  21  25
ATOM     25  O   UNL     1       5.371  -6.436  22.726  0.00  0.00    -0.303 OA
ATOM     26  H   UNL     1       5.825  -7.139  23.227  0.00  0.00    +0.222 HD
ENDBRANCH  21  25
ENDBRANCH  20  21
ENDBRANCH   2  20
TORSDOF 8
ENDMDL
MODEL 4
REMARK VINA RESULT:      -6.2      3.243      6.627
REMARK  Name = 
REMARK  8 active torsions:
REMARK  status: ('A' for Active; 'I' for Inactive)
REMARK    1  A    between atoms: O_1  and  C_2
REMARK    2  A    between atoms: C_2  and  C_3
REMARK    3  A    between atoms: C_6  and  N_18
REMARK    4  A    between atoms: C_8  and  O_10
REMARK    5  A    between atoms: C_11  and  O_13
REMARK    6  A    between atoms: O_13  and  P_14
REMARK    7  A    between atoms: P_14  and  O_15
REMARK    8  A    between atoms: P_14  and  O_16
REMARK                            x       y       z     vdW  Elec       q    Type
REMARK                         _______ _______ _______ _____ _____    ______ ____
ROOT
ATOM      1  C   UNL     1       9.150  -1.006  23.484  0.00  0.00    +0.178 C 
ATOM      2  C   UNL     1       7.749  -1.017  22.857  0.00  0.00    +0.194 C 
ATOM      3  C   UNL     1       7.134  -2.335  23.292  0.00  0.00    +0.196 C 
ATOM      4  C   UNL     1       8.297  -3.118  23.932  0.00  0.00    +0.255 C 
ATOM      5  O   UNL     1       9.226  -2.117  24.389  0.00  0.00    -0.346 OA
ENDROOT
BRANCH   4   6
ATOM      6  N   UNL     1       7.919  -3.988  25.064  0.00  0.00    -0.271 N 
ATOM      7  C   UNL     1       8.780  -5.012  25.444  0.00  0.00    +0.331 A 
ATOM      8  O   UNL     1       9.851  -5.251  24.893  0.00  0.00    -0.246 OA
ATOM      9  N   UNL     1       8.373  -5.777  26.500  0.00  0.00    -0.275 N 
ATOM     10  H   UNL     1       8.974  -6.541  26.765  0.00  0.00    +0.173 HD
ATOM     11  C   UNL     1       7.329  -5.500  27.333  0.00  0.00    +0.254 A 
ATOM     12  O   UNL     1       7.080  -6.155  28.334  0.00  0.00    -0.268 OA
ATOM     13  C   UNL     1       6.515  -4.335  26.964  0.00  0.00    +0.088 A 
ATOM     14  C   UNL     1       6.838  -3.646  25.869  0.00  0.00    +0.098 A 
ENDBRANCH   4   6
BRANCH   3  15
ATOM     15  O   UNL     1       6.581  -3.010  22.157  0.00  0.00    -0.385 OA
ATOM     16  H   UNL     1       7.344  -3.234  21.580  0.00  0.00    +0.210 HD
ENDBRANCH   3  15
BRANCH   1  17
ATOM     17  C   UNL     1      10.261  -1.119  22.427  0.00  0.00    +0.190 C 
BRANCH  17  18
ATOM     18  O   UNL     1       9.717  -1.080  21.114  0.00  0.00    -0.392 OA
ATOM     19  H   UNL     1       9.541  -0.148  20.894  0.00  0.00    +0.210 HD
ENDBRANCH  17  18
ENDBRANCH   1  17
BRANCH   2  20
ATOM     20  O   UNL     1       6.944   0.081  23.353  0.00  0.00    -0.278 OA
BRANCH  20  21
ATOM     21  P   UNL     1       7.359   1.550  22.539  0.00  0.00    +0.473 P 
ATOM     22  O   UNL     1       7.731   2.864  21.809  0.00  0.00    -0.228 OA
BRANCH  21  23
ATOM     23  O   UNL     1       7.589   2.142  24.048  0.00  0.00    -0.303 OA
ATOM     24  H   UNL     1       6.750   2.419  24.456  0.00  0.00    +0.222 HD
ENDBRANCH  21  23
BRANCH  21  25
ATOM     25  O   UNL     1       5.749   1.824  22.550  0.00  0.00    -0.303 OA
ATOM     26  H   UNL     1       5.529   2.154  23.442  0.00  0.00    +0.222 HD
ENDBRANCH  21  25
ENDBRANCH  20  21
ENDBRANCH   2  20
TORSDOF 8
ENDMDL
MODEL 5
REMARK VINA RESULT:      -6.2      1.819      2.478
REMARK  Name = 
REMARK  8 active torsions:
REMARK  status: ('A' for Active; 'I' for Inactive)
REMARK    1  A    between atoms: O_1  and  C_2
REMARK    2  A    between atoms: C_2  and  C_3
REMARK    3  A    between atoms: C_6  and  N_18
REMARK    4  A    between atoms: C_8  and  O_10
REMARK    5  A    between atoms: C_11  and  O_13
REMARK    6  A    between atoms: O_13  and  P_14
REMARK    7  A    between atoms: P_14  and  O_15
REMARK    8  A    between atoms: P_14  and  O_16
REMARK                            x       y       z     vdW  Elec       q    Type
REMARK                         _______ _______ _______ _____ _____    ______ ____
ROOT
ATOM      1  C   UNL     1       6.869  -3.441  23.563  0.00  0.00    +0.178 C 
ATOM      2  C   UNL     1       7.785  -4.057  24.629  0.00  0.00    +0.194 C 
ATOM      3  C   UNL     1       9.070  -3.252  24.556  0.00  0.00    +0.196 C 
ATOM      4  C   UNL     1       8.919  -2.387  23.289  0.00  0.00    +0.255 C 
ATOM      5  O   UNL     1       7.498  -2.240  23.094  0.00  0.00    -0.346 OA
ENDROOT
BRANCH   4   6
ATOM      6  N   UNL     1       9.542  -1.050  23.365  0.00  0.00    -0.271 N 
ATOM      7  C   UNL     1       9.630  -0.281  22.210  0.00  0.00    +0.331 A 
ATOM      8  O   UNL     1       9.221  -0.642  21.110  0.00  0.00    -0.246 OA
ATOM      9  N   UNL     1      10.214   0.946  22.349  0.00  0.00    -0.275 N 
ATOM     10  H   UNL     1      10.310   1.500  21.513  0.00  0.00    +0.173 HD
ATOM     11  C   UNL     1      10.515   1.559  23.530  0.00  0.00    +0.254 A 
ATOM     12  O   UNL     1      10.928   2.707  23.601  0.00  0.00    -0.268 OA
ATOM     13  C   UNL     1      10.292   0.755  24.737  0.00  0.00    +0.088 A 
ATOM     14  C   UNL     1       9.826  -0.488  24.604  0.00  0.00    +0.098 A 
ENDBRANCH   4   6
BRANCH   3  15
ATOM     15  O   UNL     1      10.192  -4.137  24.480  0.00  0.00    -0.385 OA
ATOM     16  H   UNL     1      10.917  -3.696  24.975  0.00  0.00    +0.210 HD
ENDBRANCH   3  15
BRANCH   1  17
ATOM     17  C   UNL     1       6.625  -4.397  22.384  0.00  0.00    +0.190 C 
BRANCH  17  18
ATOM     18  O   UNL     1       5.680  -3.847  21.473  0.00  0.00    -0.392 OA
ATOM     19  H   UNL     1       4.798  -4.167  21.734  0.00  0.00    +0.210 HD
ENDBRANCH  17  18
ENDBRANCH   1  17
BRANCH   2  20
ATOM     20  O   UNL     1       7.208  -3.930  25.953  0.00  0.00    -0.278 OA
BRANCH  20  21
ATOM     21  P   UNL     1       6.415  -5.398  26.409  0.00  0.00    +0.473 P 
ATOM     22  O   UNL     1       5.705  -6.712  26.817  0.00  0.00    -0.228 OA
BRANCH  21  23
ATOM     23  O   UNL     1       6.245  -4.673  27.868  0.00  0.00    -0.303 OA
ATOM     24  H   UNL     1       5.326  -4.398  28.027  0.00  0.00    +0.222 HD
ENDBRANCH  21  23
BRANCH  21  25
ATOM     25  O   UNL     1       7.928  -5.931  26.720  0.00  0.00    -0.303 OA
ATOM     26  H   UNL     1       7.838  -6.841  27.061  0.00  0.00    +0.222 HD
ENDBRANCH  21  25
ENDBRANCH  20  21
ENDBRANCH   2  20
TORSDOF 8
ENDMDL
MODEL 6
REMARK VINA RESULT:      -6.1      1.892      2.992
REMARK  Name = 
REMARK  8 active torsions:
REMARK  status: ('A' for Active; 'I' for Inactive)
REMARK    1  A    between atoms: O_1  and  C_2
REMARK    2  A    between atoms: C_2  and  C_3
REMARK    3  A    between atoms: C_6  and  N_18
REMARK    4  A    between atoms: C_8  and  O_10
REMARK    5  A    between atoms: C_11  and  O_13
REMARK    6  A    between atoms: O_13  and  P_14
REMARK    7  A    between atoms: P_14  and  O_15
REMARK    8  A    between atoms: P_14  and  O_16
REMARK                            x       y       z     vdW  Elec       q    Type
REMARK                         _______ _______ _______ _____ _____    ______ ____
ROOT
ATOM      1  C   UNL     1       6.431  -4.230  23.956  0.00  0.00    +0.178 C 
ATOM      2  C   UNL     1       7.578  -4.425  24.956  0.00  0.00    +0.194 C 
ATOM      3  C   UNL     1       8.632  -3.411  24.547  0.00  0.00    +0.196 C 
ATOM      4  C   UNL     1       8.145  -2.865  23.191  0.00  0.00    +0.255 C 
ATOM      5  O   UNL     1       6.716  -3.046  23.197  0.00  0.00    -0.346 OA
ENDROOT
BRANCH   4   6
ATOM      6  N   UNL     1       8.457  -1.443  22.940  0.00  0.00    -0.271 N 
ATOM      7  C   UNL     1       9.729  -1.101  22.495  0.00  0.00    +0.331 A 
ATOM      8  O   UNL     1      10.630  -1.910  22.294  0.00  0.00    -0.246 OA
ATOM      9  N   UNL     1       9.950   0.230  22.279  0.00  0.00    -0.275 N 
ATOM     10  H   UNL     1      10.877   0.494  21.984  0.00  0.00    +0.173 HD
ATOM     11  C   UNL     1       8.997   1.205  22.252  0.00  0.00    +0.254 A 
ATOM     12  O   UNL     1       9.233   2.362  21.937  0.00  0.00    -0.268 OA
ATOM     13  C   UNL     1       7.640   0.776  22.611  0.00  0.00    +0.088 A 
ATOM     14  C   UNL     1       7.434  -0.502  22.933  0.00  0.00    +0.098 A 
ENDBRANCH   4   6
BRANCH   3  15
ATOM     15  O   UNL     1       9.909  -4.053  24.451  0.00  0.00    -0.385 OA
ATOM     16  H   UNL     1      10.554  -3.427  24.846  0.00  0.00    +0.210 HD
ENDBRANCH   3  15
BRANCH   1  17
ATOM     17  C   UNL     1       6.274  -5.431  23.009  0.00  0.00    +0.190 C 
BRANCH  17  18
ATOM     18  O   UNL     1       5.244  -5.195  22.057  0.00  0.00    -0.392 OA
ATOM     19  H   UNL     1       4.437  -5.634  22.380  0.00  0.00    +0.210 HD
ENDBRANCH  17  18
ENDBRANCH   1  17
BRANCH   2  20
ATOM     20  O   UNL     1       7.144  -4.153  26.312  0.00  0.00    -0.278 OA
BRANCH  20  21
ATOM     21  P   UNL     1       6.428  -5.564  27.011  0.00  0.00    +0.473 P 
ATOM     22  O   UNL     1       5.788  -6.828  27.636  0.00  0.00    -0.228 OA
BRANCH  21  23
ATOM     23  O   UNL     1       6.164  -4.601  28.309  0.00  0.00    -0.303 OA
ATOM     24  H   UNL     1       6.912  -4.000  28.468  0.00  0.00    +0.222 HD
ENDBRANCH  21  23
BRANCH  21  25
ATOM     25  O   UNL     1       7.960  -5.930  27.448  0.00  0.00    -0.303 OA
ATOM     26  H   UNL     1       7.912  -6.294  28.352  0.00  0.00    +0.222 HD
ENDBRANCH  21  25
ENDBRANCH  20  21
ENDBRANCH   2  20
TORSDOF 8
ENDMDL
MODEL 7
REMARK VINA RESULT:      -5.8      3.122      6.595
REMARK  Name = 
REMARK  8 active torsions:
REMARK  status: ('A' for Active; 'I' for Inactive)
REMARK    1  A    between atoms: O_1  and  C_2
REMARK    2  A    between atoms: C_2  and  C_3
REMARK    3  A    between atoms: C_6  and  N_18
REMARK    4  A    between atoms: C_8  and  O_10
REMARK    5  A    between atoms: C_11  and  O_13
REMARK    6  A    between atoms: O_13  and  P_14
REMARK    7  A    between atoms: P_14  and  O_15
REMARK    8  A    between atoms: P_14  and  O_16
REMARK                            x       y       z     vdW  Elec       q    Type
REMARK                         _______ _______ _______ _____ _____    ______ ____
ROOT
ATOM      1  C   UNL     1       9.796  -1.266  23.637  0.00  0.00    +0.178 C 
ATOM      2  C   UNL     1       8.533  -0.397  23.576  0.00  0.00    +0.194 C 
ATOM      3  C   UNL     1       7.391  -1.338  23.918  0.00  0.00    +0.196 C 
ATOM      4  C   UNL     1       8.026  -2.742  23.910  0.00  0.00    +0.255 C 
ATOM      5  O   UNL     1       9.422  -2.533  24.198  0.00  0.00    -0.346 OA
ENDROOT
BRANCH   4   6
ATOM      6  N   UNL     1       7.462  -3.690  24.893  0.00  0.00    -0.271 N 
ATOM      7  C   UNL     1       6.291  -4.370  24.577  0.00  0.00    +0.331 A 
ATOM      8  O   UNL     1       5.678  -4.234  23.521  0.00  0.00    -0.246 OA
ATOM      9  N   UNL     1       5.824  -5.234  25.527  0.00  0.00    -0.275 N 
ATOM     10  H   UNL     1       4.960  -5.710  25.322  0.00  0.00    +0.173 HD
ATOM     11  C   UNL     1       6.502  -5.643  26.638  0.00  0.00    +0.254 A 
ATOM     12  O   UNL     1       6.086  -6.508  27.394  0.00  0.00    -0.268 OA
ATOM     13  C   UNL     1       7.794  -4.986  26.870  0.00  0.00    +0.088 A 
ATOM     14  C   UNL     1       8.208  -4.058  26.006  0.00  0.00    +0.098 A 
ENDBRANCH   4   6
BRANCH   3  15
ATOM     15  O   UNL     1       6.348  -1.206  22.948  0.00  0.00    -0.385 OA
ATOM     16  H   UNL     1       6.601  -0.443  22.383  0.00  0.00    +0.210 HD
ENDBRANCH   3  15
BRANCH   1  17
ATOM     17  C   UNL     1      10.426  -1.475  22.250  0.00  0.00    +0.190 C 
BRANCH  17  18
ATOM     18  O   UNL     1       9.724  -0.735  21.258  0.00  0.00    -0.392 OA
ATOM     19  H   UNL     1      10.192  -0.857  20.413  0.00  0.00    +0.210 HD
ENDBRANCH  17  18
ENDBRANCH   1  17
BRANCH   2  20
ATOM     20  O   UNL     1       8.586   0.675  24.551  0.00  0.00    -0.278 OA
BRANCH  20  21
ATOM     21  P   UNL     1       9.736   1.874  24.066  0.00  0.00    +0.473 P 
ATOM     22  O   UNL     1      10.764   2.947  23.633  0.00  0.00    -0.228 OA
BRANCH  21  23
ATOM     23  O   UNL     1       8.747   2.918  24.851  0.00  0.00    -0.303 OA
ATOM     24  H   UNL     1       8.201   3.430  24.230  0.00  0.00    +0.222 HD
ENDBRANCH  21  23
BRANCH  21  25
ATOM     25  O   UNL     1       8.871   1.914  22.681  0.00  0.00    -0.303 OA
ATOM     26  H   UNL     1       9.464   1.598  21.973  0.00  0.00    +0.222 HD
ENDBRANCH  21  25
ENDBRANCH  20  21
ENDBRANCH   2  20
TORSDOF 8
ENDMDL
MODEL 8
REMARK VINA RESULT:      -5.8      2.434      4.199
REMARK  Name = 
REMARK  8 active torsions:
REMARK  status: ('A' for Active; 'I' for Inactive)
REMARK    1  A    between atoms: O_1  and  C_2
REMARK    2  A    between atoms: C_2  and  C_3
REMARK    3  A    between atoms: C_6  and  N_18
REMARK    4  A    between atoms: C_8  and  O_10
REMARK    5  A    between atoms: C_11  and  O_13
REMARK    6  A    between atoms: O_13  and  P_14
REMARK    7  A    between atoms: P_14  and  O_15
REMARK    8  A    between atoms: P_14  and  O_16
REMARK                            x       y       z     vdW  Elec       q    Type
REMARK                         _______ _______ _______ _____ _____    ______ ____
ROOT
ATOM      1  C   UNL     1       7.606  -4.675  25.484  0.00  0.00    +0.178 C 
ATOM      2  C   UNL     1       6.254  -4.580  24.763  0.00  0.00    +0.194 C 
ATOM      3  C   UNL     1       6.229  -3.188  24.157  0.00  0.00    +0.196 C 
ATOM      4  C   UNL     1       7.449  -2.472  24.770  0.00  0.00    +0.255 C 
ATOM      5  O   UNL     1       8.374  -3.522  25.115  0.00  0.00    -0.346 OA
ENDROOT
BRANCH   4   6
ATOM      6  N   UNL     1       8.119  -1.503  23.880  0.00  0.00    -0.271 N 
ATOM      7  C   UNL     1       7.847  -0.148  24.033  0.00  0.00    +0.331 A 
ATOM      8  O   UNL     1       7.073   0.309  24.869  0.00  0.00    -0.246 OA
ATOM      9  N   UNL     1       8.502   0.695  23.180  0.00  0.00    -0.275 N 
ATOM     10  H   UNL     1       8.291   1.677  23.262  0.00  0.00    +0.173 HD
ATOM     11  C   UNL     1       9.537   0.357  22.358  0.00  0.00    +0.254 A 
ATOM     12  O   UNL     1      10.165   1.174  21.703  0.00  0.00    -0.268 OA
ATOM     13  C   UNL     1       9.873  -1.072  22.317  0.00  0.00    +0.088 A 
ATOM     14  C   UNL     1       9.164  -1.920  23.063  0.00  0.00    +0.098 A 
ENDBRANCH   4   6
BRANCH   3  15
ATOM     15  O   UNL     1       4.996  -2.540  24.484  0.00  0.00    -0.385 OA
ATOM     16  H   UNL     1       4.520  -2.422  23.633  0.00  0.00    +0.210 HD
ENDBRANCH   3  15
BRANCH   1  17
ATOM     17  C   UNL     1       7.446  -4.729  27.012  0.00  0.00    +0.190 C 
BRANCH  17  18
ATOM     18  O   UNL     1       7.922  -5.966  27.528  0.00  0.00    -0.392 OA
ATOM     19  H   UNL     1       7.161  -6.570  27.593  0.00  0.00    +0.210 HD
ENDBRANCH  17  18
ENDBRANCH   1  17
BRANCH   2  20
ATOM     20  O   UNL     1       6.152  -5.569  23.708  0.00  0.00    -0.278 OA
BRANCH  20  21
ATOM     21  P   UNL     1       4.507  -5.741  23.200  0.00  0.00    +0.473 P 
ATOM     22  O   UNL     1       3.035  -5.894  22.745  0.00  0.00    -0.228 OA
BRANCH  21  23
ATOM     23  O   UNL     1       4.658  -7.276  23.750  0.00  0.00    -0.303 OA
ATOM     24  H   UNL     1       5.307  -7.336  24.472  0.00  0.00    +0.222 HD
ENDBRANCH  21  23
BRANCH  21  25
ATOM     25  O   UNL     1       5.160  -6.076  21.740  0.00  0.00    -0.303 OA
ATOM     26  H   UNL     1       4.455  -5.933  21.080  0.00  0.00    +0.222 HD
ENDBRANCH  21  25
ENDBRANCH  20  21
ENDBRANCH   2  20
TORSDOF 8
ENDMDL
MODEL 9
REMARK VINA RESULT:      -5.7      2.775      4.187
REMARK  Name = 
REMARK  8 active torsions:
REMARK  status: ('A' for Active; 'I' for Inactive)
REMARK    1  A    between atoms: O_1  and  C_2
REMARK    2  A    between atoms: C_2  and  C_3
REMARK    3  A    between atoms: C_6  and  N_18
REMARK    4  A    between atoms: C_8  and  O_10
REMARK    5  A    between atoms: C_11  and  O_13
REMARK    6  A    between atoms: O_13  and  P_14
REMARK    7  A    between atoms: P_14  and  O_15
REMARK    8  A    between atoms: P_14  and  O_16
REMARK                            x       y       z     vdW  Elec       q    Type
REMARK                         _______ _______ _______ _____ _____    ______ ____
ROOT
ATOM      1  C   UNL     1       5.806  -4.619  22.048  0.00  0.00    +0.178 C 
ATOM      2  C   UNL     1       5.884  -5.142  23.489  0.00  0.00    +0.194 C 
ATOM      3  C   UNL     1       7.028  -4.372  24.125  0.00  0.00    +0.196 C 
ATOM      4  C   UNL     1       7.705  -3.636  22.952  0.00  0.00    +0.255 C 
ATOM      5  O   UNL     1       6.677  -3.483  21.953  0.00  0.00    -0.346 OA
ENDROOT
BRANCH   4   6
ATOM      6  N   UNL     1       8.265  -2.310  23.284  0.00  0.00    -0.271 N 
ATOM      7  C   UNL     1       9.548  -2.234  23.812  0.00  0.00    +0.331 A 
ATOM      8  O   UNL     1      10.263  -3.209  24.031  0.00  0.00    -0.246 OA
ATOM      9  N   UNL     1      10.008  -0.979  24.094  0.00  0.00    -0.275 N 
ATOM     10  H   UNL     1      10.925  -0.913  24.505  0.00  0.00    +0.173 HD
ATOM     11  C   UNL     1       9.422   0.192  23.712  0.00  0.00    +0.254 A 
ATOM     12  O   UNL     1       9.936   1.286  23.887  0.00  0.00    -0.268 OA
ATOM     13  C   UNL     1       8.120   0.061  23.045  0.00  0.00    +0.088 A 
ATOM     14  C   UNL     1       7.609  -1.158  22.866  0.00  0.00    +0.098 A 
ENDBRANCH   4   6
BRANCH   3  15
ATOM     15  O   UNL     1       7.917  -5.281  24.783  0.00  0.00    -0.385 OA
ATOM     16  H   UNL     1       7.726  -6.166  24.402  0.00  0.00    +0.210 HD
ENDBRANCH   3  15
BRANCH   1  17
ATOM     17  C   UNL     1       6.222  -5.683  21.020  0.00  0.00    +0.190 C 
BRANCH  17  18
ATOM     18  O   UNL     1       6.431  -6.942  21.650  0.00  0.00    -0.392 OA
ATOM     19  H   UNL     1       5.657  -7.122  22.213  0.00  0.00    +0.210 HD
ENDBRANCH  17  18
ENDBRANCH   1  17
BRANCH   2  20
ATOM     20  O   UNL     1       4.657  -4.871  24.213  0.00  0.00    -0.278 OA
BRANCH  20  21
ATOM     21  P   UNL     1       4.277  -6.188  25.268  0.00  0.00    +0.473 P 
ATOM     22  O   UNL     1       3.936  -7.367  26.213  0.00  0.00    -0.228 OA
BRANCH  21  23
ATOM     23  O   UNL     1       4.643  -7.127  23.977  0.00  0.00    -0.303 OA
ATOM     24  H   UNL     1       5.358  -7.755  24.182  0.00  0.00    +0.222 HD
ENDBRANCH  21  23
BRANCH  21  25
ATOM     25  O   UNL     1       2.739  -5.922  24.785  0.00  0.00    -0.303 OA
ATOM     26  H   UNL     1       2.782  -5.254  24.075  0.00  0.00    +0.222 HD
ENDBRANCH  21  25
ENDBRANCH  20  21
ENDBRANCH   2  20
TORSDOF 8
ENDMDL
