MODEL 1
REMARK VINA RESULT:      -6.1      0.000      0.000
REMARK  Name = 
REMARK  6 active torsions:
REMARK  status: ('A' for Active; 'I' for Inactive)
REMARK    1  A    between atoms: C_2  and  C_4
REMARK    2  A    between atoms: C_4  and  C_5
REMARK    3  A    between atoms: C_5  and  C_6
REMARK    4  A    between atoms: C_6  and  N_7
REMARK    5  A    between atoms: N_7  and  C_8
REMARK    6  A    between atoms: C_8  and  C_9
REMARK                            x       y       z     vdW  Elec       q    Type
REMARK                         _______ _______ _______ _____ _____    ______ ____
ROOT
ATOM      1  C   UNL     1       7.931  -1.125  24.432  0.00  0.00    +0.045 C 
ATOM      2  C   UNL     1       7.479   0.114  24.766  0.00  0.00    +0.046 C 
ATOM      3  C   UNL     1       5.999   0.431  24.926  0.00  0.00    +0.188 C 
ATOM      4  O   UNL     1       5.102  -0.392  25.059  0.00  0.00    -0.287 OA
ATOM      5  C   UNL     1       5.625   1.872  24.980  0.00  0.00    +0.054 C 
ATOM      6  C   UNL     1       6.560   2.824  25.072  0.00  0.00    +0.042 C 
ATOM      7  C   UNL     1       7.953   2.495  25.116  0.00  0.00    +0.124 C 
ATOM      8  F   UNL     1       8.832   3.505  25.288  0.00  0.00    -0.205 F 
ATOM      9  C   UNL     1       8.396   1.242  24.964  0.00  0.00    +0.052 C 
ENDROOT
BRANCH   1  10
ATOM     10  C   UNL     1       6.982  -2.207  24.073  0.00  0.00    -0.003 A 
ATOM     11  C   UNL     1       6.377  -2.230  22.808  0.00  0.00    +0.011 A 
ATOM     12  C   UNL     1       5.556  -3.300  22.432  0.00  0.00    +0.020 A 
ATOM     13  C   UNL     1       5.328  -4.342  23.327  0.00  0.00    +0.041 A 
ATOM     14 CL   UNL     1       4.358  -5.682  22.852  0.00  0.00    -0.084 Cl
ATOM     15  C   UNL     1       5.889  -4.313  24.604  0.00  0.00    +0.020 A 
ATOM     16  C   UNL     1       6.713  -3.246  24.976  0.00  0.00    +0.011 A 
ENDBRANCH   1  10
BRANCH   1  17
ATOM     17  N   UNL     1       9.255  -1.550  24.327  0.00  0.00    -0.343 N 
ATOM     18  H   UNL     1       9.517  -2.151  25.109  0.00  0.00    +0.146 HD
BRANCH  17  19
ATOM     19  C   UNL     1       9.944  -1.870  23.087  0.00  0.00    +0.102 C 
BRANCH  19  20
ATOM     20  C   UNL     1      10.370  -0.593  22.372  0.00  0.00    +0.028 C 
BRANCH  20  21
ATOM     21  C   UNL     1       9.291  -0.160  21.381  0.00  0.00    +0.097 C 
BRANCH  21  25
ATOM     22  N   UNL     1      10.031   2.118  21.667  0.00  0.00    -0.329 N 
ATOM     23  H   UNL     1      10.983   1.782  21.682  0.00  0.00    +0.145 HD
ATOM     24  H   UNL     1       9.865   3.114  21.740  0.00  0.00    +0.145 HD
ATOM     25  C   UNL     1       8.946   1.308  21.497  0.00  0.00    +0.211 C 
ATOM     26  O   UNL     1       7.814   1.767  21.459  0.00  0.00    -0.276 OA
ENDBRANCH  21  25
ENDBRANCH  20  21
ENDBRANCH  19  20
ENDBRANCH  17  19
ENDBRANCH   1  17
TORSDOF 6
ENDMDL
MODEL 2
REMARK VINA RESULT:      -6.0      3.194      5.008
REMARK  Name = 
REMARK  6 active torsions:
REMARK  status: ('A' for Active; 'I' for Inactive)
REMARK    1  A    between atoms: C_2  and  C_4
REMARK    2  A    between atoms: C_4  and  C_5
REMARK    3  A    between atoms: C_5  and  C_6
REMARK    4  A    between atoms: C_6  and  N_7
REMARK    5  A    between atoms: N_7  and  C_8
REMARK    6  A    between atoms: C_8  and  C_9
REMARK                            x       y       z     vdW  Elec       q    Type
REMARK                         _______ _______ _______ _____ _____    ______ ____
ROOT
ATOM      1  C   UNL     1       8.141  -2.889  23.698  0.00  0.00    +0.045 C 
ATOM      2  C   UNL     1       8.773  -1.685  23.753  0.00  0.00    +0.046 C 
ATOM      3  C   UNL     1       9.096  -0.989  25.068  0.00  0.00    +0.188 C 
ATOM      4  O   UNL     1       9.098  -1.516  26.174  0.00  0.00    -0.287 OA
ATOM      5  C   UNL     1       9.496   0.444  24.986  0.00  0.00    +0.054 C 
ATOM      6  C   UNL     1       9.738   1.025  23.806  0.00  0.00    +0.042 C 
ATOM      7  C   UNL     1       9.616   0.296  22.580  0.00  0.00    +0.124 C 
ATOM      8  F   UNL     1       9.953   0.929  21.436  0.00  0.00    -0.205 F 
ATOM      9  C   UNL     1       9.159  -0.960  22.538  0.00  0.00    +0.052 C 
ENDROOT
BRANCH   1  10
ATOM     10  C   UNL     1       7.610  -3.524  24.929  0.00  0.00    -0.003 A 
ATOM     11  C   UNL     1       6.369  -3.132  25.453  0.00  0.00    +0.011 A 
ATOM     12  C   UNL     1       5.823  -3.795  26.557  0.00  0.00    +0.020 A 
ATOM     13  C   UNL     1       6.524  -4.843  27.149  0.00  0.00    +0.041 A 
ATOM     14 CL   UNL     1       5.834  -5.692  28.478  0.00  0.00    -0.084 Cl
ATOM     15  C   UNL     1       7.777  -5.217  26.665  0.00  0.00    +0.020 A 
ATOM     16  C   UNL     1       8.320  -4.557  25.558  0.00  0.00    +0.011 A 
ENDBRANCH   1  10
BRANCH   1  17
ATOM     17  N   UNL     1       7.857  -3.652  22.566  0.00  0.00    -0.343 N 
ATOM     18  H   UNL     1       8.311  -4.564  22.606  0.00  0.00    +0.146 HD
BRANCH  17  19
ATOM     19  C   UNL     1       6.593  -3.659  21.847  0.00  0.00    +0.102 C 
BRANCH  19  20
ATOM     20  C   UNL     1       6.238  -5.076  21.410  0.00  0.00    +0.028 C 
BRANCH  20  21
ATOM     21  C   UNL     1       6.146  -5.995  22.628  0.00  0.00    +0.097 C 
BRANCH  21  25
ATOM     22  N   UNL     1       4.722  -6.624  24.470  0.00  0.00    -0.329 N 
ATOM     23  H   UNL     1       5.525  -7.039  24.919  0.00  0.00    +0.145 HD
ATOM     24  H   UNL     1       3.831  -6.642  24.952  0.00  0.00    +0.145 HD
ATOM     25  C   UNL     1       4.775  -5.985  23.265  0.00  0.00    +0.211 C 
ATOM     26  O   UNL     1       3.778  -5.475  22.775  0.00  0.00    -0.276 OA
ENDBRANCH  21  25
ENDBRANCH  20  21
ENDBRANCH  19  20
ENDBRANCH  17  19
ENDBRANCH   1  17
TORSDOF 6
ENDMDL
MODEL 3
REMARK VINA RESULT:      -6.0      4.272      7.069
REMARK  Name = 
REMARK  6 active torsions:
REMARK  status: ('A' for Active; 'I' for Inactive)
REMARK    1  A    between atoms: C_2  and  C_4
REMARK    2  A    between atoms: C_4  and  C_5
REMARK    3  A    between atoms: C_5  and  C_6
REMARK    4  A    between atoms: C_6  and  N_7
REMARK    5  A    between atoms: N_7  and  C_8
REMARK    6  A    between atoms: C_8  and  C_9
REMARK                            x       y       z     vdW  Elec       q    Type
REMARK                         _______ _______ _______ _____ _____    ______ ____
ROOT
ATOM      1  C   UNL     1       8.687  -3.405  24.370  0.00  0.00    +0.045 C 
ATOM      2  C   UNL     1       7.945  -3.915  23.351  0.00  0.00    +0.046 C 
ATOM      3  C   UNL     1       7.207  -3.034  22.354  0.00  0.00    +0.188 C 
ATOM      4  O   UNL     1       7.408  -1.839  22.169  0.00  0.00    -0.287 OA
ATOM      5  C   UNL     1       6.190  -3.701  21.493  0.00  0.00    +0.054 C 
ATOM      6  C   UNL     1       6.073  -5.034  21.473  0.00  0.00    +0.042 C 
ATOM      7  C   UNL     1       6.914  -5.866  22.279  0.00  0.00    +0.124 C 
ATOM      8  F   UNL     1       6.789  -7.203  22.145  0.00  0.00    -0.205 F 
ATOM      9  C   UNL     1       7.781  -5.361  23.164  0.00  0.00    +0.052 C 
ENDROOT
BRANCH   1  10
ATOM     10  C   UNL     1       8.704  -1.947  24.641  0.00  0.00    -0.003 A 
ATOM     11  C   UNL     1       9.788  -1.159  24.227  0.00  0.00    +0.011 A 
ATOM     12  C   UNL     1       9.762   0.229  24.396  0.00  0.00    +0.020 A 
ATOM     13  C   UNL     1       8.658   0.832  24.994  0.00  0.00    +0.041 A 
ATOM     14 CL   UNL     1       8.604   2.544  25.161  0.00  0.00    -0.084 Cl
ATOM     15  C   UNL     1       7.591   0.058  25.449  0.00  0.00    +0.020 A 
ATOM     16  C   UNL     1       7.615  -1.329  25.275  0.00  0.00    +0.011 A 
ENDBRANCH   1  10
BRANCH   1  17
ATOM     17  N   UNL     1       9.460  -4.106  25.296  0.00  0.00    -0.343 N 
ATOM     18  H   UNL     1      10.299  -3.586  25.552  0.00  0.00    +0.146 HD
BRANCH  17  19
ATOM     19  C   UNL     1       8.944  -4.945  26.365  0.00  0.00    +0.102 C 
BRANCH  19  20
ATOM     20  C   UNL     1       7.586  -4.435  26.833  0.00  0.00    +0.028 C 
BRANCH  20  21
ATOM     21  C   UNL     1       6.531  -5.531  26.684  0.00  0.00    +0.097 C 
BRANCH  21  25
ATOM     22  N   UNL     1       5.286  -7.198  27.904  0.00  0.00    -0.329 N 
ATOM     23  H   UNL     1       5.041  -7.627  27.023  0.00  0.00    +0.145 HD
ATOM     24  H   UNL     1       4.962  -7.629  28.761  0.00  0.00    +0.145 HD
ATOM     25  C   UNL     1       6.081  -6.095  28.013  0.00  0.00    +0.211 C 
ATOM     26  O   UNL     1       6.370  -5.629  29.105  0.00  0.00    -0.276 OA
ENDBRANCH  21  25
ENDBRANCH  20  21
ENDBRANCH  19  20
ENDBRANCH  17  19
ENDBRANCH   1  17
TORSDOF 6
ENDMDL
MODEL 4
REMARK VINA RESULT:      -5.9      2.428      4.821
REMARK  Name = 
REMARK  6 active torsions:
REMARK  status: ('A' for Active; 'I' for Inactive)
REMARK    1  A    between atoms: C_2  and  C_4
REMARK    2  A    between atoms: C_4  and  C_5
REMARK    3  A    between atoms: C_5  and  C_6
REMARK    4  A    between atoms: C_6  and  N_7
REMARK    5  A    between atoms: N_7  and  C_8
REMARK    6  A    between atoms: C_8  and  C_9
REMARK                            x       y       z     vdW  Elec       q    Type
REMARK                         _______ _______ _______ _____ _____    ______ ____
ROOT
ATOM      1  C   UNL     1       7.456  -1.081  24.326  0.00  0.00    +0.045 C 
ATOM      2  C   UNL     1       8.217  -0.106  23.759  0.00  0.00    +0.046 C 
ATOM      3  C   UNL     1       8.826  -0.245  22.371  0.00  0.00    +0.188 C 
ATOM      4  O   UNL     1       8.493  -1.064  21.523  0.00  0.00    -0.287 OA
ATOM      5  C   UNL     1       9.882   0.739  22.001  0.00  0.00    +0.054 C 
ATOM      6  C   UNL     1      10.140   1.797  22.777  0.00  0.00    +0.042 C 
ATOM      7  C   UNL     1       9.417   2.020  23.993  0.00  0.00    +0.124 C 
ATOM      8  F   UNL     1       9.679   3.151  24.682  0.00  0.00    -0.205 F 
ATOM      9  C   UNL     1       8.529   1.140  24.468  0.00  0.00    +0.052 C 
ENDROOT
BRANCH   1  10
ATOM     10  C   UNL     1       7.292  -2.398  23.663  0.00  0.00    -0.003 A 
ATOM     11  C   UNL     1       8.256  -3.403  23.833  0.00  0.00    +0.011 A 
ATOM     12  C   UNL     1       8.057  -4.676  23.288  0.00  0.00    +0.020 A 
ATOM     13  C   UNL     1       6.901  -4.943  22.559  0.00  0.00    +0.041 A 
ATOM     14 CL   UNL     1       6.632  -6.521  21.927  0.00  0.00    -0.084 Cl
ATOM     15  C   UNL     1       5.954  -3.942  22.346  0.00  0.00    +0.020 A 
ATOM     16  C   UNL     1       6.150  -2.671  22.896  0.00  0.00    +0.011 A 
ENDBRANCH   1  10
BRANCH   1  17
ATOM     17  N   UNL     1       6.791  -1.039  25.551  0.00  0.00    -0.343 N 
ATOM     18  H   UNL     1       5.809  -0.788  25.435  0.00  0.00    +0.146 HD
BRANCH  17  19
ATOM     19  C   UNL     1       7.038  -1.924  26.678  0.00  0.00    +0.102 C 
BRANCH  19  20
ATOM     20  C   UNL     1       5.801  -2.764  26.977  0.00  0.00    +0.028 C 
BRANCH  20  21
ATOM     21  C   UNL     1       6.005  -4.196  26.485  0.00  0.00    +0.097 C 
BRANCH  21  25
ATOM     22  N   UNL     1       7.871  -5.655  26.944  0.00  0.00    -0.329 N 
ATOM     23  H   UNL     1       8.178  -5.524  25.991  0.00  0.00    +0.145 HD
ATOM     24  H   UNL     1       8.431  -6.231  27.560  0.00  0.00    +0.145 HD
ATOM     25  C   UNL     1       6.768  -5.050  27.473  0.00  0.00    +0.211 C 
ATOM     26  O   UNL     1       6.454  -5.219  28.642  0.00  0.00    -0.276 OA
ENDBRANCH  21  25
ENDBRANCH  20  21
ENDBRANCH  19  20
ENDBRANCH  17  19
ENDBRANCH   1  17
TORSDOF 6
ENDMDL
MODEL 5
REMARK VINA RESULT:      -5.9      3.256      5.077
REMARK  Name = 
REMARK  6 active torsions:
REMARK  status: ('A' for Active; 'I' for Inactive)
REMARK    1  A    between atoms: C_2  and  C_4
REMARK    2  A    between atoms: C_4  and  C_5
REMARK    3  A    between atoms: C_5  and  C_6
REMARK    4  A    between atoms: C_6  and  N_7
REMARK    5  A    between atoms: N_7  and  C_8
REMARK    6  A    between atoms: C_8  and  C_9
REMARK                            x       y       z     vdW  Elec       q    Type
REMARK                         _______ _______ _______ _____ _____    ______ ____
ROOT
ATOM      1  C   UNL     1       8.124  -2.185  24.319  0.00  0.00    +0.045 C 
ATOM      2  C   UNL     1       7.190  -3.062  23.863  0.00  0.00    +0.046 C 
ATOM      3  C   UNL     1       5.699  -2.866  24.097  0.00  0.00    +0.188 C 
ATOM      4  O   UNL     1       5.160  -1.821  24.440  0.00  0.00    -0.287 OA
ATOM      5  C   UNL     1       4.819  -4.038  23.828  0.00  0.00    +0.054 C 
ATOM      6  C   UNL     1       5.298  -5.138  23.237  0.00  0.00    +0.042 C 
ATOM      7  C   UNL     1       6.672  -5.232  22.844  0.00  0.00    +0.124 C 
ATOM      8  F   UNL     1       7.062  -6.342  22.182  0.00  0.00    -0.205 F 
ATOM      9  C   UNL     1       7.565  -4.281  23.137  0.00  0.00    +0.052 C 
ENDROOT
BRANCH   1  10
ATOM     10  C   UNL     1       7.737  -1.050  25.192  0.00  0.00    -0.003 A 
ATOM     11  C   UNL     1       7.725  -1.199  26.587  0.00  0.00    +0.011 A 
ATOM     12  C   UNL     1       7.454  -0.105  27.416  0.00  0.00    +0.020 A 
ATOM     13  C   UNL     1       7.178   1.138  26.851  0.00  0.00    +0.041 A 
ATOM     14 CL   UNL     1       6.890   2.497  27.868  0.00  0.00    -0.084 Cl
ATOM     15  C   UNL     1       7.145   1.292  25.465  0.00  0.00    +0.020 A 
ATOM     16  C   UNL     1       7.422   0.199  24.638  0.00  0.00    +0.011 A 
ENDBRANCH   1  10
BRANCH   1  17
ATOM     17  N   UNL     1       9.502  -2.220  24.108  0.00  0.00    -0.343 N 
ATOM     18  H   UNL     1       9.943  -2.969  24.640  0.00  0.00    +0.146 HD
BRANCH  17  19
ATOM     19  C   UNL     1      10.173  -1.923  22.852  0.00  0.00    +0.102 C 
BRANCH  19  20
ATOM     20  C   UNL     1      10.277  -0.416  22.647  0.00  0.00    +0.028 C 
BRANCH  20  21
ATOM     21  C   UNL     1       9.424   0.014  21.454  0.00  0.00    +0.097 C 
BRANCH  21  25
ATOM     22  N   UNL     1      10.059   2.331  21.671  0.00  0.00    -0.329 N 
ATOM     23  H   UNL     1      11.025   2.039  21.700  0.00  0.00    +0.145 HD
ATOM     24  H   UNL     1       9.847   3.320  21.712  0.00  0.00    +0.145 HD
ATOM     25  C   UNL     1       9.013   1.467  21.523  0.00  0.00    +0.211 C 
ATOM     26  O   UNL     1       7.861   1.872  21.467  0.00  0.00    -0.276 OA
ENDBRANCH  21  25
ENDBRANCH  20  21
ENDBRANCH  19  20
ENDBRANCH  17  19
ENDBRANCH   1  17
TORSDOF 6
ENDMDL
MODEL 6
REMARK VINA RESULT:      -5.7      4.365      6.976
REMARK  Name = 
REMARK  6 active torsions:
REMARK  status: ('A' for Active; 'I' for Inactive)
REMARK    1  A    between atoms: C_2  and  C_4
REMARK    2  A    between atoms: C_4  and  C_5
REMARK    3  A    between atoms: C_5  and  C_6
REMARK    4  A    between atoms: C_6  and  N_7
REMARK    5  A    between atoms: N_7  and  C_8
REMARK    6  A    between atoms: C_8  and  C_9
REMARK                            x       y       z     vdW  Elec       q    Type
REMARK                         _______ _______ _______ _____ _____    ______ ____
ROOT
ATOM      1  C   UNL     1       6.240  -2.515  24.324  0.00  0.00    +0.045 C 
ATOM      2  C   UNL     1       6.207  -3.740  23.734  0.00  0.00    +0.046 C 
ATOM      3  C   UNL     1       7.452  -4.417  23.180  0.00  0.00    +0.188 C 
ATOM      4  O   UNL     1       8.609  -4.106  23.436  0.00  0.00    -0.287 OA
ATOM      5  C   UNL     1       7.236  -5.593  22.291  0.00  0.00    +0.054 C 
ATOM      6  C   UNL     1       6.020  -6.132  22.146  0.00  0.00    +0.042 C 
ATOM      7  C   UNL     1       4.883  -5.598  22.833  0.00  0.00    +0.124 C 
ATOM      8  F   UNL     1       3.706  -6.245  22.698  0.00  0.00    -0.205 F 
ATOM      9  C   UNL     1       4.952  -4.482  23.566  0.00  0.00    +0.052 C 
ENDROOT
BRANCH   1  10
ATOM     10  C   UNL     1       7.487  -1.712  24.335  0.00  0.00    -0.003 A 
ATOM     11  C   UNL     1       7.863  -0.968  23.206  0.00  0.00    +0.011 A 
ATOM     12  C   UNL     1       8.986  -0.135  23.245  0.00  0.00    +0.020 A 
ATOM     13  C   UNL     1       9.745  -0.055  24.410  0.00  0.00    +0.041 A 
ATOM     14 CL   UNL     1      11.101   1.004  24.478  0.00  0.00    -0.084 Cl
ATOM     15  C   UNL     1       9.409  -0.820  25.527  0.00  0.00    +0.020 A 
ATOM     16  C   UNL     1       8.282  -1.648  25.488  0.00  0.00    +0.011 A 
ENDBRANCH   1  10
BRANCH   1  17
ATOM     17  N   UNL     1       5.186  -1.830  24.929  0.00  0.00    -0.343 N 
ATOM     18  H   UNL     1       4.610  -1.348  24.240  0.00  0.00    +0.146 HD
BRANCH  17  19
ATOM     19  C   UNL     1       4.447  -2.279  26.098  0.00  0.00    +0.102 C 
BRANCH  19  20
ATOM     20  C   UNL     1       5.406  -2.677  27.214  0.00  0.00    +0.028 C 
BRANCH  20  21
ATOM     21  C   UNL     1       5.246  -4.161  27.542  0.00  0.00    +0.097 C 
BRANCH  21  25
ATOM     22  N   UNL     1       6.148  -6.191  26.600  0.00  0.00    -0.329 N 
ATOM     23  H   UNL     1       5.203  -6.506  26.435  0.00  0.00    +0.145 HD
ATOM     24  H   UNL     1       6.916  -6.781  26.307  0.00  0.00    +0.145 HD
ATOM     25  C   UNL     1       6.455  -4.980  27.150  0.00  0.00    +0.211 C 
ATOM     26  O   UNL     1       7.617  -4.633  27.306  0.00  0.00    -0.276 OA
ENDBRANCH  21  25
ENDBRANCH  20  21
ENDBRANCH  19  20
ENDBRANCH  17  19
ENDBRANCH   1  17
TORSDOF 6
ENDMDL
MODEL 7
REMARK VINA RESULT:      -5.6      3.665      6.400
REMARK  Name = 
REMARK  6 active torsions:
REMARK  status: ('A' for Active; 'I' for Inactive)
REMARK    1  A    between atoms: C_2  and  C_4
REMARK    2  A    between atoms: C_4  and  C_5
REMARK    3  A    between atoms: C_5  and  C_6
REMARK    4  A    between atoms: C_6  and  N_7
REMARK    5  A    between atoms: N_7  and  C_8
REMARK    6  A    between atoms: C_8  and  C_9
REMARK                            x       y       z     vdW  Elec       q    Type
REMARK                         _______ _______ _______ _____ _____    ______ ____
ROOT
ATOM      1  C   UNL     1       8.703   1.530  24.667  0.00  0.00    +0.045 C 
ATOM      2  C   UNL     1       9.281   0.547  23.924  0.00  0.00    +0.046 C 
ATOM      3  C   UNL     1       9.660   0.740  22.462  0.00  0.00    +0.188 C 
ATOM      4  O   UNL     1       9.761   1.817  21.886  0.00  0.00    -0.287 OA
ATOM      5  C   UNL     1       9.987  -0.489  21.687  0.00  0.00    +0.054 C 
ATOM      6  C   UNL     1      10.120  -1.672  22.296  0.00  0.00    +0.042 C 
ATOM      7  C   UNL     1       9.950  -1.803  23.712  0.00  0.00    +0.124 C 
ATOM      8  F   UNL     1      10.179  -3.013  24.264  0.00  0.00    -0.205 F 
ATOM      9  C   UNL     1       9.550  -0.783  24.480  0.00  0.00    +0.052 C 
ENDROOT
BRANCH   1  10
ATOM     10  C   UNL     1       8.288   2.809  24.041  0.00  0.00    -0.003 A 
ATOM     11  C   UNL     1       9.060   3.967  24.210  0.00  0.00    +0.011 A 
ATOM     12  C   UNL     1       8.723   5.150  23.544  0.00  0.00    +0.020 A 
ATOM     13  C   UNL     1       7.601   5.181  22.718  0.00  0.00    +0.041 A 
ATOM     14 CL   UNL     1       7.210   6.622  21.860  0.00  0.00    -0.084 Cl
ATOM     15  C   UNL     1       6.799   4.050  22.573  0.00  0.00    +0.020 A 
ATOM     16  C   UNL     1       7.141   2.866  23.235  0.00  0.00    +0.011 A 
ENDBRANCH   1  10
BRANCH   1  17
ATOM     17  N   UNL     1       8.380   1.495  26.023  0.00  0.00    -0.343 N 
ATOM     18  H   UNL     1       9.030   2.052  26.576  0.00  0.00    +0.146 HD
BRANCH  17  19
ATOM     19  C   UNL     1       7.033   1.454  26.569  0.00  0.00    +0.102 C 
BRANCH  19  20
ATOM     20  C   UNL     1       6.485   0.032  26.529  0.00  0.00    +0.028 C 
BRANCH  20  21
ATOM     21  C   UNL     1       5.545  -0.136  25.337  0.00  0.00    +0.097 C 
BRANCH  21  25
ATOM     22  N   UNL     1       5.935  -2.489  24.972  0.00  0.00    -0.329 N 
ATOM     23  H   UNL     1       5.617  -2.664  25.914  0.00  0.00    +0.145 HD
ATOM     24  H   UNL     1       6.201  -3.276  24.394  0.00  0.00    +0.145 HD
ATOM     25  C   UNL     1       5.975  -1.248  24.406  0.00  0.00    +0.211 C 
ATOM     26  O   UNL     1       6.343  -1.091  23.251  0.00  0.00    -0.276 OA
ENDBRANCH  21  25
ENDBRANCH  20  21
ENDBRANCH  19  20
ENDBRANCH  17  19
ENDBRANCH   1  17
TORSDOF 6
ENDMDL
MODEL 8
REMARK VINA RESULT:      -5.6      4.302      6.016
REMARK  Name = 
REMARK  6 active torsions:
REMARK  status: ('A' for Active; 'I' for Inactive)
REMARK    1  A    between atoms: C_2  and  C_4
REMARK    2  A    between atoms: C_4  and  C_5
REMARK    3  A    between atoms: C_5  and  C_6
REMARK    4  A    between atoms: C_6  and  N_7
REMARK    5  A    between atoms: N_7  and  C_8
REMARK    6  A    between atoms: C_8  and  C_9
REMARK                            x       y       z     vdW  Elec       q    Type
REMARK                         _______ _______ _______ _____ _____    ______ ____
ROOT
ATOM      1  C   UNL     1       7.510   4.367  22.916  0.00  0.00    +0.045 C 
ATOM      2  C   UNL     1       6.152   4.450  22.912  0.00  0.00    +0.046 C 
ATOM      3  C   UNL     1       5.255   3.233  23.084  0.00  0.00    +0.188 C 
ATOM      4  O   UNL     1       5.607   2.141  23.515  0.00  0.00    -0.287 OA
ATOM      5  C   UNL     1       3.814   3.409  22.749  0.00  0.00    +0.054 C 
ATOM      6  C   UNL     1       3.310   4.621  22.492  0.00  0.00    +0.042 C 
ATOM      7  C   UNL     1       4.135   5.791  22.525  0.00  0.00    +0.124 C 
ATOM      8  F   UNL     1       3.538   6.986  22.333  0.00  0.00    -0.205 F 
ATOM      9  C   UNL     1       5.458   5.727  22.708  0.00  0.00    +0.052 C 
ENDROOT
BRANCH   1  10
ATOM     10  C   UNL     1       8.189   3.049  22.956  0.00  0.00    -0.003 A 
ATOM     11  C   UNL     1       8.339   2.291  21.785  0.00  0.00    +0.011 A 
ATOM     12  C   UNL     1       9.062   1.093  21.801  0.00  0.00    +0.020 A 
ATOM     13  C   UNL     1       9.624   0.643  22.993  0.00  0.00    +0.041 A 
ATOM     14 CL   UNL     1      10.554  -0.806  23.007  0.00  0.00    -0.084 Cl
ATOM     15  C   UNL     1       9.448   1.363  24.174  0.00  0.00    +0.020 A 
ATOM     16  C   UNL     1       8.730   2.563  24.155  0.00  0.00    +0.011 A 
ENDBRANCH   1  10
BRANCH   1  17
ATOM     17  N   UNL     1       8.429   5.413  22.839  0.00  0.00    -0.343 N 
ATOM     18  H   UNL     1       8.472   5.804  21.899  0.00  0.00    +0.146 HD
BRANCH  17  19
ATOM     19  C   UNL     1       8.695   6.383  23.889  0.00  0.00    +0.102 C 
BRANCH  19  20
ATOM     20  C   UNL     1      10.056   6.122  24.523  0.00  0.00    +0.028 C 
BRANCH  20  21
ATOM     21  C   UNL     1      11.016   5.537  23.487  0.00  0.00    +0.097 C 
BRANCH  21  25
ATOM     22  N   UNL     1      12.685   6.703  24.780  0.00  0.00    -0.329 N 
ATOM     23  H   UNL     1      11.948   7.260  25.186  0.00  0.00    +0.145 HD
ATOM     24  H   UNL     1      13.638   6.857  25.088  0.00  0.00    +0.145 HD
ATOM     25  C   UNL     1      12.468   5.706  23.874  0.00  0.00    +0.211 C 
ATOM     26  O   UNL     1      13.392   5.041  23.431  0.00  0.00    -0.276 OA
ENDBRANCH  21  25
ENDBRANCH  20  21
ENDBRANCH  19  20
ENDBRANCH  17  19
ENDBRANCH   1  17
TORSDOF 6
ENDMDL
MODEL 9
REMARK VINA RESULT:      -5.5      2.252      2.545
REMARK  Name = 
REMARK  6 active torsions:
REMARK  status: ('A' for Active; 'I' for Inactive)
REMARK    1  A    between atoms: C_2  and  C_4
REMARK    2  A    between atoms: C_4  and  C_5
REMARK    3  A    between atoms: C_5  and  C_6
REMARK    4  A    between atoms: C_6  and  N_7
REMARK    5  A    between atoms: N_7  and  C_8
REMARK    6  A    between atoms: C_8  and  C_9
REMARK                            x       y       z     vdW  Elec       q    Type
REMARK                         _______ _______ _______ _____ _____    ______ ____
ROOT
ATOM      1  C   UNL     1       7.661  -1.301  24.592  0.00  0.00    +0.045 C 
ATOM      2  C   UNL     1       7.001  -1.010  25.745  0.00  0.00    +0.046 C 
ATOM      3  C   UNL     1       5.885  -1.887  26.295  0.00  0.00    +0.188 C 
ATOM      4  O   UNL     1       5.651  -3.041  25.957  0.00  0.00    -0.287 OA
ATOM      5  C   UNL     1       5.042  -1.302  27.375  0.00  0.00    +0.054 C 
ATOM      6  C   UNL     1       5.373  -0.142  27.954  0.00  0.00    +0.042 C 
ATOM      7  C   UNL     1       6.543   0.580  27.556  0.00  0.00    +0.124 C 
ATOM      8  F   UNL     1       6.854   1.701  28.241  0.00  0.00    -0.205 F 
ATOM      9  C   UNL     1       7.304   0.196  26.525  0.00  0.00    +0.052 C 
ENDROOT
BRANCH   1  10
ATOM     10  C   UNL     1       7.228  -2.430  23.734  0.00  0.00    -0.003 A 
ATOM     11  C   UNL     1       6.203  -2.256  22.793  0.00  0.00    +0.011 A 
ATOM     12  C   UNL     1       5.858  -3.291  21.917  0.00  0.00    +0.020 A 
ATOM     13  C   UNL     1       6.528  -4.510  21.991  0.00  0.00    +0.041 A 
ATOM     14 CL   UNL     1       6.138  -5.769  20.885  0.00  0.00    -0.084 Cl
ATOM     15  C   UNL     1       7.521  -4.713  22.950  0.00  0.00    +0.020 A 
ATOM     16  C   UNL     1       7.869  -3.675  23.821  0.00  0.00    +0.011 A 
ENDBRANCH   1  10
BRANCH   1  17
ATOM     17  N   UNL     1       8.740  -0.618  24.032  0.00  0.00    -0.343 N 
ATOM     18  H   UNL     1       8.491   0.341  23.791  0.00  0.00    +0.146 HD
BRANCH  17  19
ATOM     19  C   UNL     1      10.134  -0.781  24.412  0.00  0.00    +0.102 C 
BRANCH  19  20
ATOM     20  C   UNL     1      10.878   0.544  24.290  0.00  0.00    +0.028 C 
BRANCH  20  21
ATOM     21  C   UNL     1       9.883   1.698  24.172  0.00  0.00    +0.097 C 
BRANCH  21  25
ATOM     22  N   UNL     1      10.199   2.341  21.869  0.00  0.00    -0.329 N 
ATOM     23  H   UNL     1       9.828   1.444  21.592  0.00  0.00    +0.145 HD
ATOM     24  H   UNL     1      10.463   3.002  21.149  0.00  0.00    +0.145 HD
ATOM     25  C   UNL     1      10.315   2.742  23.168  0.00  0.00    +0.211 C 
ATOM     26  O   UNL     1      10.746   3.850  23.452  0.00  0.00    -0.276 OA
ENDBRANCH  21  25
ENDBRANCH  20  21
ENDBRANCH  19  20
ENDBRANCH  17  19
ENDBRANCH   1  17
TORSDOF 6
ENDMDL
