MODEL 1
REMARK VINA RESULT:      -7.0      0.000      0.000
REMARK  Name = 
REMARK  6 active torsions:
REMARK  status: ('A' for Active; 'I' for Inactive)
REMARK    1  A    between atoms: C_2  and  C_5
REMARK    2  A    between atoms: C_5  and  N_6
REMARK    3  A    between atoms: N_6  and  C_7
REMARK    4  A    between atoms: N_6  and  C_12
REMARK    5  A    between atoms: C_7  and  C_8
REMARK    6  A    between atoms: C_20  and  C_21
REMARK                            x       y       z     vdW  Elec       q    Type
REMARK                         _______ _______ _______ _____ _____    ______ ____
ROOT
ATOM      1  C   UNL     1       7.520  -2.772  23.482  0.00  0.00    +0.031 A 
ATOM      2  C   UNL     1       6.758  -3.070  22.347  0.00  0.00    +0.025 A 
ATOM      3  C   UNL     1       5.842  -4.124  22.354  0.00  0.00    +0.028 A 
ATOM      4  C   UNL     1       5.673  -4.891  23.506  0.00  0.00    +0.050 A 
ATOM      5  N   UNL     1       4.789  -5.971  23.463  0.00  0.00    -0.322 N 
ATOM      6  H   UNL     1       4.294  -6.200  22.611  0.00  0.00    +0.169 HD
ATOM      7  C   UNL     1       4.562  -6.802  24.518  0.00  0.00    +0.250 A 
ATOM      8  C   UNL     1       5.284  -6.491  25.764  0.00  0.00    +0.083 A 
ATOM      9  C   UNL     1       6.147  -5.461  25.878  0.00  0.00    +0.069 A 
ATOM     10  O   UNL     1       3.798  -7.759  24.455  0.00  0.00    -0.268 OA
ATOM     11  C   UNL     1       6.381  -4.607  24.688  0.00  0.00    +0.012 A 
ATOM     12  C   UNL     1       7.287  -3.536  24.643  0.00  0.00    +0.033 A 
ENDROOT
BRANCH   9  13
ATOM     13  C   UNL     1       6.806  -5.262  27.215  0.00  0.00    +0.418 C 
ATOM     14  F   UNL     1       6.370  -6.184  28.113  0.00  0.00    -0.166 F 
ATOM     15  F   UNL     1       6.489  -4.045  27.735  0.00  0.00    -0.166 F 
ATOM     16  F   UNL     1       8.159  -5.334  27.230  0.00  0.00    -0.166 F 
ENDBRANCH   9  13
BRANCH   1  17
ATOM     17  N   UNL     1       8.531  -1.801  23.411  0.00  0.00    -0.313 N 
BRANCH  17  18
ATOM     18  C   UNL     1       9.111  -1.527  22.055  0.00  0.00    +0.218 C 
BRANCH  18  20
ATOM     19  F   UNL     1      10.359   0.545  21.942  0.00  0.00    -0.169 F 
ATOM     20  C   UNL     1       9.205  -0.060  21.593  0.00  0.00    +0.405 C 
ATOM     21  F   UNL     1       9.110   0.009  20.243  0.00  0.00    -0.169 F 
ATOM     22  F   UNL     1       8.189   0.676  22.102  0.00  0.00    -0.169 F 
ENDBRANCH  18  20
ENDBRANCH  17  18
BRANCH  17  23
ATOM     23  C   UNL     1       9.447  -1.727  24.596  0.00  0.00    +0.218 C 
BRANCH  23  24
ATOM     24  C   UNL     1       9.543  -0.387  25.354  0.00  0.00    +0.405 C 
ATOM     25  F   UNL     1       9.390  -0.559  26.686  0.00  0.00    -0.169 F 
ATOM     26  F   UNL     1       8.559   0.451  24.943  0.00  0.00    -0.169 F 
ATOM     27  F   UNL     1      10.714   0.254  25.153  0.00  0.00    -0.169 F 
ENDBRANCH  23  24
ENDBRANCH  17  23
ENDBRANCH   1  17
TORSDOF 6
ENDMDL
MODEL 2
REMARK VINA RESULT:      -6.9      3.740      6.766
REMARK  Name = 
REMARK  6 active torsions:
REMARK  status: ('A' for Active; 'I' for Inactive)
REMARK    1  A    between atoms: C_2  and  C_5
REMARK    2  A    between atoms: C_5  and  N_6
REMARK    3  A    between atoms: N_6  and  C_7
REMARK    4  A    between atoms: N_6  and  C_12
REMARK    5  A    between atoms: C_7  and  C_8
REMARK    6  A    between atoms: C_20  and  C_21
REMARK                            x       y       z     vdW  Elec       q    Type
REMARK                         _______ _______ _______ _____ _____    ______ ____
ROOT
ATOM      1  C   UNL     1       6.649  -2.449  23.589  0.00  0.00    +0.031 A 
ATOM      2  C   UNL     1       5.687  -1.966  24.483  0.00  0.00    +0.025 A 
ATOM      3  C   UNL     1       5.674  -0.623  24.868  0.00  0.00    +0.028 A 
ATOM      4  C   UNL     1       6.625   0.257  24.353  0.00  0.00    +0.050 A 
ATOM      5  N   UNL     1       6.617   1.580  24.799  0.00  0.00    -0.322 N 
ATOM      6  H   UNL     1       5.947   1.888  25.491  0.00  0.00    +0.169 HD
ATOM      7  C   UNL     1       7.511   2.520  24.384  0.00  0.00    +0.250 A 
ATOM      8  C   UNL     1       8.503   2.086  23.385  0.00  0.00    +0.083 A 
ATOM      9  C   UNL     1       8.564   0.826  22.907  0.00  0.00    +0.069 A 
ATOM     10  O   UNL     1       7.502   3.672  24.803  0.00  0.00    -0.268 OA
ATOM     11  C   UNL     1       7.586  -0.166  23.417  0.00  0.00    +0.012 A 
ATOM     12  C   UNL     1       7.563  -1.521  23.051  0.00  0.00    +0.033 A 
ENDROOT
BRANCH   9  13
ATOM     13  C   UNL     1       9.627   0.529  21.886  0.00  0.00    +0.418 C 
ATOM     14  F   UNL     1      10.499  -0.405  22.350  0.00  0.00    -0.166 F 
ATOM     15  F   UNL     1      10.367   1.640  21.620  0.00  0.00    -0.166 F 
ATOM     16  F   UNL     1       9.192   0.073  20.687  0.00  0.00    -0.166 F 
ENDBRANCH   9  13
BRANCH   1  17
ATOM     17  N   UNL     1       6.730  -3.825  23.325  0.00  0.00    -0.313 N 
BRANCH  17  18
ATOM     18  C   UNL     1       5.970  -4.331  22.135  0.00  0.00    +0.218 C 
BRANCH  18  20
ATOM     19  F   UNL     1       7.832  -5.682  21.377  0.00  0.00    -0.169 F 
ATOM     20  C   UNL     1       6.487  -5.604  21.437  0.00  0.00    +0.405 C 
ATOM     21  F   UNL     1       6.052  -6.705  22.097  0.00  0.00    -0.169 F 
ATOM     22  F   UNL     1       6.017  -5.688  20.170  0.00  0.00    -0.169 F 
ENDBRANCH  18  20
ENDBRANCH  17  18
BRANCH  17  23
ATOM     23  C   UNL     1       6.828  -4.714  24.528  0.00  0.00    +0.218 C 
BRANCH  23  24
ATOM     24  C   UNL     1       8.232  -5.021  25.090  0.00  0.00    +0.405 C 
ATOM     25  F   UNL     1       8.991  -5.686  24.191  0.00  0.00    -0.169 F 
ATOM     26  F   UNL     1       8.131  -5.807  26.190  0.00  0.00    -0.169 F 
ATOM     27  F   UNL     1       8.908  -3.912  25.460  0.00  0.00    -0.169 F 
ENDBRANCH  23  24
ENDBRANCH  17  23
ENDBRANCH   1  17
TORSDOF 6
ENDMDL
MODEL 3
REMARK VINA RESULT:      -6.8      3.759      7.009
REMARK  Name = 
REMARK  6 active torsions:
REMARK  status: ('A' for Active; 'I' for Inactive)
REMARK    1  A    between atoms: C_2  and  C_5
REMARK    2  A    between atoms: C_5  and  N_6
REMARK    3  A    between atoms: N_6  and  C_7
REMARK    4  A    between atoms: N_6  and  C_12
REMARK    5  A    between atoms: C_7  and  C_8
REMARK    6  A    between atoms: C_20  and  C_21
REMARK                            x       y       z     vdW  Elec       q    Type
REMARK                         _______ _______ _______ _____ _____    ______ ____
ROOT
ATOM      1  C   UNL     1       6.770  -2.558  23.770  0.00  0.00    +0.031 A 
ATOM      2  C   UNL     1       5.771  -2.071  24.620  0.00  0.00    +0.025 A 
ATOM      3  C   UNL     1       5.676  -0.707  24.908  0.00  0.00    +0.028 A 
ATOM      4  C   UNL     1       6.580   0.189  24.340  0.00  0.00    +0.050 A 
ATOM      5  N   UNL     1       6.490   1.538  24.691  0.00  0.00    -0.322 N 
ATOM      6  H   UNL     1       5.794   1.853  25.353  0.00  0.00    +0.169 HD
ATOM      7  C   UNL     1       7.333   2.497  24.218  0.00  0.00    +0.250 A 
ATOM      8  C   UNL     1       8.361   2.052  23.261  0.00  0.00    +0.083 A 
ATOM      9  C   UNL     1       8.501   0.768  22.874  0.00  0.00    +0.069 A 
ATOM     10  O   UNL     1       7.253   3.673  24.555  0.00  0.00    -0.268 OA
ATOM     11  C   UNL     1       7.576  -0.242  23.445  0.00  0.00    +0.012 A 
ATOM     12  C   UNL     1       7.636  -1.618  23.176  0.00  0.00    +0.033 A 
ENDROOT
BRANCH   9  13
ATOM     13  C   UNL     1       9.592   0.463  21.886  0.00  0.00    +0.418 C 
ATOM     14  F   UNL     1      10.497  -0.404  22.413  0.00  0.00    -0.166 F 
ATOM     15  F   UNL     1      10.287   1.589  21.567  0.00  0.00    -0.166 F 
ATOM     16  F   UNL     1       9.197  -0.079  20.709  0.00  0.00    -0.166 F 
ENDBRANCH   9  13
BRANCH   1  17
ATOM     17  N   UNL     1       6.935  -3.942  23.605  0.00  0.00    -0.313 N 
BRANCH  17  18
ATOM     18  C   UNL     1       7.602  -4.682  24.726  0.00  0.00    +0.218 C 
BRANCH  18  20
ATOM     19  F   UNL     1       9.744  -3.700  24.171  0.00  0.00    -0.169 F 
ATOM     20  C   UNL     1       8.999  -4.210  25.172  0.00  0.00    +0.405 C 
ATOM     21  F   UNL     1       8.883  -3.244  26.116  0.00  0.00    -0.169 F 
ATOM     22  F   UNL     1       9.701  -5.226  25.726  0.00  0.00    -0.169 F 
ENDBRANCH  18  20
ENDBRANCH  17  18
BRANCH  17  23
ATOM     23  C   UNL     1       7.197  -4.403  22.202  0.00  0.00    +0.218 C 
BRANCH  23  24
ATOM     24  C   UNL     1       6.379  -5.597  21.668  0.00  0.00    +0.405 C 
ATOM     25  F   UNL     1       6.200  -5.517  20.331  0.00  0.00    -0.169 F 
ATOM     26  F   UNL     1       5.147  -5.609  22.237  0.00  0.00    -0.169 F 
ATOM     27  F   UNL     1       6.947  -6.793  21.937  0.00  0.00    -0.169 F 
ENDBRANCH  23  24
ENDBRANCH  17  23
ENDBRANCH   1  17
TORSDOF 6
ENDMDL
MODEL 4
REMARK VINA RESULT:      -6.8      0.752      2.707
REMARK  Name = 
REMARK  6 active torsions:
REMARK  status: ('A' for Active; 'I' for Inactive)
REMARK    1  A    between atoms: C_2  and  C_5
REMARK    2  A    between atoms: C_5  and  N_6
REMARK    3  A    between atoms: N_6  and  C_7
REMARK    4  A    between atoms: N_6  and  C_12
REMARK    5  A    between atoms: C_7  and  C_8
REMARK    6  A    between atoms: C_20  and  C_21
REMARK                            x       y       z     vdW  Elec       q    Type
REMARK                         _______ _______ _______ _____ _____    ______ ____
ROOT
ATOM      1  C   UNL     1       7.502  -3.186  23.609  0.00  0.00    +0.031 A 
ATOM      2  C   UNL     1       6.810  -3.500  22.435  0.00  0.00    +0.025 A 
ATOM      3  C   UNL     1       5.855  -4.520  22.414  0.00  0.00    +0.028 A 
ATOM      4  C   UNL     1       5.577  -5.236  23.578  0.00  0.00    +0.050 A 
ATOM      5  N   UNL     1       4.658  -6.284  23.510  0.00  0.00    -0.322 N 
ATOM      6  H   UNL     1       4.214  -6.526  22.634  0.00  0.00    +0.169 HD
ATOM      7  C   UNL     1       4.327  -7.065  24.576  0.00  0.00    +0.250 A 
ATOM      8  C   UNL     1       4.972  -6.733  25.857  0.00  0.00    +0.083 A 
ATOM      9  C   UNL     1       5.865  -5.732  25.995  0.00  0.00    +0.069 A 
ATOM     10  O   UNL     1       3.533  -7.996  24.493  0.00  0.00    -0.268 OA
ATOM     11  C   UNL     1       6.213  -4.932  24.795  0.00  0.00    +0.012 A 
ATOM     12  C   UNL     1       7.161  -3.898  24.776  0.00  0.00    +0.033 A 
ENDROOT
BRANCH   9  13
ATOM     13  C   UNL     1       6.438  -5.506  27.367  0.00  0.00    +0.418 C 
ATOM     14  F   UNL     1       5.902  -6.374  28.265  0.00  0.00    -0.166 F 
ATOM     15  F   UNL     1       6.136  -4.259  27.819  0.00  0.00    -0.166 F 
ATOM     16  F   UNL     1       7.782  -5.631  27.481  0.00  0.00    -0.166 F 
ENDBRANCH   9  13
BRANCH   1  17
ATOM     17  N   UNL     1       8.553  -2.256  23.574  0.00  0.00    -0.313 N 
BRANCH  17  18
ATOM     18  C   UNL     1       9.287  -2.017  24.860  0.00  0.00    +0.218 C 
BRANCH  18  20
ATOM     19  F   UNL     1       7.528  -0.540  25.626  0.00  0.00    -0.169 F 
ATOM     20  C   UNL     1       8.841  -0.831  25.737  0.00  0.00    +0.405 C 
ATOM     21  F   UNL     1       9.081  -1.102  27.043  0.00  0.00    -0.169 F 
ATOM     22  F   UNL     1       9.534   0.289  25.427  0.00  0.00    -0.169 F 
ENDBRANCH  18  20
ENDBRANCH  17  18
BRANCH  17  23
ATOM     23  C   UNL     1       8.364  -1.094  22.646  0.00  0.00    +0.218 C 
BRANCH  23  24
ATOM     24  C   UNL     1       9.606  -0.542  21.915  0.00  0.00    +0.405 C 
ATOM     25  F   UNL     1       9.299  -0.113  20.671  0.00  0.00    -0.169 F 
ATOM     26  F   UNL     1      10.540  -1.517  21.784  0.00  0.00    -0.169 F 
ATOM     27  F   UNL     1      10.196   0.481  22.570  0.00  0.00    -0.169 F 
ENDBRANCH  23  24
ENDBRANCH  17  23
ENDBRANCH   1  17
TORSDOF 6
ENDMDL
MODEL 5
REMARK VINA RESULT:      -6.7      3.223      4.525
REMARK  Name = 
REMARK  6 active torsions:
REMARK  status: ('A' for Active; 'I' for Inactive)
REMARK    1  A    between atoms: C_2  and  C_5
REMARK    2  A    between atoms: C_5  and  N_6
REMARK    3  A    between atoms: N_6  and  C_7
REMARK    4  A    between atoms: N_6  and  C_12
REMARK    5  A    between atoms: C_7  and  C_8
REMARK    6  A    between atoms: C_20  and  C_21
REMARK                            x       y       z     vdW  Elec       q    Type
REMARK                         _______ _______ _______ _____ _____    ______ ____
ROOT
ATOM      1  C   UNL     1       7.272  -4.284  24.025  0.00  0.00    +0.031 A 
ATOM      2  C   UNL     1       8.481  -4.699  24.593  0.00  0.00    +0.025 A 
ATOM      3  C   UNL     1       8.511  -5.323  25.842  0.00  0.00    +0.028 A 
ATOM      4  C   UNL     1       7.323  -5.546  26.537  0.00  0.00    +0.050 A 
ATOM      5  N   UNL     1       7.393  -6.123  27.806  0.00  0.00    -0.322 N 
ATOM      6  H   UNL     1       8.286  -6.360  28.217  0.00  0.00    +0.169 HD
ATOM      7  C   UNL     1       6.301  -6.366  28.584  0.00  0.00    +0.250 A 
ATOM      8  C   UNL     1       4.993  -6.016  28.006  0.00  0.00    +0.083 A 
ATOM      9  C   UNL     1       4.852  -5.461  26.784  0.00  0.00    +0.069 A 
ATOM     10  O   UNL     1       6.384  -6.854  29.706  0.00  0.00    -0.268 OA
ATOM     11  C   UNL     1       6.077  -5.188  25.992  0.00  0.00    +0.012 A 
ATOM     12  C   UNL     1       6.087  -4.570  24.733  0.00  0.00    +0.033 A 
ENDROOT
BRANCH   9  13
ATOM     13  C   UNL     1       3.452  -5.163  26.323  0.00  0.00    +0.418 C 
ATOM     14  F   UNL     1       2.543  -5.521  27.267  0.00  0.00    -0.166 F 
ATOM     15  F   UNL     1       3.146  -5.882  25.209  0.00  0.00    -0.166 F 
ATOM     16  F   UNL     1       3.187  -3.870  26.018  0.00  0.00    -0.166 F 
ENDBRANCH   9  13
BRANCH   1  17
ATOM     17  N   UNL     1       7.277  -3.536  22.837  0.00  0.00    -0.313 N 
BRANCH  17  18
ATOM     18  C   UNL     1       7.554  -2.068  22.964  0.00  0.00    +0.218 C 
BRANCH  18  20
ATOM     19  F   UNL     1       9.210  -0.301  22.963  0.00  0.00    -0.169 F 
ATOM     20  C   UNL     1       8.947  -1.557  22.548  0.00  0.00    +0.405 C 
ATOM     21  F   UNL     1       9.909  -2.359  23.066  0.00  0.00    -0.169 F 
ATOM     22  F   UNL     1       9.091  -1.580  21.202  0.00  0.00    -0.169 F 
ENDBRANCH  18  20
ENDBRANCH  17  18
BRANCH  17  23
ATOM     23  C   UNL     1       6.306  -3.980  21.784  0.00  0.00    +0.218 C 
BRANCH  23  24
ATOM     24  C   UNL     1       6.404  -5.434  21.277  0.00  0.00    +0.405 C 
ATOM     25  F   UNL     1       6.028  -5.535  19.982  0.00  0.00    -0.169 F 
ATOM     26  F   UNL     1       5.578  -6.234  21.997  0.00  0.00    -0.169 F 
ATOM     27  F   UNL     1       7.646  -5.952  21.387  0.00  0.00    -0.169 F 
ENDBRANCH  23  24
ENDBRANCH  17  23
ENDBRANCH   1  17
TORSDOF 6
ENDMDL
MODEL 6
REMARK VINA RESULT:      -6.7      2.470      3.936
REMARK  Name = 
REMARK  6 active torsions:
REMARK  status: ('A' for Active; 'I' for Inactive)
REMARK    1  A    between atoms: C_2  and  C_5
REMARK    2  A    between atoms: C_5  and  N_6
REMARK    3  A    between atoms: N_6  and  C_7
REMARK    4  A    between atoms: N_6  and  C_12
REMARK    5  A    between atoms: C_7  and  C_8
REMARK    6  A    between atoms: C_20  and  C_21
REMARK                            x       y       z     vdW  Elec       q    Type
REMARK                         _______ _______ _______ _____ _____    ______ ____
ROOT
ATOM      1  C   UNL     1       8.059  -2.907  24.987  0.00  0.00    +0.031 A 
ATOM      2  C   UNL     1       7.713  -3.276  26.290  0.00  0.00    +0.025 A 
ATOM      3  C   UNL     1       6.829  -4.331  26.527  0.00  0.00    +0.028 A 
ATOM      4  C   UNL     1       6.285  -5.037  25.455  0.00  0.00    +0.050 A 
ATOM      5  N   UNL     1       5.364  -6.051  25.724  0.00  0.00    -0.322 N 
ATOM      6  H   UNL     1       5.087  -6.258  26.675  0.00  0.00    +0.169 HD
ATOM      7  C   UNL     1       4.752  -6.789  24.757  0.00  0.00    +0.250 A 
ATOM      8  C   UNL     1       5.134  -6.493  23.366  0.00  0.00    +0.083 A 
ATOM      9  C   UNL     1       6.021  -5.532  23.034  0.00  0.00    +0.069 A 
ATOM     10  O   UNL     1       3.929  -7.661  25.012  0.00  0.00    -0.268 OA
ATOM     11  C   UNL     1       6.634  -4.736  24.126  0.00  0.00    +0.012 A 
ATOM     12  C   UNL     1       7.529  -3.673  23.929  0.00  0.00    +0.033 A 
ENDROOT
BRANCH   9  13
ATOM     13  C   UNL     1       6.318  -5.346  21.572  0.00  0.00    +0.418 C 
ATOM     14  F   UNL     1       5.593  -6.213  20.816  0.00  0.00    -0.166 F 
ATOM     15  F   UNL     1       7.625  -5.612  21.305  0.00  0.00    -0.166 F 
ATOM     16  F   UNL     1       6.075  -4.113  21.066  0.00  0.00    -0.166 F 
ENDBRANCH   9  13
BRANCH   1  17
ATOM     17  N   UNL     1       8.837  -1.758  24.767  0.00  0.00    -0.313 N 
BRANCH  17  18
ATOM     18  C   UNL     1       8.937  -0.783  25.901  0.00  0.00    +0.218 C 
BRANCH  18  20
ATOM     19  F   UNL     1       7.655   0.852  27.145  0.00  0.00    -0.169 F 
ATOM     20  C   UNL     1       7.972   0.419  25.908  0.00  0.00    +0.405 C 
ATOM     21  F   UNL     1       8.528   1.465  25.248  0.00  0.00    -0.169 F 
ATOM     22  F   UNL     1       6.815   0.117  25.273  0.00  0.00    -0.169 F 
ENDBRANCH  18  20
ENDBRANCH  17  18
BRANCH  17  23
ATOM     23  C   UNL     1       8.812  -1.213  23.370  0.00  0.00    +0.218 C 
BRANCH  23  24
ATOM     24  C   UNL     1      10.162  -0.901  22.691  0.00  0.00    +0.405 C 
ATOM     25  F   UNL     1      10.930  -2.008  22.583  0.00  0.00    -0.169 F 
ATOM     26  F   UNL     1      10.857  -0.001  23.431  0.00  0.00    -0.169 F 
ATOM     27  F   UNL     1      10.025  -0.373  21.456  0.00  0.00    -0.169 F 
ENDBRANCH  23  24
ENDBRANCH  17  23
ENDBRANCH   1  17
TORSDOF 6
ENDMDL
MODEL 7
REMARK VINA RESULT:      -6.6      2.723      3.548
REMARK  Name = 
REMARK  6 active torsions:
REMARK  status: ('A' for Active; 'I' for Inactive)
REMARK    1  A    between atoms: C_2  and  C_5
REMARK    2  A    between atoms: C_5  and  N_6
REMARK    3  A    between atoms: N_6  and  C_7
REMARK    4  A    between atoms: N_6  and  C_12
REMARK    5  A    between atoms: C_7  and  C_8
REMARK    6  A    between atoms: C_20  and  C_21
REMARK                            x       y       z     vdW  Elec       q    Type
REMARK                         _______ _______ _______ _____ _____    ______ ____
ROOT
ATOM      1  C   UNL     1       8.246  -1.276  24.302  0.00  0.00    +0.031 A 
ATOM      2  C   UNL     1       8.619  -1.428  25.641  0.00  0.00    +0.025 A 
ATOM      3  C   UNL     1       8.224  -2.550  26.374  0.00  0.00    +0.028 A 
ATOM      4  C   UNL     1       7.454  -3.542  25.767  0.00  0.00    +0.050 A 
ATOM      5  N   UNL     1       7.032  -4.624  26.542  0.00  0.00    -0.322 N 
ATOM      6  H   UNL     1       7.268  -4.678  27.524  0.00  0.00    +0.169 HD
ATOM      7  C   UNL     1       6.259  -5.637  26.063  0.00  0.00    +0.250 A 
ATOM      8  C   UNL     1       5.896  -5.566  24.637  0.00  0.00    +0.083 A 
ATOM      9  C   UNL     1       6.274  -4.554  23.830  0.00  0.00    +0.069 A 
ATOM     10  O   UNL     1       5.879  -6.568  26.764  0.00  0.00    -0.268 OA
ATOM     11  C   UNL     1       7.089  -3.460  24.411  0.00  0.00    +0.012 A 
ATOM     12  C   UNL     1       7.509  -2.321  23.708  0.00  0.00    +0.033 A 
ENDROOT
BRANCH   9  13
ATOM     13  C   UNL     1       5.834  -4.620  22.393  0.00  0.00    +0.418 C 
ATOM     14  F   UNL     1       5.008  -5.680  22.187  0.00  0.00    -0.166 F 
ATOM     15  F   UNL     1       6.900  -4.804  21.568  0.00  0.00    -0.166 F 
ATOM     16  F   UNL     1       5.176  -3.534  21.921  0.00  0.00    -0.166 F 
ENDBRANCH   9  13
BRANCH   1  17
ATOM     17  N   UNL     1       8.533  -0.079  23.626  0.00  0.00    -0.313 N 
BRANCH  17  18
ATOM     18  C   UNL     1       7.506   0.407  22.648  0.00  0.00    +0.218 C 
BRANCH  18  20
ATOM     19  F   UNL     1       8.240   2.431  21.539  0.00  0.00    -0.169 F 
ATOM     20  C   UNL     1       7.371   1.928  22.439  0.00  0.00    +0.405 C 
ATOM     21  F   UNL     1       6.124   2.228  22.001  0.00  0.00    -0.169 F 
ATOM     22  F   UNL     1       7.557   2.596  23.602  0.00  0.00    -0.169 F 
ENDBRANCH  18  20
ENDBRANCH  17  18
BRANCH  17  23
ATOM     23  C   UNL     1       9.978   0.157  23.306  0.00  0.00    +0.218 C 
BRANCH  23  24
ATOM     24  C   UNL     1      10.698   1.320  24.020  0.00  0.00    +0.405 C 
ATOM     25  F   UNL     1      11.876   0.924  24.550  0.00  0.00    -0.169 F 
ATOM     26  F   UNL     1       9.934   1.782  25.042  0.00  0.00    -0.169 F 
ATOM     27  F   UNL     1      10.943   2.371  23.208  0.00  0.00    -0.169 F 
ENDBRANCH  23  24
ENDBRANCH  17  23
ENDBRANCH   1  17
TORSDOF 6
ENDMDL
MODEL 8
REMARK VINA RESULT:      -6.6      2.325      3.804
REMARK  Name = 
REMARK  6 active torsions:
REMARK  status: ('A' for Active; 'I' for Inactive)
REMARK    1  A    between atoms: C_2  and  C_5
REMARK    2  A    between atoms: C_5  and  N_6
REMARK    3  A    between atoms: N_6  and  C_7
REMARK    4  A    between atoms: N_6  and  C_12
REMARK    5  A    between atoms: C_7  and  C_8
REMARK    6  A    between atoms: C_20  and  C_21
REMARK                            x       y       z     vdW  Elec       q    Type
REMARK                         _______ _______ _______ _____ _____    ______ ____
ROOT
ATOM      1  C   UNL     1       7.354  -1.587  23.719  0.00  0.00    +0.031 A 
ATOM      2  C   UNL     1       6.385  -1.103  24.603  0.00  0.00    +0.025 A 
ATOM      3  C   UNL     1       5.322  -1.910  25.016  0.00  0.00    +0.028 A 
ATOM      4  C   UNL     1       5.222  -3.221  24.550  0.00  0.00    +0.050 A 
ATOM      5  N   UNL     1       4.119  -3.983  24.939  0.00  0.00    -0.322 N 
ATOM      6  H   UNL     1       3.402  -3.588  25.533  0.00  0.00    +0.169 HD
ATOM      7  C   UNL     1       3.906  -5.264  24.527  0.00  0.00    +0.250 A 
ATOM      8  C   UNL     1       4.934  -5.850  23.651  0.00  0.00    +0.083 A 
ATOM      9  C   UNL     1       6.026  -5.173  23.241  0.00  0.00    +0.069 A 
ATOM     10  O   UNL     1       2.919  -5.910  24.862  0.00  0.00    -0.268 OA
ATOM     11  C   UNL     1       6.193  -3.770  23.694  0.00  0.00    +0.012 A 
ATOM     12  C   UNL     1       7.248  -2.930  23.307  0.00  0.00    +0.033 A 
ENDROOT
BRANCH   9  13
ATOM     13  C   UNL     1       6.994  -5.905  22.352  0.00  0.00    +0.418 C 
ATOM     14  F   UNL     1       6.577  -7.178  22.125  0.00  0.00    -0.166 F 
ATOM     15  F   UNL     1       8.215  -6.005  22.944  0.00  0.00    -0.166 F 
ATOM     16  F   UNL     1       7.213  -5.359  21.132  0.00  0.00    -0.166 F 
ENDBRANCH   9  13
BRANCH   1  17
ATOM     17  N   UNL     1       8.333  -0.718  23.209  0.00  0.00    -0.313 N 
BRANCH  17  18
ATOM     18  C   UNL     1       9.684  -0.767  23.857  0.00  0.00    +0.218 C 
BRANCH  18  20
ATOM     19  F   UNL     1       9.301   1.308  25.045  0.00  0.00    -0.169 F 
ATOM     20  C   UNL     1       9.919   0.111  25.101  0.00  0.00    +0.405 C 
ATOM     21  F   UNL     1       9.464  -0.522  26.210  0.00  0.00    -0.169 F 
ATOM     22  F   UNL     1      11.239   0.344  25.289  0.00  0.00    -0.169 F 
ENDBRANCH  18  20
ENDBRANCH  17  18
BRANCH  17  23
ATOM     23  C   UNL     1       7.834   0.609  22.720  0.00  0.00    +0.218 C 
BRANCH  23  24
ATOM     24  C   UNL     1       8.624   1.309  21.595  0.00  0.00    +0.405 C 
ATOM     25  F   UNL     1       7.803   1.968  20.748  0.00  0.00    -0.169 F 
ATOM     26  F   UNL     1       9.302   0.390  20.862  0.00  0.00    -0.169 F 
ATOM     27  F   UNL     1       9.536   2.192  22.057  0.00  0.00    -0.169 F 
ENDBRANCH  23  24
ENDBRANCH  17  23
ENDBRANCH   1  17
TORSDOF 6
ENDMDL
MODEL 9
REMARK VINA RESULT:      -6.5      3.619      7.519
REMARK  Name = 
REMARK  6 active torsions:
REMARK  status: ('A' for Active; 'I' for Inactive)
REMARK    1  A    between atoms: C_2  and  C_5
REMARK    2  A    between atoms: C_5  and  N_6
REMARK    3  A    between atoms: N_6  and  C_7
REMARK    4  A    between atoms: N_6  and  C_12
REMARK    5  A    between atoms: C_7  and  C_8
REMARK    6  A    between atoms: C_20  and  C_21
REMARK                            x       y       z     vdW  Elec       q    Type
REMARK                         _______ _______ _______ _____ _____    ______ ____
ROOT
ATOM      1  C   UNL     1       7.753  -1.830  25.088  0.00  0.00    +0.031 A 
ATOM      2  C   UNL     1       7.159  -1.276  26.226  0.00  0.00    +0.025 A 
ATOM      3  C   UNL     1       7.207   0.100  26.465  0.00  0.00    +0.028 A 
ATOM      4  C   UNL     1       7.848   0.941  25.556  0.00  0.00    +0.050 A 
ATOM      5  N   UNL     1       7.925   2.304  25.851  0.00  0.00    -0.322 N 
ATOM      6  H   UNL     1       7.537   2.669  26.711  0.00  0.00    +0.169 HD
ATOM      7  C   UNL     1       8.546   3.214  25.050  0.00  0.00    +0.250 A 
ATOM      8  C   UNL     1       9.127   2.697  23.799  0.00  0.00    +0.083 A 
ATOM      9  C   UNL     1       9.085   1.395  23.450  0.00  0.00    +0.069 A 
ATOM     10  O   UNL     1       8.622   4.404  25.336  0.00  0.00    -0.268 OA
ATOM     11  C   UNL     1       8.424   0.442  24.374  0.00  0.00    +0.012 A 
ATOM     12  C   UNL     1       8.350  -0.944  24.168  0.00  0.00    +0.033 A 
ENDROOT
BRANCH   9  13
ATOM     13  C   UNL     1       9.716   1.015  22.139  0.00  0.00    +0.418 C 
ATOM     14  F   UNL     1      10.542  -0.054  22.290  0.00  0.00    -0.166 F 
ATOM     15  F   UNL     1      10.490   2.028  21.661  0.00  0.00    -0.166 F 
ATOM     16  F   UNL     1       8.862   0.691  21.138  0.00  0.00    -0.166 F 
ENDBRANCH   9  13
BRANCH   1  17
ATOM     17  N   UNL     1       7.816  -3.224  24.938  0.00  0.00    -0.313 N 
BRANCH  17  18
ATOM     18  C   UNL     1       8.259  -4.013  26.134  0.00  0.00    +0.218 C 
BRANCH  18  20
ATOM     19  F   UNL     1       6.251  -4.261  27.465  0.00  0.00    -0.169 F 
ATOM     20  C   UNL     1       7.227  -4.931  26.817  0.00  0.00    +0.405 C 
ATOM     21  F   UNL     1       6.624  -5.721  25.894  0.00  0.00    -0.169 F 
ATOM     22  F   UNL     1       7.823  -5.750  27.715  0.00  0.00    -0.169 F 
ENDBRANCH  18  20
ENDBRANCH  17  18
BRANCH  17  23
ATOM     23  C   UNL     1       8.221  -3.716  23.581  0.00  0.00    +0.218 C 
BRANCH  23  24
ATOM     24  C   UNL     1       7.251  -4.653  22.832  0.00  0.00    +0.405 C 
ATOM     25  F   UNL     1       7.169  -4.337  21.520  0.00  0.00    -0.169 F 
ATOM     26  F   UNL     1       6.003  -4.541  23.350  0.00  0.00    -0.169 F 
ATOM     27  F   UNL     1       7.598  -5.956  22.920  0.00  0.00    -0.169 F 
ENDBRANCH  23  24
ENDBRANCH  17  23
ENDBRANCH   1  17
TORSDOF 6
ENDMDL
