MODEL 1
REMARK VINA RESULT:      -5.4      0.000      0.000
REMARK  Name = 
REMARK  12 active torsions:
REMARK  status: ('A' for Active; 'I' for Inactive)
REMARK    1  A    between atoms: CB_2  and  CG2_3
REMARK    2  A    between atoms: CB_2  and  CG1_4
REMARK    3  A    between atoms: CB_2  and  CA_6
REMARK    4  A    between atoms: CG1_4  and  CD1_5
REMARK    5  A    between atoms: CA_6  and  N_8
REMARK    6  A    between atoms: CA_6  and  C_21
REMARK    7  A    between atoms: C_9  and  C_11
REMARK    8  A    between atoms: C_14  and  C_16
REMARK    9  A    between atoms: C_16  and  O_18
REMARK   10  A    between atoms: O_18  and  C_19
REMARK   11  A    between atoms: C_19  and  C_20
REMARK   12  A    between atoms: C_21  and  O_22
REMARK                            x       y       z     vdW  Elec       q    Type
REMARK                         _______ _______ _______ _____ _____    ______ ____
ROOT
ATOM      1  N   ILE A   1       7.499  -3.472  23.200  0.00  0.00    -0.300 N 
ATOM      2  H   ILE A   1       6.835  -2.777  22.870  0.00  0.00    +0.150 HD
ATOM      3  C   UNK A   0       8.720  -3.034  23.653  0.00  0.00    +0.246 C 
ATOM      4  O   UNK A   0       9.557  -3.747  24.182  0.00  0.00    -0.273 OA
ENDROOT
BRANCH   3   5
ATOM      5  C   UNK A   0       9.003  -1.611  23.408  0.00  0.00    +0.244 C 
ATOM      6  C   UNK A   0       8.915  -0.670  24.577  0.00  0.00    +0.265 C 
ATOM      7  O   UNK A   0       7.913  -0.678  23.547  0.00  0.00    -0.347 OA
BRANCH   6   8
ATOM      8  C   UNK A   0       9.858   0.459  24.629  0.00  0.00    +0.339 C 
ATOM      9  O   UNK A   0      10.986   0.362  25.091  0.00  0.00    -0.248 OA
BRANCH   8  10
ATOM     10  O   UNK A   0       9.239   1.604  24.248  0.00  0.00    -0.463 OA
BRANCH  10  11
ATOM     11  C   UNK A   0       9.996   2.439  23.364  0.00  0.00    +0.229 C 
ATOM     12  C   UNK A   0       9.991   1.782  21.994  0.00  0.00    +0.048 C 
ENDBRANCH  10  11
ENDBRANCH   8  10
ENDBRANCH   6   8
ENDBRANCH   3   5
BRANCH   1  13
ATOM     13  CA  ILE A   1       7.065  -4.875  23.382  0.00  0.00    +0.185 C 
BRANCH  13  14
ATOM     14  CB  ILE A   1       6.168  -4.995  24.643  0.00  0.00    +0.017 C 
ATOM     15  CG2 ILE A   1       6.941  -5.392  25.907  0.00  0.00    +0.010 C 
BRANCH  14  16
ATOM     16  CG1 ILE A   1       5.338  -3.713  24.922  0.00  0.00    +0.002 C 
ATOM     17  CD1 ILE A   1       3.860  -3.789  24.553  0.00  0.00    +0.004 C 
ENDBRANCH  14  16
ENDBRANCH  13  14
BRANCH  13  18
ATOM     18  C   ILE A   1       6.342  -5.327  22.088  0.00  0.00    +0.326 C 
ATOM     19  OXT ILE A   1       5.893  -4.572  21.239  0.00  0.00    -0.249 OA
BRANCH  18  20
ATOM     20  O   ILE A   1       6.267  -6.675  21.944  0.00  0.00    -0.479 OA
ATOM     21  H   ILE A   1       5.966  -7.077  22.780  0.00  0.00    +0.295 HD
ENDBRANCH  18  20
ENDBRANCH  13  18
ENDBRANCH   1  13
TORSDOF 9
ENDMDL
MODEL 2
REMARK VINA RESULT:      -5.4      2.210      2.991
REMARK  Name = 
REMARK  12 active torsions:
REMARK  status: ('A' for Active; 'I' for Inactive)
REMARK    1  A    between atoms: CB_2  and  CG2_3
REMARK    2  A    between atoms: CB_2  and  CG1_4
REMARK    3  A    between atoms: CB_2  and  CA_6
REMARK    4  A    between atoms: CG1_4  and  CD1_5
REMARK    5  A    between atoms: CA_6  and  N_8
REMARK    6  A    between atoms: CA_6  and  C_21
REMARK    7  A    between atoms: C_9  and  C_11
REMARK    8  A    between atoms: C_14  and  C_16
REMARK    9  A    between atoms: C_16  and  O_18
REMARK   10  A    between atoms: O_18  and  C_19
REMARK   11  A    between atoms: C_19  and  C_20
REMARK   12  A    between atoms: C_21  and  O_22
REMARK                            x       y       z     vdW  Elec       q    Type
REMARK                         _______ _______ _______ _____ _____    ______ ____
ROOT
ATOM      1  N   ILE A   1       8.742  -3.381  23.894  0.00  0.00    -0.300 N 
ATOM      2  H   ILE A   1       8.876  -3.502  22.893  0.00  0.00    +0.150 HD
ATOM      3  C   UNK A   0       9.087  -2.173  24.449  0.00  0.00    +0.246 C 
ATOM      4  O   UNK A   0       8.869  -1.859  25.608  0.00  0.00    -0.273 OA
ENDROOT
BRANCH   3   5
ATOM      5  C   UNK A   0       9.815  -1.259  23.555  0.00  0.00    +0.244 C 
ATOM      6  C   UNK A   0       9.071  -0.069  23.017  0.00  0.00    +0.265 C 
ATOM      7  O   UNK A   0       9.392  -1.191  22.180  0.00  0.00    -0.347 OA
BRANCH   6   8
ATOM      8  C   UNK A   0       9.818   1.185  22.827  0.00  0.00    +0.339 C 
ATOM      9  O   UNK A   0      10.593   1.632  23.662  0.00  0.00    -0.248 OA
BRANCH   8  10
ATOM     10  O   UNK A   0       9.399   1.813  21.700  0.00  0.00    -0.463 OA
BRANCH  10  11
ATOM     11  C   UNK A   0       7.981   1.975  21.586  0.00  0.00    +0.229 C 
ATOM     12  C   UNK A   0       7.614   3.293  22.245  0.00  0.00    +0.048 C 
ENDBRANCH  10  11
ENDBRANCH   8  10
ENDBRANCH   6   8
ENDBRANCH   3   5
BRANCH   1  13
ATOM     13  CA  ILE A   1       7.997  -4.402  24.663  0.00  0.00    +0.185 C 
BRANCH  13  14
ATOM     14  CB  ILE A   1       7.124  -5.257  23.708  0.00  0.00    +0.017 C 
ATOM     15  CG2 ILE A   1       5.650  -5.331  24.129  0.00  0.00    +0.010 C 
BRANCH  14  16
ATOM     16  CG1 ILE A   1       7.218  -4.801  22.227  0.00  0.00    +0.002 C 
ATOM     17  CD1 ILE A   1       6.478  -5.673  21.218  0.00  0.00    +0.004 C 
ENDBRANCH  14  16
ENDBRANCH  13  14
BRANCH  13  18
ATOM     18  C   ILE A   1       9.024  -5.251  25.456  0.00  0.00    +0.326 C 
ATOM     19  OXT ILE A   1      10.216  -5.325  25.198  0.00  0.00    -0.249 OA
BRANCH  18  20
ATOM     20  O   ILE A   1       8.489  -5.908  26.517  0.00  0.00    -0.479 OA
ATOM     21  H   ILE A   1       8.863  -5.551  27.345  0.00  0.00    +0.295 HD
ENDBRANCH  18  20
ENDBRANCH  13  18
ENDBRANCH   1  13
TORSDOF 9
ENDMDL
MODEL 3
REMARK VINA RESULT:      -5.4      2.215      6.527
REMARK  Name = 
REMARK  12 active torsions:
REMARK  status: ('A' for Active; 'I' for Inactive)
REMARK    1  A    between atoms: CB_2  and  CG2_3
REMARK    2  A    between atoms: CB_2  and  CG1_4
REMARK    3  A    between atoms: CB_2  and  CA_6
REMARK    4  A    between atoms: CG1_4  and  CD1_5
REMARK    5  A    between atoms: CA_6  and  N_8
REMARK    6  A    between atoms: CA_6  and  C_21
REMARK    7  A    between atoms: C_9  and  C_11
REMARK    8  A    between atoms: C_14  and  C_16
REMARK    9  A    between atoms: C_16  and  O_18
REMARK   10  A    between atoms: O_18  and  C_19
REMARK   11  A    between atoms: C_19  and  C_20
REMARK   12  A    between atoms: C_21  and  O_22
REMARK                            x       y       z     vdW  Elec       q    Type
REMARK                         _______ _______ _______ _____ _____    ______ ____
ROOT
ATOM      1  N   ILE A   1       9.062  -0.384  23.503  0.00  0.00    -0.300 N 
ATOM      2  H   ILE A   1       8.649  -0.404  24.432  0.00  0.00    +0.150 HD
ATOM      3  C   UNK A   0       9.606  -1.547  23.014  0.00  0.00    +0.246 C 
ATOM      4  O   UNK A   0      10.026  -1.688  21.877  0.00  0.00    -0.273 OA
ENDROOT
BRANCH   3   5
ATOM      5  C   UNK A   0       9.714  -2.644  23.989  0.00  0.00    +0.244 C 
ATOM      6  C   UNK A   0       8.472  -3.435  24.290  0.00  0.00    +0.265 C 
ATOM      7  O   UNK A   0       9.011  -2.501  25.238  0.00  0.00    -0.347 OA
BRANCH   6   8
ATOM      8  C   UNK A   0       8.618  -4.874  24.563  0.00  0.00    +0.339 C 
ATOM      9  O   UNK A   0       9.121  -5.310  25.589  0.00  0.00    -0.248 OA
BRANCH   8  10
ATOM     10  O   UNK A   0       8.271  -5.595  23.468  0.00  0.00    -0.463 OA
BRANCH  10  11
ATOM     11  C   UNK A   0       6.989  -5.279  22.913  0.00  0.00    +0.229 C 
ATOM     12  C   UNK A   0       6.833  -6.081  21.632  0.00  0.00    +0.048 C 
ENDBRANCH  10  11
ENDBRANCH   8  10
ENDBRANCH   6   8
ENDBRANCH   3   5
BRANCH   1  13
ATOM     13  CA  ILE A   1       8.878   0.805  22.642  0.00  0.00    +0.185 C 
BRANCH  13  14
ATOM     14  CB  ILE A   1       7.550   1.523  23.003  0.00  0.00    +0.017 C 
ATOM     15  CG2 ILE A   1       7.604   2.267  24.344  0.00  0.00    +0.010 C 
BRANCH  14  16
ATOM     16  CG1 ILE A   1       7.062   2.491  21.891  0.00  0.00    +0.002 C 
ATOM     17  CD1 ILE A   1       7.033   3.969  22.268  0.00  0.00    +0.004 C 
ENDBRANCH  14  16
ENDBRANCH  13  14
BRANCH  13  18
ATOM     18  C   ILE A   1      10.118   1.719  22.811  0.00  0.00    +0.326 C 
ATOM     19  OXT ILE A   1      10.793   1.800  23.827  0.00  0.00    -0.249 OA
BRANCH  18  20
ATOM     20  O   ILE A   1      10.431   2.430  21.698  0.00  0.00    -0.479 OA
ATOM     21  H   ILE A   1      10.102   1.963  20.908  0.00  0.00    +0.295 HD
ENDBRANCH  18  20
ENDBRANCH  13  18
ENDBRANCH   1  13
TORSDOF 9
ENDMDL
MODEL 4
REMARK VINA RESULT:      -5.4      2.194      3.045
REMARK  Name = 
REMARK  12 active torsions:
REMARK  status: ('A' for Active; 'I' for Inactive)
REMARK    1  A    between atoms: CB_2  and  CG2_3
REMARK    2  A    between atoms: CB_2  and  CG1_4
REMARK    3  A    between atoms: CB_2  and  CA_6
REMARK    4  A    between atoms: CG1_4  and  CD1_5
REMARK    5  A    between atoms: CA_6  and  N_8
REMARK    6  A    between atoms: CA_6  and  C_21
REMARK    7  A    between atoms: C_9  and  C_11
REMARK    8  A    between atoms: C_14  and  C_16
REMARK    9  A    between atoms: C_16  and  O_18
REMARK   10  A    between atoms: O_18  and  C_19
REMARK   11  A    between atoms: C_19  and  C_20
REMARK   12  A    between atoms: C_21  and  O_22
REMARK                            x       y       z     vdW  Elec       q    Type
REMARK                         _______ _______ _______ _____ _____    ______ ____
ROOT
ATOM      1  N   ILE A   1       8.397  -3.608  24.722  0.00  0.00    -0.300 N 
ATOM      2  H   ILE A   1       8.752  -3.915  23.819  0.00  0.00    +0.150 HD
ATOM      3  C   UNK A   0       8.756  -2.359  25.165  0.00  0.00    +0.246 C 
ATOM      4  O   UNK A   0       8.308  -1.827  26.168  0.00  0.00    -0.273 OA
ENDROOT
BRANCH   3   5
ATOM      5  C   UNK A   0       9.794  -1.687  24.367  0.00  0.00    +0.244 C 
ATOM      6  C   UNK A   0       9.356  -0.604  23.421  0.00  0.00    +0.265 C 
ATOM      7  O   UNK A   0       9.778  -1.890  22.941  0.00  0.00    -0.347 OA
BRANCH   6   8
ATOM      8  C   UNK A   0      10.254   0.546  23.225  0.00  0.00    +0.339 C 
ATOM      9  O   UNK A   0      10.904   1.045  24.133  0.00  0.00    -0.248 OA
BRANCH   8  10
ATOM     10  O   UNK A   0      10.117   1.037  21.968  0.00  0.00    -0.463 OA
BRANCH  10  11
ATOM     11  C   UNK A   0       8.769   1.125  21.493  0.00  0.00    +0.229 C 
ATOM     12  C   UNK A   0       8.213   2.469  21.933  0.00  0.00    +0.048 C 
ENDBRANCH  10  11
ENDBRANCH   8  10
ENDBRANCH   6   8
ENDBRANCH   3   5
BRANCH   1  13
ATOM     13  CA  ILE A   1       7.358  -4.405  25.411  0.00  0.00    +0.185 C 
BRANCH  13  14
ATOM     14  CB  ILE A   1       6.524  -5.204  24.376  0.00  0.00    +0.017 C 
ATOM     15  CG2 ILE A   1       5.008  -5.069  24.577  0.00  0.00    +0.010 C 
BRANCH  14  16
ATOM     16  CG1 ILE A   1       6.885  -4.855  22.906  0.00  0.00    +0.002 C 
ATOM     17  CD1 ILE A   1       7.085  -6.046  21.974  0.00  0.00    +0.004 C 
ENDBRANCH  14  16
ENDBRANCH  13  14
BRANCH  13  18
ATOM     18  C   ILE A   1       8.061  -5.319  26.447  0.00  0.00    +0.326 C 
ATOM     19  OXT ILE A   1       7.577  -5.667  27.513  0.00  0.00    -0.249 OA
BRANCH  18  20
ATOM     20  O   ILE A   1       9.289  -5.747  26.056  0.00  0.00    -0.479 OA
ATOM     21  H   ILE A   1       9.867  -4.978  25.891  0.00  0.00    +0.295 HD
ENDBRANCH  18  20
ENDBRANCH  13  18
ENDBRANCH   1  13
TORSDOF 9
ENDMDL
MODEL 5
REMARK VINA RESULT:      -5.3      1.330      2.158
REMARK  Name = 
REMARK  12 active torsions:
REMARK  status: ('A' for Active; 'I' for Inactive)
REMARK    1  A    between atoms: CB_2  and  CG2_3
REMARK    2  A    between atoms: CB_2  and  CG1_4
REMARK    3  A    between atoms: CB_2  and  CA_6
REMARK    4  A    between atoms: CG1_4  and  CD1_5
REMARK    5  A    between atoms: CA_6  and  N_8
REMARK    6  A    between atoms: CA_6  and  C_21
REMARK    7  A    between atoms: C_9  and  C_11
REMARK    8  A    between atoms: C_14  and  C_16
REMARK    9  A    between atoms: C_16  and  O_18
REMARK   10  A    between atoms: O_18  and  C_19
REMARK   11  A    between atoms: C_19  and  C_20
REMARK   12  A    between atoms: C_21  and  O_22
REMARK                            x       y       z     vdW  Elec       q    Type
REMARK                         _______ _______ _______ _____ _____    ______ ____
ROOT
ATOM      1  N   ILE A   1       7.665  -3.168  23.269  0.00  0.00    -0.300 N 
ATOM      2  H   ILE A   1       6.963  -2.458  23.074  0.00  0.00    +0.150 HD
ATOM      3  C   UNK A   0       8.880  -2.755  23.759  0.00  0.00    +0.246 C 
ATOM      4  O   UNK A   0       9.762  -3.506  24.142  0.00  0.00    -0.273 OA
ENDROOT
BRANCH   3   5
ATOM      5  C   UNK A   0       9.097  -1.299  23.746  0.00  0.00    +0.244 C 
ATOM      6  C   UNK A   0      10.042  -0.743  22.717  0.00  0.00    +0.265 C 
ATOM      7  O   UNK A   0      10.405  -0.814  24.105  0.00  0.00    -0.347 OA
BRANCH   6   8
ATOM      8  C   UNK A   0       9.736   0.576  22.139  0.00  0.00    +0.339 C 
ATOM      9  O   UNK A   0       9.068   0.718  21.125  0.00  0.00    -0.248 OA
BRANCH   8  10
ATOM     10  O   UNK A   0      10.423   1.544  22.794  0.00  0.00    -0.463 OA
BRANCH  10  11
ATOM     11  C   UNK A   0       9.650   2.690  23.169  0.00  0.00    +0.229 C 
ATOM     12  C   UNK A   0       9.083   2.428  24.554  0.00  0.00    +0.048 C 
ENDBRANCH  10  11
ENDBRANCH   8  10
ENDBRANCH   6   8
ENDBRANCH   3   5
BRANCH   1  13
ATOM     13  CA  ILE A   1       7.295  -4.599  23.227  0.00  0.00    +0.185 C 
BRANCH  13  14
ATOM     14  CB  ILE A   1       6.320  -4.932  24.387  0.00  0.00    +0.017 C 
ATOM     15  CG2 ILE A   1       5.309  -6.033  24.040  0.00  0.00    +0.010 C 
BRANCH  14  16
ATOM     16  CG1 ILE A   1       7.050  -5.296  25.709  0.00  0.00    +0.002 C 
ATOM     17  CD1 ILE A   1       7.095  -4.195  26.764  0.00  0.00    +0.004 C 
ENDBRANCH  14  16
ENDBRANCH  13  14
BRANCH  13  18
ATOM     18  C   ILE A   1       6.689  -4.899  21.832  0.00  0.00    +0.326 C 
ATOM     19  OXT ILE A   1       6.968  -5.869  21.143  0.00  0.00    -0.249 OA
BRANCH  18  20
ATOM     20  O   ILE A   1       5.768  -3.988  21.427  0.00  0.00    -0.479 OA
ATOM     21  H   ILE A   1       5.076  -3.896  22.109  0.00  0.00    +0.295 HD
ENDBRANCH  18  20
ENDBRANCH  13  18
ENDBRANCH   1  13
TORSDOF 9
ENDMDL
MODEL 6
REMARK VINA RESULT:      -5.3      1.898      6.652
REMARK  Name = 
REMARK  12 active torsions:
REMARK  status: ('A' for Active; 'I' for Inactive)
REMARK    1  A    between atoms: CB_2  and  CG2_3
REMARK    2  A    between atoms: CB_2  and  CG1_4
REMARK    3  A    between atoms: CB_2  and  CA_6
REMARK    4  A    between atoms: CG1_4  and  CD1_5
REMARK    5  A    between atoms: CA_6  and  N_8
REMARK    6  A    between atoms: CA_6  and  C_21
REMARK    7  A    between atoms: C_9  and  C_11
REMARK    8  A    between atoms: C_14  and  C_16
REMARK    9  A    between atoms: C_16  and  O_18
REMARK   10  A    between atoms: O_18  and  C_19
REMARK   11  A    between atoms: C_19  and  C_20
REMARK   12  A    between atoms: C_21  and  O_22
REMARK                            x       y       z     vdW  Elec       q    Type
REMARK                         _______ _______ _______ _____ _____    ______ ____
ROOT
ATOM      1  N   ILE A   1       8.823  -0.733  23.468  0.00  0.00    -0.300 N 
ATOM      2  H   ILE A   1       7.951  -0.212  23.422  0.00  0.00    +0.150 HD
ATOM      3  C   UNK A   0       8.752  -2.103  23.536  0.00  0.00    +0.246 C 
ATOM      4  O   UNK A   0       9.717  -2.848  23.479  0.00  0.00    -0.273 OA
ENDROOT
BRANCH   3   5
ATOM      5  C   UNK A   0       7.402  -2.649  23.747  0.00  0.00    +0.244 C 
ATOM      6  C   UNK A   0       6.403  -2.492  22.635  0.00  0.00    +0.265 C 
ATOM      7  O   UNK A   0       6.309  -1.716  23.840  0.00  0.00    -0.347 OA
BRANCH   6   8
ATOM      8  C   UNK A   0       5.430  -3.576  22.422  0.00  0.00    +0.339 C 
ATOM      9  O   UNK A   0       4.542  -3.840  23.220  0.00  0.00    -0.248 OA
BRANCH   8  10
ATOM     10  O   UNK A   0       5.770  -4.301  21.327  0.00  0.00    -0.463 OA
BRANCH  10  11
ATOM     11  C   UNK A   0       5.860  -5.714  21.537  0.00  0.00    +0.229 C 
ATOM     12  C   UNK A   0       7.257  -6.015  22.051  0.00  0.00    +0.048 C 
ENDBRANCH  10  11
ENDBRANCH   8  10
ENDBRANCH   6   8
ENDBRANCH   3   5
BRANCH   1  13
ATOM     13  CA  ILE A   1      10.108  -0.035  23.248  0.00  0.00    +0.185 C 
BRANCH  13  14
ATOM     14  CB  ILE A   1       9.902   1.174  22.296  0.00  0.00    +0.017 C 
ATOM     15  CG2 ILE A   1       8.844   0.924  21.212  0.00  0.00    +0.010 C 
BRANCH  14  16
ATOM     16  CG1 ILE A   1       9.572   2.491  23.050  0.00  0.00    +0.002 C 
ATOM     17  CD1 ILE A   1       8.212   3.107  22.739  0.00  0.00    +0.004 C 
ENDBRANCH  14  16
ENDBRANCH  13  14
BRANCH  13  18
ATOM     18  C   ILE A   1      10.673   0.382  24.630  0.00  0.00    +0.326 C 
ATOM     19  OXT ILE A   1      11.810   0.784  24.827  0.00  0.00    -0.249 OA
BRANCH  18  20
ATOM     20  O   ILE A   1       9.771   0.293  25.641  0.00  0.00    -0.479 OA
ATOM     21  H   ILE A   1      10.104  -0.320  26.323  0.00  0.00    +0.295 HD
ENDBRANCH  18  20
ENDBRANCH  13  18
ENDBRANCH   1  13
TORSDOF 9
ENDMDL
MODEL 7
REMARK VINA RESULT:      -5.1      2.425      6.592
REMARK  Name = 
REMARK  12 active torsions:
REMARK  status: ('A' for Active; 'I' for Inactive)
REMARK    1  A    between atoms: CB_2  and  CG2_3
REMARK    2  A    between atoms: CB_2  and  CG1_4
REMARK    3  A    between atoms: CB_2  and  CA_6
REMARK    4  A    between atoms: CG1_4  and  CD1_5
REMARK    5  A    between atoms: CA_6  and  N_8
REMARK    6  A    between atoms: CA_6  and  C_21
REMARK    7  A    between atoms: C_9  and  C_11
REMARK    8  A    between atoms: C_14  and  C_16
REMARK    9  A    between atoms: C_16  and  O_18
REMARK   10  A    between atoms: O_18  and  C_19
REMARK   11  A    between atoms: C_19  and  C_20
REMARK   12  A    between atoms: C_21  and  O_22
REMARK                            x       y       z     vdW  Elec       q    Type
REMARK                         _______ _______ _______ _____ _____    ______ ____
ROOT
ATOM      1  N   ILE A   1       8.935  -0.524  23.539  0.00  0.00    -0.300 N 
ATOM      2  H   ILE A   1       8.418  -0.552  24.414  0.00  0.00    +0.150 HD
ATOM      3  C   UNK A   0       9.626  -1.650  23.162  0.00  0.00    +0.246 C 
ATOM      4  O   UNK A   0      10.187  -1.787  22.087  0.00  0.00    -0.273 OA
ENDROOT
BRANCH   3   5
ATOM      5  C   UNK A   0       9.707  -2.705  24.184  0.00  0.00    +0.244 C 
ATOM      6  C   UNK A   0       8.489  -3.558  24.405  0.00  0.00    +0.265 C 
ATOM      7  O   UNK A   0       8.887  -2.562  25.360  0.00  0.00    -0.347 OA
BRANCH   6   8
ATOM      8  C   UNK A   0       8.691  -4.976  24.745  0.00  0.00    +0.339 C 
ATOM      9  O   UNK A   0       9.042  -5.813  23.926  0.00  0.00    -0.248 OA
BRANCH   8  10
ATOM     10  O   UNK A   0       8.283  -5.215  26.016  0.00  0.00    -0.463 OA
BRANCH  10  11
ATOM     11  C   UNK A   0       6.876  -5.436  26.172  0.00  0.00    +0.229 C 
ATOM     12  C   UNK A   0       6.569  -5.410  27.659  0.00  0.00    +0.048 C 
ENDBRANCH  10  11
ENDBRANCH   8  10
ENDBRANCH   6   8
ENDBRANCH   3   5
BRANCH   1  13
ATOM     13  CA  ILE A   1       8.757   0.619  22.618  0.00  0.00    +0.185 C 
BRANCH  13  14
ATOM     14  CB  ILE A   1       7.422   1.349  22.925  0.00  0.00    +0.017 C 
ATOM     15  CG2 ILE A   1       7.406   2.042  24.294  0.00  0.00    +0.010 C 
BRANCH  14  16
ATOM     16  CG1 ILE A   1       7.019   2.367  21.824  0.00  0.00    +0.002 C 
ATOM     17  CD1 ILE A   1       7.105   3.837  22.220  0.00  0.00    +0.004 C 
ENDBRANCH  14  16
ENDBRANCH  13  14
BRANCH  13  18
ATOM     18  C   ILE A   1       9.991   1.547  22.757  0.00  0.00    +0.326 C 
ATOM     19  OXT ILE A   1      10.665   1.665  23.769  0.00  0.00    -0.249 OA
BRANCH  18  20
ATOM     20  O   ILE A   1      10.301   2.222  21.620  0.00  0.00    -0.479 OA
ATOM     21  H   ILE A   1       9.491   2.612  21.241  0.00  0.00    +0.295 HD
ENDBRANCH  18  20
ENDBRANCH  13  18
ENDBRANCH   1  13
TORSDOF 9
ENDMDL
MODEL 8
REMARK VINA RESULT:      -5.0      2.546      6.318
REMARK  Name = 
REMARK  12 active torsions:
REMARK  status: ('A' for Active; 'I' for Inactive)
REMARK    1  A    between atoms: CB_2  and  CG2_3
REMARK    2  A    between atoms: CB_2  and  CG1_4
REMARK    3  A    between atoms: CB_2  and  CA_6
REMARK    4  A    between atoms: CG1_4  and  CD1_5
REMARK    5  A    between atoms: CA_6  and  N_8
REMARK    6  A    between atoms: CA_6  and  C_21
REMARK    7  A    between atoms: C_9  and  C_11
REMARK    8  A    between atoms: C_14  and  C_16
REMARK    9  A    between atoms: C_16  and  O_18
REMARK   10  A    between atoms: O_18  and  C_19
REMARK   11  A    between atoms: C_19  and  C_20
REMARK   12  A    between atoms: C_21  and  O_22
REMARK                            x       y       z     vdW  Elec       q    Type
REMARK                         _______ _______ _______ _____ _____    ______ ____
ROOT
ATOM      1  N   ILE A   1       7.835  -1.479  23.580  0.00  0.00    -0.300 N 
ATOM      2  H   ILE A   1       7.572  -1.112  24.491  0.00  0.00    +0.150 HD
ATOM      3  C   UNK A   0       7.506  -2.781  23.291  0.00  0.00    +0.246 C 
ATOM      4  O   UNK A   0       7.659  -3.305  22.199  0.00  0.00    -0.273 OA
ENDROOT
BRANCH   3   5
ATOM      5  C   UNK A   0       6.992  -3.563  24.426  0.00  0.00    +0.244 C 
ATOM      6  C   UNK A   0       7.778  -4.770  24.856  0.00  0.00    +0.265 C 
ATOM      7  O   UNK A   0       6.527  -4.901  24.162  0.00  0.00    -0.347 OA
BRANCH   6   8
ATOM      8  C   UNK A   0       7.820  -5.092  26.292  0.00  0.00    +0.339 C 
ATOM      9  O   UNK A   0       8.702  -4.690  27.038  0.00  0.00    -0.248 OA
BRANCH   8  10
ATOM     10  O   UNK A   0       6.857  -5.997  26.597  0.00  0.00    -0.463 OA
BRANCH  10  11
ATOM     11  C   UNK A   0       5.962  -5.604  27.643  0.00  0.00    +0.229 C 
ATOM     12  C   UNK A   0       5.120  -6.815  28.006  0.00  0.00    +0.048 C 
ENDBRANCH  10  11
ENDBRANCH   8  10
ENDBRANCH   6   8
ENDBRANCH   3   5
BRANCH   1  13
ATOM     13  CA  ILE A   1       8.355  -0.563  22.541  0.00  0.00    +0.185 C 
BRANCH  13  14
ATOM     14  CB  ILE A   1       7.968   0.901  22.879  0.00  0.00    +0.017 C 
ATOM     15  CG2 ILE A   1       8.032   1.844  21.670  0.00  0.00    +0.010 C 
BRANCH  14  16
ATOM     16  CG1 ILE A   1       6.575   1.020  23.556  0.00  0.00    +0.002 C 
ATOM     17  CD1 ILE A   1       5.849   2.344  23.344  0.00  0.00    +0.004 C 
ENDBRANCH  14  16
ENDBRANCH  13  14
BRANCH  13  18
ATOM     18  C   ILE A   1       9.888  -0.769  22.441  0.00  0.00    +0.326 C 
ATOM     19  OXT ILE A   1      10.711  -0.256  23.184  0.00  0.00    -0.249 OA
BRANCH  18  20
ATOM     20  O   ILE A   1      10.264  -1.616  21.449  0.00  0.00    -0.479 OA
ATOM     21  H   ILE A   1      10.293  -1.134  20.601  0.00  0.00    +0.295 HD
ENDBRANCH  18  20
ENDBRANCH  13  18
ENDBRANCH   1  13
TORSDOF 9
ENDMDL
MODEL 9
REMARK VINA RESULT:      -5.0      2.385      6.126
REMARK  Name = 
REMARK  12 active torsions:
REMARK  status: ('A' for Active; 'I' for Inactive)
REMARK    1  A    between atoms: CB_2  and  CG2_3
REMARK    2  A    between atoms: CB_2  and  CG1_4
REMARK    3  A    between atoms: CB_2  and  CA_6
REMARK    4  A    between atoms: CG1_4  and  CD1_5
REMARK    5  A    between atoms: CA_6  and  N_8
REMARK    6  A    between atoms: CA_6  and  C_21
REMARK    7  A    between atoms: C_9  and  C_11
REMARK    8  A    between atoms: C_14  and  C_16
REMARK    9  A    between atoms: C_16  and  O_18
REMARK   10  A    between atoms: O_18  and  C_19
REMARK   11  A    between atoms: C_19  and  C_20
REMARK   12  A    between atoms: C_21  and  O_22
REMARK                            x       y       z     vdW  Elec       q    Type
REMARK                         _______ _______ _______ _____ _____    ______ ____
ROOT
ATOM      1  N   ILE A   1       8.828  -1.472  24.017  0.00  0.00    -0.300 N 
ATOM      2  H   ILE A   1       7.826  -1.398  24.173  0.00  0.00    +0.150 HD
ATOM      3  C   UNK A   0       9.379  -2.729  23.952  0.00  0.00    +0.246 C 
ATOM      4  O   UNK A   0      10.540  -2.959  23.656  0.00  0.00    -0.273 OA
ENDROOT
BRANCH   3   5
ATOM      5  C   UNK A   0       8.475  -3.828  24.328  0.00  0.00    +0.244 C 
ATOM      6  C   UNK A   0       8.765  -4.564  25.606  0.00  0.00    +0.265 C 
ATOM      7  O   UNK A   0       9.010  -5.165  24.325  0.00  0.00    -0.347 OA
BRANCH   6   8
ATOM      8  C   UNK A   0       7.623  -5.046  26.400  0.00  0.00    +0.339 C 
ATOM      9  O   UNK A   0       7.004  -6.064  26.125  0.00  0.00    -0.248 OA
BRANCH   8  10
ATOM     10  O   UNK A   0       7.287  -4.129  27.341  0.00  0.00    -0.463 OA
BRANCH  10  11
ATOM     11  C   UNK A   0       6.008  -3.511  27.159  0.00  0.00    +0.229 C 
ATOM     12  C   UNK A   0       6.250  -2.074  26.728  0.00  0.00    +0.048 C 
ENDBRANCH  10  11
ENDBRANCH   8  10
ENDBRANCH   6   8
ENDBRANCH   3   5
BRANCH   1  13
ATOM     13  CA  ILE A   1       9.607  -0.267  23.659  0.00  0.00    +0.185 C 
BRANCH  13  14
ATOM     14  CB  ILE A   1       8.999   0.406  22.400  0.00  0.00    +0.017 C 
ATOM     15  CG2 ILE A   1       9.279  -0.364  21.101  0.00  0.00    +0.010 C 
BRANCH  14  16
ATOM     16  CG1 ILE A   1       7.474   0.670  22.528  0.00  0.00    +0.002 C 
ATOM     17  CD1 ILE A   1       7.017   2.084  22.186  0.00  0.00    +0.004 C 
ENDBRANCH  14  16
ENDBRANCH  13  14
BRANCH  13  18
ATOM     18  C   ILE A   1       9.628   0.676  24.889  0.00  0.00    +0.326 C 
ATOM     19  OXT ILE A   1       9.594   1.896  24.834  0.00  0.00    -0.249 OA
BRANCH  18  20
ATOM     20  O   ILE A   1       9.658   0.024  26.080  0.00  0.00    -0.479 OA
ATOM     21  H   ILE A   1      10.404   0.354  26.615  0.00  0.00    +0.295 HD
ENDBRANCH  18  20
ENDBRANCH  13  18
ENDBRANCH   1  13
TORSDOF 9
ENDMDL
