MODEL 1
REMARK VINA RESULT:      -5.2      0.000      0.000
REMARK  Name = 
REMARK  1 active torsions:
REMARK  status: ('A' for Active; 'I' for Inactive)
REMARK    1  A    between atoms: N_2  and  C_4
REMARK                            x       y       z     vdW  Elec       q    Type
REMARK                         _______ _______ _______ _____ _____    ______ ____
ROOT
ATOM      1  C   UNL     1       8.996  -3.774  24.389  0.00  0.00    +0.281 A 
ATOM      2  C   UNL     1       7.828  -4.123  23.716  0.00  0.00    +0.063 A 
ATOM      3  C   UNL     1       6.837  -5.186  23.866  0.00  0.00    +0.019 C 
ATOM      4  C   UNL     1       5.880  -5.068  22.934  0.00  0.00    +0.052 C 
ATOM      5  C   UNL     1       6.197  -3.895  22.101  0.00  0.00    +0.187 C 
ATOM      6  O   UNL     1       5.556  -3.483  21.160  0.00  0.00    -0.287 OA
ATOM      7  C   UNL     1       7.433  -3.334  22.635  0.00  0.00    +0.035 A 
ATOM      8  C   UNL     1       8.126  -2.222  22.185  0.00  0.00    +0.013 A 
ATOM      9  C   UNL     1       9.292  -1.877  22.863  0.00  0.00    +0.007 A 
ATOM     10  C   UNL     1       9.728  -2.644  23.956  0.00  0.00    +0.085 A 
ENDROOT
BRANCH   1  12
ATOM     11  O   UNL     1       8.959  -4.341  26.634  0.00  0.00    -0.576 OA
ATOM     12  N   UNL     1       9.499  -4.538  25.536  0.00  0.00    +0.080 N 
ATOM     13  O   UNL     1      10.430  -5.333  25.356  0.00  0.00    +0.041 OA
ENDBRANCH   1  12
TORSDOF 1
ENDMDL
MODEL 2
REMARK VINA RESULT:      -5.1      2.547      5.163
REMARK  Name = 
REMARK  1 active torsions:
REMARK  status: ('A' for Active; 'I' for Inactive)
REMARK    1  A    between atoms: N_2  and  C_4
REMARK                            x       y       z     vdW  Elec       q    Type
REMARK                         _______ _______ _______ _____ _____    ______ ____
ROOT
ATOM      1  C   UNL     1       5.900  -5.444  23.190  0.00  0.00    +0.281 A 
ATOM      2  C   UNL     1       6.811  -5.272  24.228  0.00  0.00    +0.063 A 
ATOM      3  C   UNL     1       8.167  -4.736  24.325  0.00  0.00    +0.019 C 
ATOM      4  C   UNL     1       8.607  -4.802  25.590  0.00  0.00    +0.052 C 
ATOM      5  C   UNL     1       7.541  -5.398  26.413  0.00  0.00    +0.187 C 
ATOM      6  O   UNL     1       7.583  -5.614  27.604  0.00  0.00    -0.287 OA
ATOM      7  C   UNL     1       6.430  -5.676  25.508  0.00  0.00    +0.035 A 
ATOM      8  C   UNL     1       5.202  -6.238  25.817  0.00  0.00    +0.013 A 
ATOM      9  C   UNL     1       4.295  -6.405  24.775  0.00  0.00    +0.007 A 
ATOM     10  C   UNL     1       4.637  -6.013  23.470  0.00  0.00    +0.085 A 
ENDROOT
BRANCH   1  12
ATOM     11  O   UNL     1       6.962  -5.788  21.161  0.00  0.00    -0.576 OA
ATOM     12  N   UNL     1       6.202  -5.054  21.807  0.00  0.00    +0.080 N 
ATOM     13  O   UNL     1       5.689  -4.021  21.358  0.00  0.00    +0.041 OA
ENDBRANCH   1  12
TORSDOF 1
ENDMDL
MODEL 3
REMARK VINA RESULT:      -5.0      2.109      2.912
REMARK  Name = 
REMARK  1 active torsions:
REMARK  status: ('A' for Active; 'I' for Inactive)
REMARK    1  A    between atoms: N_2  and  C_4
REMARK                            x       y       z     vdW  Elec       q    Type
REMARK                         _______ _______ _______ _____ _____    ______ ____
ROOT
ATOM      1  C   UNL     1       7.973  -4.626  24.853  0.00  0.00    +0.281 A 
ATOM      2  C   UNL     1       7.178  -5.026  23.783  0.00  0.00    +0.063 A 
ATOM      3  C   UNL     1       7.427  -5.325  22.375  0.00  0.00    +0.019 C 
ATOM      4  C   UNL     1       6.286  -5.673  21.761  0.00  0.00    +0.052 C 
ATOM      5  C   UNL     1       5.201  -5.622  22.755  0.00  0.00    +0.187 C 
ATOM      6  O   UNL     1       4.031  -5.871  22.561  0.00  0.00    -0.287 OA
ATOM      7  C   UNL     1       5.814  -5.209  24.013  0.00  0.00    +0.035 A 
ATOM      8  C   UNL     1       5.196  -5.021  25.239  0.00  0.00    +0.013 A 
ATOM      9  C   UNL     1       5.998  -4.623  26.305  0.00  0.00    +0.007 A 
ATOM     10  C   UNL     1       7.376  -4.425  26.118  0.00  0.00    +0.085 A 
ENDROOT
BRANCH   1  12
ATOM     11  O   UNL     1      10.174  -5.251  25.213  0.00  0.00    -0.576 OA
ATOM     12  N   UNL     1       9.418  -4.404  24.717  0.00  0.00    +0.080 N 
ATOM     13  O   UNL     1       9.808  -3.392  24.121  0.00  0.00    +0.041 OA
ENDBRANCH   1  12
TORSDOF 1
ENDMDL
MODEL 4
REMARK VINA RESULT:      -5.0      2.103      4.150
REMARK  Name = 
REMARK  1 active torsions:
REMARK  status: ('A' for Active; 'I' for Inactive)
REMARK    1  A    between atoms: N_2  and  C_4
REMARK                            x       y       z     vdW  Elec       q    Type
REMARK                         _______ _______ _______ _____ _____    ______ ____
ROOT
ATOM      1  C   UNL     1       6.959  -4.199  23.180  0.00  0.00    +0.281 A 
ATOM      2  C   UNL     1       6.633  -4.860  24.361  0.00  0.00    +0.063 A 
ATOM      3  C   UNL     1       5.518  -5.699  24.793  0.00  0.00    +0.019 C 
ATOM      4  C   UNL     1       5.694  -6.093  26.063  0.00  0.00    +0.052 C 
ATOM      5  C   UNL     1       6.962  -5.521  26.546  0.00  0.00    +0.187 C 
ATOM      6  O   UNL     1       7.444  -5.662  27.649  0.00  0.00    -0.287 OA
ATOM      7  C   UNL     1       7.516  -4.753  25.436  0.00  0.00    +0.035 A 
ATOM      8  C   UNL     1       8.699  -4.033  25.408  0.00  0.00    +0.013 A 
ATOM      9  C   UNL     1       9.020  -3.376  24.223  0.00  0.00    +0.007 A 
ATOM     10  C   UNL     1       8.159  -3.455  23.115  0.00  0.00    +0.085 A 
ENDROOT
BRANCH   1  12
ATOM     11  O   UNL     1       5.310  -3.306  21.821  0.00  0.00    -0.576 OA
ATOM     12  N   UNL     1       6.099  -4.246  21.991  0.00  0.00    +0.080 N 
ATOM     13  O   UNL     1       6.201  -5.212  21.224  0.00  0.00    +0.041 OA
ENDBRANCH   1  12
TORSDOF 1
ENDMDL
MODEL 5
REMARK VINA RESULT:      -5.0      1.822      2.347
REMARK  Name = 
REMARK  1 active torsions:
REMARK  status: ('A' for Active; 'I' for Inactive)
REMARK    1  A    between atoms: N_2  and  C_4
REMARK                            x       y       z     vdW  Elec       q    Type
REMARK                         _______ _______ _______ _____ _____    ______ ____
ROOT
ATOM      1  C   UNL     1       8.057  -3.651  24.355  0.00  0.00    +0.281 A 
ATOM      2  C   UNL     1       7.238  -4.473  23.586  0.00  0.00    +0.063 A 
ATOM      3  C   UNL     1       7.473  -5.583  22.666  0.00  0.00    +0.019 C 
ATOM      4  C   UNL     1       6.311  -6.039  22.177  0.00  0.00    +0.052 C 
ATOM      5  C   UNL     1       5.224  -5.235  22.761  0.00  0.00    +0.187 C 
ATOM      6  O   UNL     1       4.038  -5.360  22.547  0.00  0.00    -0.287 OA
ATOM      7  C   UNL     1       5.860  -4.262  23.643  0.00  0.00    +0.035 A 
ATOM      8  C   UNL     1       5.249  -3.288  24.416  0.00  0.00    +0.013 A 
ATOM      9  C   UNL     1       6.073  -2.471  25.184  0.00  0.00    +0.007 A 
ATOM     10  C   UNL     1       7.467  -2.647  25.156  0.00  0.00    +0.085 A 
ENDROOT
BRANCH   1  12
ATOM     11  O   UNL     1      10.178  -2.908  23.796  0.00  0.00    -0.576 OA
ATOM     12  N   UNL     1       9.518  -3.788  24.366  0.00  0.00    +0.080 N 
ATOM     13  O   UNL     1      10.017  -4.766  24.938  0.00  0.00    +0.041 OA
ENDBRANCH   1  12
TORSDOF 1
ENDMDL
MODEL 6
REMARK VINA RESULT:      -5.0      2.742      4.189
REMARK  Name = 
REMARK  1 active torsions:
REMARK  status: ('A' for Active; 'I' for Inactive)
REMARK    1  A    between atoms: N_2  and  C_4
REMARK                            x       y       z     vdW  Elec       q    Type
REMARK                         _______ _______ _______ _____ _____    ______ ____
ROOT
ATOM      1  C   UNL     1       8.987  -2.864  24.866  0.00  0.00    +0.281 A 
ATOM      2  C   UNL     1       9.442  -1.842  24.039  0.00  0.00    +0.063 A 
ATOM      3  C   UNL     1       9.962  -1.780  22.675  0.00  0.00    +0.019 C 
ATOM      4  C   UNL     1      10.265  -0.515  22.347  0.00  0.00    +0.052 C 
ATOM      5  C   UNL     1       9.952   0.343  23.502  0.00  0.00    +0.187 C 
ATOM      6  O   UNL     1      10.099   1.544  23.571  0.00  0.00    -0.287 OA
ATOM      7  C   UNL     1       9.436  -0.540  24.543  0.00  0.00    +0.035 A 
ATOM      8  C   UNL     1       9.006  -0.196  25.814  0.00  0.00    +0.013 A 
ATOM      9  C   UNL     1       8.551  -1.224  26.635  0.00  0.00    +0.007 A 
ATOM     10  C   UNL     1       8.540  -2.549  26.169  0.00  0.00    +0.085 A 
ENDROOT
BRANCH   1  12
ATOM     11  O   UNL     1       9.892  -4.995  24.786  0.00  0.00    -0.576 OA
ATOM     12  N   UNL     1       8.953  -4.267  24.434  0.00  0.00    +0.080 N 
ATOM     13  O   UNL     1       7.999  -4.651  23.745  0.00  0.00    +0.041 OA
ENDBRANCH   1  12
TORSDOF 1
ENDMDL
MODEL 7
REMARK VINA RESULT:      -4.9      2.335      3.404
REMARK  Name = 
REMARK  1 active torsions:
REMARK  status: ('A' for Active; 'I' for Inactive)
REMARK    1  A    between atoms: N_2  and  C_4
REMARK                            x       y       z     vdW  Elec       q    Type
REMARK                         _______ _______ _______ _____ _____    ______ ____
ROOT
ATOM      1  C   UNL     1       7.396  -4.481  23.596  0.00  0.00    +0.281 A 
ATOM      2  C   UNL     1       6.504  -5.258  24.330  0.00  0.00    +0.063 A 
ATOM      3  C   UNL     1       6.286  -5.501  25.753  0.00  0.00    +0.019 C 
ATOM      4  C   UNL     1       5.270  -6.357  25.932  0.00  0.00    +0.052 C 
ATOM      5  C   UNL     1       4.751  -6.732  24.605  0.00  0.00    +0.187 C 
ATOM      6  O   UNL     1       3.834  -7.489  24.375  0.00  0.00    -0.287 OA
ATOM      7  C   UNL     1       5.562  -6.012  23.629  0.00  0.00    +0.035 A 
ATOM      8  C   UNL     1       5.454  -6.040  22.247  0.00  0.00    +0.013 A 
ATOM      9  C   UNL     1       6.348  -5.260  21.520  0.00  0.00    +0.007 A 
ATOM     10  C   UNL     1       7.314  -4.485  22.185  0.00  0.00    +0.085 A 
ENDROOT
BRANCH   1  12
ATOM     11  O   UNL     1       8.111  -2.499  24.558  0.00  0.00    -0.576 OA
ATOM     12  N   UNL     1       8.426  -3.653  24.235  0.00  0.00    +0.080 N 
ATOM     13  O   UNL     1       9.548  -4.141  24.419  0.00  0.00    +0.041 OA
ENDBRANCH   1  12
TORSDOF 1
ENDMDL
MODEL 8
REMARK VINA RESULT:      -4.9      2.261      3.981
REMARK  Name = 
REMARK  1 active torsions:
REMARK  status: ('A' for Active; 'I' for Inactive)
REMARK    1  A    between atoms: N_2  and  C_4
REMARK                            x       y       z     vdW  Elec       q    Type
REMARK                         _______ _______ _______ _____ _____    ______ ____
ROOT
ATOM      1  C   UNL     1       6.129  -5.576  25.883  0.00  0.00    +0.281 A 
ATOM      2  C   UNL     1       6.418  -5.298  24.550  0.00  0.00    +0.063 A 
ATOM      3  C   UNL     1       7.423  -4.489  23.865  0.00  0.00    +0.019 C 
ATOM      4  C   UNL     1       7.257  -4.564  22.536  0.00  0.00    +0.052 C 
ATOM      5  C   UNL     1       6.109  -5.447  22.269  0.00  0.00    +0.187 C 
ATOM      6  O   UNL     1       5.666  -5.746  21.182  0.00  0.00    -0.287 OA
ATOM      7  C   UNL     1       5.615  -5.885  23.570  0.00  0.00    +0.035 A 
ATOM      8  C   UNL     1       4.548  -6.728  23.835  0.00  0.00    +0.013 A 
ATOM      9  C   UNL     1       4.266  -7.002  25.170  0.00  0.00    +0.007 A 
ATOM     10  C   UNL     1       5.048  -6.433  26.189  0.00  0.00    +0.085 A 
ENDROOT
BRANCH   1  12
ATOM     11  O   UNL     1       7.659  -5.777  27.611  0.00  0.00    -0.576 OA
ATOM     12  N   UNL     1       6.910  -5.010  26.989  0.00  0.00    +0.080 N 
ATOM     13  O   UNL     1       6.784  -3.806  27.247  0.00  0.00    +0.041 OA
ENDBRANCH   1  12
TORSDOF 1
ENDMDL
MODEL 9
REMARK VINA RESULT:      -4.9      2.395      3.700
REMARK  Name = 
REMARK  1 active torsions:
REMARK  status: ('A' for Active; 'I' for Inactive)
REMARK    1  A    between atoms: N_2  and  C_4
REMARK                            x       y       z     vdW  Elec       q    Type
REMARK                         _______ _______ _______ _____ _____    ______ ____
ROOT
ATOM      1  C   UNL     1       8.048  -3.670  23.670  0.00  0.00    +0.281 A 
ATOM      2  C   UNL     1       7.688  -4.294  24.861  0.00  0.00    +0.063 A 
ATOM      3  C   UNL     1       8.158  -4.217  26.242  0.00  0.00    +0.019 C 
ATOM      4  C   UNL     1       7.453  -5.049  27.023  0.00  0.00    +0.052 C 
ATOM      5  C   UNL     1       6.458  -5.733  26.179  0.00  0.00    +0.187 C 
ATOM      6  O   UNL     1       5.648  -6.557  26.542  0.00  0.00    -0.287 OA
ATOM      7  C   UNL     1       6.647  -5.222  24.826  0.00  0.00    +0.035 A 
ATOM      8  C   UNL     1       5.944  -5.566  23.682  0.00  0.00    +0.013 A 
ATOM      9  C   UNL     1       6.309  -4.937  22.494  0.00  0.00    +0.007 A 
ATOM     10  C   UNL     1       7.352  -3.996  22.484  0.00  0.00    +0.085 A 
ENDROOT
BRANCH   1  12
ATOM     11  O   UNL     1       8.820  -1.516  23.310  0.00  0.00    -0.576 OA
ATOM     12  N   UNL     1       9.130  -2.681  23.598  0.00  0.00    +0.080 N 
ATOM     13  O   UNL     1      10.289  -3.053  23.825  0.00  0.00    +0.041 OA
ENDBRANCH   1  12
TORSDOF 1
ENDMDL
