MODEL 1
REMARK VINA RESULT:      -5.5      0.000      0.000
REMARK  Name = 
REMARK  5 active torsions:
REMARK  status: ('A' for Active; 'I' for Inactive)
REMARK    1  A    between atoms: C_1  and  C_2
REMARK    2  A    between atoms: C_2  and  C_3
REMARK    3  A    between atoms: C_3  and  N_5
REMARK    4  A    between atoms: C_3  and  C_16
REMARK    5  A    between atoms: C_7  and  C_12
REMARK                            x       y       z     vdW  Elec       q    Type
REMARK                         _______ _______ _______ _____ _____    ______ ____
ROOT
ATOM      1  N   UNL     1       9.165   3.921  23.993  0.00  0.00    -0.289 N 
ATOM      2  C   UNL     1       8.676   2.891  24.778  0.00  0.00    +0.217 C 
ATOM      3  O   UNL     1       7.686   2.935  25.494  0.00  0.00    -0.276 OA
ATOM      4  C   UNL     1       9.591   1.700  24.623  0.00  0.00    +0.105 C 
ATOM      5  C   UNL     1      10.411   2.043  23.372  0.00  0.00    +0.043 C 
ATOM      6  C   UNL     1      10.426   3.571  23.381  0.00  0.00    +0.116 C 
ENDROOT
BRANCH   5   7
ATOM      7  C   UNL     1       9.766   1.520  22.107  0.00  0.00    +0.048 C 
ATOM      8  C   UNL     1       9.780   0.239  21.729  0.00  0.00    +0.267 C 
ATOM      9  F   UNL     1       9.201  -0.115  20.564  0.00  0.00    -0.173 F 
ATOM     10  F   UNL     1      10.381  -0.694  22.494  0.00  0.00    -0.173 F 
ENDBRANCH   5   7
BRANCH   1  11
ATOM     11  C   UNL     1       8.440   5.153  23.635  0.00  0.00    +0.161 C 
BRANCH  11  12
ATOM     12  C   UNL     1       7.591   5.010  22.357  0.00  0.00    +0.231 C 
ATOM     13  O   UNL     1       6.890   4.025  22.137  0.00  0.00    -0.274 OA
ATOM     14  N   UNL     1       7.549   6.082  21.520  0.00  0.00    -0.328 N 
ATOM     15  H   UNL     1       6.990   6.021  20.680  0.00  0.00    +0.145 HD
ATOM     16  H   UNL     1       8.176   6.878  21.644  0.00  0.00    +0.145 HD
ENDBRANCH  11  12
BRANCH  11  18
ATOM     17  C   UNL     1       9.793   6.888  24.947  0.00  0.00    +0.006 C 
ATOM     18  C   UNL     1       9.412   6.343  23.581  0.00  0.00    +0.028 C 
ENDBRANCH  11  18
ENDBRANCH   1  11
TORSDOF 4
ENDMDL
MODEL 2
REMARK VINA RESULT:      -5.4      4.853      6.918
REMARK  Name = 
REMARK  5 active torsions:
REMARK  status: ('A' for Active; 'I' for Inactive)
REMARK    1  A    between atoms: C_1  and  C_2
REMARK    2  A    between atoms: C_2  and  C_3
REMARK    3  A    between atoms: C_3  and  N_5
REMARK    4  A    between atoms: C_3  and  C_16
REMARK    5  A    between atoms: C_7  and  C_12
REMARK                            x       y       z     vdW  Elec       q    Type
REMARK                         _______ _______ _______ _____ _____    ______ ____
ROOT
ATOM      1  N   UNL     1       9.207  -2.532  23.510  0.00  0.00    -0.289 N 
ATOM      2  C   UNL     1       8.260  -2.077  22.609  0.00  0.00    +0.217 C 
ATOM      3  O   UNL     1       7.093  -2.435  22.544  0.00  0.00    -0.276 OA
ATOM      4  C   UNL     1       8.920  -1.075  21.691  0.00  0.00    +0.105 C 
ATOM      5  C   UNL     1      10.222  -0.727  22.424  0.00  0.00    +0.043 C 
ATOM      6  C   UNL     1      10.518  -1.999  23.219  0.00  0.00    +0.116 C 
ENDROOT
BRANCH   5   7
ATOM      7  C   UNL     1      10.056   0.457  23.351  0.00  0.00    +0.048 C 
ATOM      8  C   UNL     1      10.171   1.733  22.969  0.00  0.00    +0.267 C 
ATOM      9  F   UNL     1      10.035   2.713  23.885  0.00  0.00    -0.173 F 
ATOM     10  F   UNL     1      10.436   2.042  21.684  0.00  0.00    -0.173 F 
ENDBRANCH   5   7
BRANCH   1  11
ATOM     11  C   UNL     1       8.933  -3.297  24.738  0.00  0.00    +0.161 C 
BRANCH  11  12
ATOM     12  C   UNL     1       8.482  -4.745  24.465  0.00  0.00    +0.231 C 
ATOM     13  O   UNL     1       9.277  -5.677  24.365  0.00  0.00    -0.274 OA
ATOM     14  N   UNL     1       7.142  -4.984  24.454  0.00  0.00    -0.328 N 
ATOM     15  H   UNL     1       6.817  -5.927  24.289  0.00  0.00    +0.145 HD
ATOM     16  H   UNL     1       6.466  -4.218  24.461  0.00  0.00    +0.145 HD
ENDBRANCH  11  12
BRANCH  11  18
ATOM     17  C   UNL     1       8.587  -1.344  26.359  0.00  0.00    +0.006 C 
ATOM     18  C   UNL     1       7.955  -2.524  25.638  0.00  0.00    +0.028 C 
ENDBRANCH  11  18
ENDBRANCH   1  11
TORSDOF 4
ENDMDL
MODEL 3
REMARK VINA RESULT:      -5.2      6.233      8.059
REMARK  Name = 
REMARK  5 active torsions:
REMARK  status: ('A' for Active; 'I' for Inactive)
REMARK    1  A    between atoms: C_1  and  C_2
REMARK    2  A    between atoms: C_2  and  C_3
REMARK    3  A    between atoms: C_3  and  N_5
REMARK    4  A    between atoms: C_3  and  C_16
REMARK    5  A    between atoms: C_7  and  C_12
REMARK                            x       y       z     vdW  Elec       q    Type
REMARK                         _______ _______ _______ _____ _____    ______ ____
ROOT
ATOM      1  N   UNL     1       6.983  -3.889  23.969  0.00  0.00    -0.289 N 
ATOM      2  C   UNL     1       8.294  -4.335  23.999  0.00  0.00    +0.217 C 
ATOM      3  O   UNL     1       8.667  -5.493  23.879  0.00  0.00    -0.276 OA
ATOM      4  C   UNL     1       9.195  -3.146  24.233  0.00  0.00    +0.105 C 
ATOM      5  C   UNL     1       8.284  -1.947  23.936  0.00  0.00    +0.043 C 
ATOM      6  C   UNL     1       6.893  -2.481  24.277  0.00  0.00    +0.116 C 
ENDROOT
BRANCH   5   7
ATOM      7  C   UNL     1       8.355  -1.523  22.485  0.00  0.00    +0.048 C 
ATOM      8  C   UNL     1       9.351  -0.806  21.959  0.00  0.00    +0.267 C 
ATOM      9  F   UNL     1       9.300  -0.454  20.658  0.00  0.00    -0.173 F 
ATOM     10  F   UNL     1      10.395  -0.421  22.720  0.00  0.00    -0.173 F 
ENDBRANCH   5   7
BRANCH   1  11
ATOM     11  C   UNL     1       5.820  -4.659  23.497  0.00  0.00    +0.161 C 
BRANCH  11  12
ATOM     12  C   UNL     1       5.848  -4.936  21.981  0.00  0.00    +0.231 C 
ATOM     13  O   UNL     1       5.846  -4.035  21.145  0.00  0.00    -0.274 OA
ATOM     14  N   UNL     1       5.998  -6.231  21.592  0.00  0.00    -0.328 N 
ATOM     15  H   UNL     1       6.031  -6.441  20.603  0.00  0.00    +0.145 HD
ATOM     16  H   UNL     1       5.928  -6.999  22.261  0.00  0.00    +0.145 HD
ENDBRANCH  11  12
BRANCH  11  18
ATOM     17  C   UNL     1       3.272  -4.825  23.708  0.00  0.00    +0.006 C 
ATOM     18  C   UNL     1       4.516  -3.990  23.962  0.00  0.00    +0.028 C 
ENDBRANCH  11  18
ENDBRANCH   1  11
TORSDOF 4
ENDMDL
MODEL 4
REMARK VINA RESULT:      -5.2      4.758      6.038
REMARK  Name = 
REMARK  5 active torsions:
REMARK  status: ('A' for Active; 'I' for Inactive)
REMARK    1  A    between atoms: C_1  and  C_2
REMARK    2  A    between atoms: C_2  and  C_3
REMARK    3  A    between atoms: C_3  and  N_5
REMARK    4  A    between atoms: C_3  and  C_16
REMARK    5  A    between atoms: C_7  and  C_12
REMARK                            x       y       z     vdW  Elec       q    Type
REMARK                         _______ _______ _______ _____ _____    ______ ____
ROOT
ATOM      1  N   UNL     1       8.447  -0.909  24.379  0.00  0.00    -0.289 N 
ATOM      2  C   UNL     1       7.212  -1.444  24.054  0.00  0.00    +0.217 C 
ATOM      3  O   UNL     1       6.548  -1.179  23.062  0.00  0.00    -0.276 OA
ATOM      4  C   UNL     1       6.803  -2.397  25.152  0.00  0.00    +0.105 C 
ATOM      5  C   UNL     1       8.110  -2.635  25.919  0.00  0.00    +0.043 C 
ATOM      6  C   UNL     1       8.885  -1.339  25.687  0.00  0.00    +0.116 C 
ENDROOT
BRANCH   5   7
ATOM      7  C   UNL     1       8.878  -3.823  25.382  0.00  0.00    +0.048 C 
ATOM      8  C   UNL     1       8.772  -5.066  25.859  0.00  0.00    +0.267 C 
ATOM      9  F   UNL     1       9.528  -6.048  25.326  0.00  0.00    -0.173 F 
ATOM     10  F   UNL     1       7.930  -5.341  26.875  0.00  0.00    -0.173 F 
ENDBRANCH   5   7
BRANCH   1  11
ATOM     11  C   UNL     1       9.330  -0.159  23.470  0.00  0.00    +0.161 C 
BRANCH  11  12
ATOM     12  C   UNL     1       9.941  -1.033  22.357  0.00  0.00    +0.231 C 
ATOM     13  O   UNL     1      10.666  -1.996  22.596  0.00  0.00    -0.274 OA
ATOM     14  N   UNL     1       9.549  -0.771  21.080  0.00  0.00    -0.328 N 
ATOM     15  H   UNL     1       9.924  -1.336  20.330  0.00  0.00    +0.145 HD
ATOM     16  H   UNL     1       9.009   0.065  20.851  0.00  0.00    +0.145 HD
ENDBRANCH  11  12
BRANCH  11  18
ATOM     17  C   UNL     1      10.562   2.058  23.831  0.00  0.00    +0.006 C 
ATOM     18  C   UNL     1      10.387   0.615  24.274  0.00  0.00    +0.028 C 
ENDBRANCH  11  18
ENDBRANCH   1  11
TORSDOF 4
ENDMDL
MODEL 5
REMARK VINA RESULT:      -5.2      5.718      8.178
REMARK  Name = 
REMARK  5 active torsions:
REMARK  status: ('A' for Active; 'I' for Inactive)
REMARK    1  A    between atoms: C_1  and  C_2
REMARK    2  A    between atoms: C_2  and  C_3
REMARK    3  A    between atoms: C_3  and  N_5
REMARK    4  A    between atoms: C_3  and  C_16
REMARK    5  A    between atoms: C_7  and  C_12
REMARK                            x       y       z     vdW  Elec       q    Type
REMARK                         _______ _______ _______ _____ _____    ______ ____
ROOT
ATOM      1  N   UNL     1       7.289  -3.500  23.847  0.00  0.00    -0.289 N 
ATOM      2  C   UNL     1       6.563  -2.671  24.686  0.00  0.00    +0.217 C 
ATOM      3  O   UNL     1       5.846  -3.026  25.610  0.00  0.00    -0.276 OA
ATOM      4  C   UNL     1       6.783  -1.243  24.249  0.00  0.00    +0.105 C 
ATOM      5  C   UNL     1       8.013  -1.337  23.335  0.00  0.00    +0.043 C 
ATOM      6  C   UNL     1       7.918  -2.758  22.780  0.00  0.00    +0.116 C 
ENDROOT
BRANCH   5   7
ATOM      7  C   UNL     1       9.306  -1.144  24.097  0.00  0.00    +0.048 C 
ATOM      8  C   UNL     1       9.797   0.045  24.456  0.00  0.00    +0.267 C 
ATOM      9  F   UNL     1      10.977   0.107  25.106  0.00  0.00    -0.173 F 
ATOM     10  F   UNL     1       9.132   1.179  24.158  0.00  0.00    -0.173 F 
ENDBRANCH   5   7
BRANCH   1  11
ATOM     11  C   UNL     1       7.578  -4.926  24.081  0.00  0.00    +0.161 C 
BRANCH  11  12
ATOM     12  C   UNL     1       8.779  -5.157  25.019  0.00  0.00    +0.231 C 
ATOM     13  O   UNL     1       9.915  -4.779  24.743  0.00  0.00    -0.274 OA
ATOM     14  N   UNL     1       8.515  -5.699  26.239  0.00  0.00    -0.328 N 
ATOM     15  H   UNL     1       9.282  -5.851  26.880  0.00  0.00    +0.145 HD
ATOM     16  H   UNL     1       7.596  -6.086  26.461  0.00  0.00    +0.145 HD
ENDBRANCH  11  12
BRANCH  11  18
ATOM     17  C   UNL     1       6.382  -6.113  22.152  0.00  0.00    +0.006 C 
ATOM     18  C   UNL     1       7.710  -5.667  22.741  0.00  0.00    +0.028 C 
ENDBRANCH  11  18
ENDBRANCH   1  11
TORSDOF 4
ENDMDL
MODEL 6
REMARK VINA RESULT:      -5.2      4.115      5.509
REMARK  Name = 
REMARK  5 active torsions:
REMARK  status: ('A' for Active; 'I' for Inactive)
REMARK    1  A    between atoms: C_1  and  C_2
REMARK    2  A    between atoms: C_2  and  C_3
REMARK    3  A    between atoms: C_3  and  N_5
REMARK    4  A    between atoms: C_3  and  C_16
REMARK    5  A    between atoms: C_7  and  C_12
REMARK                            x       y       z     vdW  Elec       q    Type
REMARK                         _______ _______ _______ _____ _____    ______ ____
ROOT
ATOM      1  N   UNL     1       8.202  -0.660  23.065  0.00  0.00    -0.289 N 
ATOM      2  C   UNL     1       8.778  -1.707  22.367  0.00  0.00    +0.217 C 
ATOM      3  O   UNL     1       9.712  -1.626  21.582  0.00  0.00    -0.276 OA
ATOM      4  C   UNL     1       8.037  -2.976  22.715  0.00  0.00    +0.105 C 
ATOM      5  C   UNL     1       7.249  -2.591  23.975  0.00  0.00    +0.043 C 
ATOM      6  C   UNL     1       7.034  -1.088  23.798  0.00  0.00    +0.116 C 
ENDROOT
BRANCH   5   7
ATOM      7  C   UNL     1       8.026  -2.876  25.242  0.00  0.00    +0.048 C 
ATOM      8  C   UNL     1       8.187  -4.093  25.768  0.00  0.00    +0.267 C 
ATOM      9  F   UNL     1       8.873  -4.232  26.921  0.00  0.00    -0.173 F 
ATOM     10  F   UNL     1       7.658  -5.176  25.164  0.00  0.00    -0.173 F 
ENDBRANCH   5   7
BRANCH   1  11
ATOM     11  C   UNL     1       8.777   0.686  23.233  0.00  0.00    +0.161 C 
BRANCH  11  12
ATOM     12  C   UNL     1       8.693   1.547  21.958  0.00  0.00    +0.231 C 
ATOM     13  O   UNL     1       7.622   1.864  21.444  0.00  0.00    -0.274 OA
ATOM     14  N   UNL     1       9.860   2.055  21.476  0.00  0.00    -0.328 N 
ATOM     15  H   UNL     1       9.834   2.634  20.647  0.00  0.00    +0.145 HD
ATOM     16  H   UNL     1      10.763   1.748  21.840  0.00  0.00    +0.145 HD
ENDBRANCH  11  12
BRANCH  11  18
ATOM     17  C   UNL     1      10.261   0.133  25.246  0.00  0.00    +0.006 C 
ATOM     18  C   UNL     1      10.204   0.586  23.797  0.00  0.00    +0.028 C 
ENDBRANCH  11  18
ENDBRANCH   1  11
TORSDOF 4
ENDMDL
MODEL 7
REMARK VINA RESULT:      -5.1      3.936      5.713
REMARK  Name = 
REMARK  5 active torsions:
REMARK  status: ('A' for Active; 'I' for Inactive)
REMARK    1  A    between atoms: C_1  and  C_2
REMARK    2  A    between atoms: C_2  and  C_3
REMARK    3  A    between atoms: C_3  and  N_5
REMARK    4  A    between atoms: C_3  and  C_16
REMARK    5  A    between atoms: C_7  and  C_12
REMARK                            x       y       z     vdW  Elec       q    Type
REMARK                         _______ _______ _______ _____ _____    ______ ____
ROOT
ATOM      1  N   UNL     1       9.780   0.182  23.555  0.00  0.00    -0.289 N 
ATOM      2  C   UNL     1       9.667   0.645  22.255  0.00  0.00    +0.217 C 
ATOM      3  O   UNL     1       9.117   0.069  21.327  0.00  0.00    -0.276 OA
ATOM      4  C   UNL     1      10.367   1.980  22.163  0.00  0.00    +0.105 C 
ATOM      5  C   UNL     1      10.536   2.393  23.631  0.00  0.00    +0.043 C 
ATOM      6  C   UNL     1      10.608   1.051  24.358  0.00  0.00    +0.116 C 
ENDROOT
BRANCH   5   7
ATOM      7  C   UNL     1       9.365   3.212  24.131  0.00  0.00    +0.048 C 
ATOM      8  C   UNL     1       9.319   4.547  24.114  0.00  0.00    +0.267 C 
ATOM      9  F   UNL     1       8.238   5.179  24.615  0.00  0.00    -0.173 F 
ATOM     10  F   UNL     1      10.348   5.262  23.616  0.00  0.00    -0.173 F 
ENDBRANCH   5   7
BRANCH   1  11
ATOM     11  C   UNL     1       9.017  -0.931  24.144  0.00  0.00    +0.161 C 
BRANCH  11  12
ATOM     12  C   UNL     1       9.306  -2.289  23.474  0.00  0.00    +0.231 C 
ATOM     13  O   UNL     1      10.241  -3.009  23.816  0.00  0.00    -0.274 OA
ATOM     14  N   UNL     1       8.405  -2.727  22.553  0.00  0.00    -0.328 N 
ATOM     15  H   UNL     1       8.562  -3.621  22.105  0.00  0.00    +0.145 HD
ATOM     16  H   UNL     1       7.665  -2.118  22.201  0.00  0.00    +0.145 HD
ENDBRANCH  11  12
BRANCH  11  18
ATOM     17  C   UNL     1       7.136   0.369  25.299  0.00  0.00    +0.006 C 
ATOM     18  C   UNL     1       7.519  -0.587  24.181  0.00  0.00    +0.028 C 
ENDBRANCH  11  18
ENDBRANCH   1  11
TORSDOF 4
ENDMDL
MODEL 8
REMARK VINA RESULT:      -5.1      3.408      4.450
REMARK  Name = 
REMARK  5 active torsions:
REMARK  status: ('A' for Active; 'I' for Inactive)
REMARK    1  A    between atoms: C_1  and  C_2
REMARK    2  A    between atoms: C_2  and  C_3
REMARK    3  A    between atoms: C_3  and  N_5
REMARK    4  A    between atoms: C_3  and  C_16
REMARK    5  A    between atoms: C_7  and  C_12
REMARK                            x       y       z     vdW  Elec       q    Type
REMARK                         _______ _______ _______ _____ _____    ______ ____
ROOT
ATOM      1  N   UNL     1       9.247  -0.177  23.119  0.00  0.00    -0.289 N 
ATOM      2  C   UNL     1       9.422  -0.971  24.241  0.00  0.00    +0.217 C 
ATOM      3  O   UNL     1       9.569  -0.578  25.389  0.00  0.00    -0.276 OA
ATOM      4  C   UNL     1       9.430  -2.416  23.803  0.00  0.00    +0.105 C 
ATOM      5  C   UNL     1       8.847  -2.360  22.385  0.00  0.00    +0.043 C 
ATOM      6  C   UNL     1       9.241  -0.963  21.908  0.00  0.00    +0.116 C 
ENDROOT
BRANCH   5   7
ATOM      7  C   UNL     1       7.342  -2.523  22.380  0.00  0.00    +0.048 C 
ATOM      8  C   UNL     1       6.711  -3.673  22.126  0.00  0.00    +0.267 C 
ATOM      9  F   UNL     1       5.363  -3.701  22.116  0.00  0.00    -0.173 F 
ATOM     10  F   UNL     1       7.411  -4.796  21.865  0.00  0.00    -0.173 F 
ENDBRANCH   5   7
BRANCH   1  11
ATOM     11  C   UNL     1       8.908   1.256  23.121  0.00  0.00    +0.161 C 
BRANCH  11  12
ATOM     12  C   UNL     1       7.513   1.552  22.537  0.00  0.00    +0.231 C 
ATOM     13  O   UNL     1       7.349   2.242  21.533  0.00  0.00    -0.274 OA
ATOM     14  N   UNL     1       6.456   0.915  23.111  0.00  0.00    -0.328 N 
ATOM     15  H   UNL     1       5.529   1.080  22.741  0.00  0.00    +0.145 HD
ATOM     16  H   UNL     1       6.557   0.398  23.985  0.00  0.00    +0.145 HD
ENDBRANCH  11  12
BRANCH  11  18
ATOM     17  C   UNL     1      10.709   3.061  23.369  0.00  0.00    +0.006 C 
ATOM     18  C   UNL     1      10.026   2.066  22.445  0.00  0.00    +0.028 C 
ENDBRANCH  11  18
ENDBRANCH   1  11
TORSDOF 4
ENDMDL
MODEL 9
REMARK VINA RESULT:      -5.1      5.145      6.538
REMARK  Name = 
REMARK  5 active torsions:
REMARK  status: ('A' for Active; 'I' for Inactive)
REMARK    1  A    between atoms: C_1  and  C_2
REMARK    2  A    between atoms: C_2  and  C_3
REMARK    3  A    between atoms: C_3  and  N_5
REMARK    4  A    between atoms: C_3  and  C_16
REMARK    5  A    between atoms: C_7  and  C_12
REMARK                            x       y       z     vdW  Elec       q    Type
REMARK                         _______ _______ _______ _____ _____    ______ ____
ROOT
ATOM      1  N   UNL     1       8.010  -2.135  23.913  0.00  0.00    -0.289 N 
ATOM      2  C   UNL     1       6.651  -2.137  24.177  0.00  0.00    +0.217 C 
ATOM      3  O   UNL     1       5.940  -1.152  24.317  0.00  0.00    -0.276 OA
ATOM      4  C   UNL     1       6.192  -3.571  24.293  0.00  0.00    +0.105 C 
ATOM      5  C   UNL     1       7.351  -4.365  23.676  0.00  0.00    +0.043 C 
ATOM      6  C   UNL     1       8.560  -3.471  23.944  0.00  0.00    +0.116 C 
ENDROOT
BRANCH   5   7
ATOM      7  C   UNL     1       7.164  -4.584  22.191  0.00  0.00    +0.048 C 
ATOM      8  C   UNL     1       6.521  -5.628  21.659  0.00  0.00    +0.267 C 
ATOM      9  F   UNL     1       6.440  -5.743  20.317  0.00  0.00    -0.173 F 
ATOM     10  F   UNL     1       5.970  -6.569  22.451  0.00  0.00    -0.173 F 
ENDBRANCH   5   7
BRANCH   1  11
ATOM     11  C   UNL     1       8.799  -0.978  23.457  0.00  0.00    +0.161 C 
BRANCH  11  12
ATOM     12  C   UNL     1       9.792  -1.323  22.330  0.00  0.00    +0.231 C 
ATOM     13  O   UNL     1      10.838  -1.934  22.535  0.00  0.00    -0.274 OA
ATOM     14  N   UNL     1       9.408  -1.030  21.058  0.00  0.00    -0.328 N 
ATOM     15  H   UNL     1      10.034  -1.257  20.296  0.00  0.00    +0.145 HD
ATOM     16  H   UNL     1       8.582  -0.461  20.870  0.00  0.00    +0.145 HD
ENDBRANCH  11  12
BRANCH  11  18
ATOM     17  C   UNL     1       8.776   0.991  25.096  0.00  0.00    +0.006 C 
ATOM     18  C   UNL     1       9.469  -0.288  24.657  0.00  0.00    +0.028 C 
ENDBRANCH  11  18
ENDBRANCH   1  11
TORSDOF 4
ENDMDL
