MODEL 1
REMARK VINA RESULT:      -5.3      0.000      0.000
REMARK  Name = 
REMARK  6 active torsions:
REMARK  status: ('A' for Active; 'I' for Inactive)
REMARK    1  A    between atoms: N_1  and  CA_2
REMARK    2  A    between atoms: CA_2  and  CB_4
REMARK    3  A    between atoms: CA_2  and  C_12
REMARK    4  A    between atoms: CB_4  and  CG_5
REMARK    5  A    between atoms: CZ_8  and  OH_9
REMARK    6  A    between atoms: C_12  and  O_13
REMARK                            x       y       z     vdW  Elec       q    Type
REMARK                         _______ _______ _______ _____ _____    ______ ____
ROOT
ATOM      1  CB  TYR A   1       9.926  -2.831  24.086  0.00  0.00    +0.065 C 
ENDROOT
BRANCH   1   2
ATOM      2  CG  TYR A   1       9.865  -1.471  23.422  0.00  0.00    -0.045 A 
ATOM      3  CD2 TYR A   1      10.261  -0.316  24.111  0.00  0.00    +0.007 A 
ATOM      4  CE2 TYR A   1      10.303   0.915  23.457  0.00  0.00    +0.045 A 
ATOM      5  CZ  TYR A   1       9.932   1.000  22.120  0.00  0.00    +0.117 A 
ATOM      6  CE1 TYR A   1       9.499  -0.126  21.429  0.00  0.00    +0.045 A 
ATOM      7  CD1 TYR A   1       9.465  -1.359  22.082  0.00  0.00    +0.007 A 
BRANCH   5   8
ATOM      8  OH  TYR A   1      10.015   2.217  21.512  0.00  0.00    -0.507 OA
ATOM      9  HH  TYR A   1      10.740   2.716  21.924  0.00  0.00    +0.292 HD
ENDBRANCH   5   8
ENDBRANCH   1   2
BRANCH   1  10
ATOM     10  CA  TYR A   1       8.574  -3.569  24.140  0.00  0.00    +0.165 C 
BRANCH  10  11
ATOM     11  N   TYR A   1       7.457  -2.756  24.723  0.00  0.00    -0.318 NA
ATOM     12  H1  TYR A   1       7.763  -1.777  24.763  0.00  0.00    +0.119 HD
ATOM     13  H2  TYR A   1       6.695  -2.747  24.039  0.00  0.00    +0.119 HD
ENDBRANCH  10  11
BRANCH  10  14
ATOM     14  C   TYR A   1       8.684  -4.893  24.916  0.00  0.00    +0.322 C 
ATOM     15  OXT TYR A   1       7.796  -5.388  25.593  0.00  0.00    -0.249 OA
BRANCH  14  16
ATOM     16  O   TYR A   1       9.916  -5.449  24.781  0.00  0.00    -0.480 OA
ATOM     17  H   TYR A   1      10.299  -5.049  23.960  0.00  0.00    +0.295 HD
ENDBRANCH  14  16
ENDBRANCH  10  14
ENDBRANCH   1  10
TORSDOF 6
ENDMDL
MODEL 2
REMARK VINA RESULT:      -5.3      0.236      1.361
REMARK  Name = 
REMARK  6 active torsions:
REMARK  status: ('A' for Active; 'I' for Inactive)
REMARK    1  A    between atoms: N_1  and  CA_2
REMARK    2  A    between atoms: CA_2  and  CB_4
REMARK    3  A    between atoms: CA_2  and  C_12
REMARK    4  A    between atoms: CB_4  and  CG_5
REMARK    5  A    between atoms: CZ_8  and  OH_9
REMARK    6  A    between atoms: C_12  and  O_13
REMARK                            x       y       z     vdW  Elec       q    Type
REMARK                         _______ _______ _______ _____ _____    ______ ____
ROOT
ATOM      1  CB  TYR A   1       9.821  -2.874  24.161  0.00  0.00    +0.065 C 
ENDROOT
BRANCH   1   2
ATOM      2  CG  TYR A   1       9.913  -1.555  23.420  0.00  0.00    -0.045 A 
ATOM      3  CD2 TYR A   1       9.563  -1.465  22.065  0.00  0.00    +0.007 A 
ATOM      4  CE2 TYR A   1       9.549  -0.228  21.422  0.00  0.00    +0.045 A 
ATOM      5  CZ  TYR A   1       9.903   0.919  22.123  0.00  0.00    +0.117 A 
ATOM      6  CE1 TYR A   1      10.292   0.847  23.455  0.00  0.00    +0.045 A 
ATOM      7  CD1 TYR A   1      10.298  -0.391  24.102  0.00  0.00    +0.007 A 
BRANCH   5   8
ATOM      8  OH  TYR A   1       9.849   2.110  21.463  0.00  0.00    -0.507 OA
ATOM      9  HH  TYR A   1      10.758   2.422  21.319  0.00  0.00    +0.292 HD
ENDBRANCH   5   8
ENDBRANCH   1   2
BRANCH   1  10
ATOM     10  CA  TYR A   1       8.493  -3.627  23.948  0.00  0.00    +0.165 C 
BRANCH  10  11
ATOM     11  N   TYR A   1       7.275  -2.834  24.318  0.00  0.00    -0.318 NA
ATOM     12  H1  TYR A   1       7.006  -2.266  23.506  0.00  0.00    +0.119 HD
ATOM     13  H2  TYR A   1       6.500  -3.495  24.422  0.00  0.00    +0.119 HD
ENDBRANCH  10  11
BRANCH  10  14
ATOM     14  C   TYR A   1       8.471  -4.960  24.716  0.00  0.00    +0.322 C 
ATOM     15  OXT TYR A   1       7.542  -5.364  25.398  0.00  0.00    -0.249 OA
BRANCH  14  16
ATOM     16  O   TYR A   1       9.637  -5.640  24.566  0.00  0.00    -0.480 OA
ATOM     17  H   TYR A   1       9.953  -5.830  25.485  0.00  0.00    +0.295 HD
ENDBRANCH  14  16
ENDBRANCH  10  14
ENDBRANCH   1  10
TORSDOF 6
ENDMDL
MODEL 3
REMARK VINA RESULT:      -5.2      1.946      2.286
REMARK  Name = 
REMARK  6 active torsions:
REMARK  status: ('A' for Active; 'I' for Inactive)
REMARK    1  A    between atoms: N_1  and  CA_2
REMARK    2  A    between atoms: CA_2  and  CB_4
REMARK    3  A    between atoms: CA_2  and  C_12
REMARK    4  A    between atoms: CB_4  and  CG_5
REMARK    5  A    between atoms: CZ_8  and  OH_9
REMARK    6  A    between atoms: C_12  and  O_13
REMARK                            x       y       z     vdW  Elec       q    Type
REMARK                         _______ _______ _______ _____ _____    ______ ____
ROOT
ATOM      1  CB  TYR A   1       8.723  -3.830  24.249  0.00  0.00    +0.065 C 
ENDROOT
BRANCH   1   2
ATOM      2  CG  TYR A   1       9.186  -2.388  24.238  0.00  0.00    -0.045 A 
ATOM      3  CD2 TYR A   1       8.949  -1.548  25.336  0.00  0.00    +0.007 A 
ATOM      4  CE2 TYR A   1       9.473  -0.256  25.360  0.00  0.00    +0.045 A 
ATOM      5  CZ  TYR A   1      10.217   0.208  24.282  0.00  0.00    +0.117 A 
ATOM      6  CE1 TYR A   1      10.429  -0.593  23.166  0.00  0.00    +0.045 A 
ATOM      7  CD1 TYR A   1       9.912  -1.890  23.146  0.00  0.00    +0.007 A 
BRANCH   5   8
ATOM      8  OH  TYR A   1      10.732   1.467  24.359  0.00  0.00    -0.507 OA
ATOM      9  HH  TYR A   1      11.605   1.416  24.785  0.00  0.00    +0.292 HD
ENDBRANCH   5   8
ENDBRANCH   1   2
BRANCH   1  10
ATOM     10  CA  TYR A   1       9.074  -4.598  25.538  0.00  0.00    +0.165 C 
BRANCH  10  11
ATOM     11  N   TYR A   1      10.188  -5.589  25.375  0.00  0.00    -0.318 NA
ATOM     12  H1  TYR A   1      10.488  -5.572  24.393  0.00  0.00    +0.119 HD
ATOM     13  H2  TYR A   1      10.998  -5.226  25.885  0.00  0.00    +0.119 HD
ENDBRANCH  10  11
BRANCH  10  14
ATOM     14  C   TYR A   1       7.846  -5.320  26.118  0.00  0.00    +0.322 C 
ATOM     15  OXT TYR A   1       6.782  -5.477  25.538  0.00  0.00    -0.249 OA
BRANCH  14  16
ATOM     16  O   TYR A   1       8.074  -5.752  27.386  0.00  0.00    -0.480 OA
ATOM     17  H   TYR A   1       7.306  -6.336  27.609  0.00  0.00    +0.295 HD
ENDBRANCH  14  16
ENDBRANCH  10  14
ENDBRANCH   1  10
TORSDOF 6
ENDMDL
MODEL 4
REMARK VINA RESULT:      -5.1      1.932      2.225
REMARK  Name = 
REMARK  6 active torsions:
REMARK  status: ('A' for Active; 'I' for Inactive)
REMARK    1  A    between atoms: N_1  and  CA_2
REMARK    2  A    between atoms: CA_2  and  CB_4
REMARK    3  A    between atoms: CA_2  and  C_12
REMARK    4  A    between atoms: CB_4  and  CG_5
REMARK    5  A    between atoms: CZ_8  and  OH_9
REMARK    6  A    between atoms: C_12  and  O_13
REMARK                            x       y       z     vdW  Elec       q    Type
REMARK                         _______ _______ _______ _____ _____    ______ ____
ROOT
ATOM      1  CB  TYR A   1      10.312  -1.933  22.898  0.00  0.00    +0.065 C 
ENDROOT
BRANCH   1   2
ATOM      2  CG  TYR A   1      10.219  -0.423  22.977  0.00  0.00    -0.045 A 
ATOM      3  CD2 TYR A   1      10.610   0.262  24.136  0.00  0.00    +0.007 A 
ATOM      4  CE2 TYR A   1      10.622   1.657  24.160  0.00  0.00    +0.045 A 
ATOM      5  CZ  TYR A   1      10.225   2.370  23.035  0.00  0.00    +0.117 A 
ATOM      6  CE1 TYR A   1       9.795   1.711  21.889  0.00  0.00    +0.045 A 
ATOM      7  CD1 TYR A   1       9.791   0.315  21.862  0.00  0.00    +0.007 A 
BRANCH   5   8
ATOM      8  OH  TYR A   1      10.277   3.731  23.093  0.00  0.00    -0.507 OA
ATOM      9  HH  TYR A   1       9.467   4.051  23.524  0.00  0.00    +0.292 HD
ENDBRANCH   5   8
ENDBRANCH   1   2
BRANCH   1  10
ATOM     10  CA  TYR A   1       9.287  -2.677  23.776  0.00  0.00    +0.165 C 
BRANCH  10  11
ATOM     11  N   TYR A   1       9.845  -3.874  24.485  0.00  0.00    -0.318 NA
ATOM     12  H1  TYR A   1      10.377  -3.544  25.298  0.00  0.00    +0.119 HD
ATOM     13  H2  TYR A   1       9.056  -4.380  24.898  0.00  0.00    +0.119 HD
ENDBRANCH  10  11
BRANCH  10  14
ATOM     14  C   TYR A   1       8.055  -3.110  22.961  0.00  0.00    +0.322 C 
ATOM     15  OXT TYR A   1       7.399  -2.379  22.235  0.00  0.00    -0.249 OA
BRANCH  14  16
ATOM     16  O   TYR A   1       7.758  -4.419  23.166  0.00  0.00    -0.480 OA
ATOM     17  H   TYR A   1       8.518  -4.927  22.786  0.00  0.00    +0.295 HD
ENDBRANCH  14  16
ENDBRANCH  10  14
ENDBRANCH   1  10
TORSDOF 6
ENDMDL
MODEL 5
REMARK VINA RESULT:      -4.8      2.166      5.573
REMARK  Name = 
REMARK  6 active torsions:
REMARK  status: ('A' for Active; 'I' for Inactive)
REMARK    1  A    between atoms: N_1  and  CA_2
REMARK    2  A    between atoms: CA_2  and  CB_4
REMARK    3  A    between atoms: CA_2  and  C_12
REMARK    4  A    between atoms: CB_4  and  CG_5
REMARK    5  A    between atoms: CZ_8  and  OH_9
REMARK    6  A    between atoms: C_12  and  O_13
REMARK                            x       y       z     vdW  Elec       q    Type
REMARK                         _______ _______ _______ _____ _____    ______ ____
ROOT
ATOM      1  CB  TYR A   1       8.774  -0.938  24.278  0.00  0.00    +0.065 C 
ENDROOT
BRANCH   1   2
ATOM      2  CG  TYR A   1       8.717  -2.268  25.001  0.00  0.00    -0.045 A 
ATOM      3  CD2 TYR A   1       7.888  -2.445  26.118  0.00  0.00    +0.007 A 
ATOM      4  CE2 TYR A   1       7.762  -3.702  26.710  0.00  0.00    +0.045 A 
ATOM      5  CZ  TYR A   1       8.478  -4.779  26.203  0.00  0.00    +0.117 A 
ATOM      6  CE1 TYR A   1       9.336  -4.617  25.121  0.00  0.00    +0.045 A 
ATOM      7  CD1 TYR A   1       9.456  -3.361  24.523  0.00  0.00    +0.007 A 
BRANCH   5   8
ATOM      8  OH  TYR A   1       8.305  -5.994  26.794  0.00  0.00    -0.507 OA
ATOM      9  HH  TYR A   1       7.367  -6.240  26.721  0.00  0.00    +0.292 HD
ENDBRANCH   5   8
ENDBRANCH   1   2
BRANCH   1  10
ATOM     10  CA  TYR A   1      10.138  -0.628  23.631  0.00  0.00    +0.165 C 
BRANCH  10  11
ATOM     11  N   TYR A   1      10.856   0.534  24.250  0.00  0.00    -0.318 NA
ATOM     12  H1  TYR A   1      11.311   0.206  25.110  0.00  0.00    +0.119 HD
ATOM     13  H2  TYR A   1      11.640   0.772  23.635  0.00  0.00    +0.119 HD
ENDBRANCH  10  11
BRANCH  10  14
ATOM     14  C   TYR A   1      10.003  -0.381  22.119  0.00  0.00    +0.322 C 
ATOM     15  OXT TYR A   1       9.779   0.702  21.599  0.00  0.00    -0.249 OA
BRANCH  14  16
ATOM     16  O   TYR A   1      10.138  -1.533  21.412  0.00  0.00    -0.480 OA
ATOM     17  H   TYR A   1      10.337  -2.234  22.082  0.00  0.00    +0.295 HD
ENDBRANCH  14  16
ENDBRANCH  10  14
ENDBRANCH   1  10
TORSDOF 6
ENDMDL
MODEL 6
REMARK VINA RESULT:      -4.8      4.745      7.416
REMARK  Name = 
REMARK  6 active torsions:
REMARK  status: ('A' for Active; 'I' for Inactive)
REMARK    1  A    between atoms: N_1  and  CA_2
REMARK    2  A    between atoms: CA_2  and  CB_4
REMARK    3  A    between atoms: CA_2  and  C_12
REMARK    4  A    between atoms: CB_4  and  CG_5
REMARK    5  A    between atoms: CZ_8  and  OH_9
REMARK    6  A    between atoms: C_12  and  O_13
REMARK                            x       y       z     vdW  Elec       q    Type
REMARK                         _______ _______ _______ _____ _____    ______ ____
ROOT
ATOM      1  CB  TYR A   1      11.469   3.746  23.271  0.00  0.00    +0.065 C 
ENDROOT
BRANCH   1   2
ATOM      2  CG  TYR A   1      10.339   2.738  23.207  0.00  0.00    -0.045 A 
ATOM      3  CD2 TYR A   1       9.412   2.629  24.253  0.00  0.00    +0.007 A 
ATOM      4  CE2 TYR A   1       8.316   1.775  24.136  0.00  0.00    +0.045 A 
ATOM      5  CZ  TYR A   1       8.152   1.015  22.985  0.00  0.00    +0.117 A 
ATOM      6  CE1 TYR A   1       9.081   1.078  21.952  0.00  0.00    +0.045 A 
ATOM      7  CD1 TYR A   1      10.174   1.939  22.066  0.00  0.00    +0.007 A 
BRANCH   5   8
ATOM      8  OH  TYR A   1       7.052   0.215  22.901  0.00  0.00    -0.507 OA
ATOM      9  HH  TYR A   1       6.553   0.293  23.732  0.00  0.00    +0.292 HD
ENDBRANCH   5   8
ENDBRANCH   1   2
BRANCH   1  10
ATOM     10  CA  TYR A   1      11.067   5.110  23.865  0.00  0.00    +0.165 C 
BRANCH  10  11
ATOM     11  N   TYR A   1      10.181   5.927  22.971  0.00  0.00    -0.318 NA
ATOM     12  H1  TYR A   1       9.251   5.494  22.962  0.00  0.00    +0.119 HD
ATOM     13  H2  TYR A   1      10.027   6.828  23.434  0.00  0.00    +0.119 HD
ENDBRANCH  10  11
BRANCH  10  14
ATOM     14  C   TYR A   1      12.301   5.948  24.243  0.00  0.00    +0.322 C 
ATOM     15  OXT TYR A   1      12.303   6.884  25.027  0.00  0.00    -0.249 OA
BRANCH  14  16
ATOM     16  O   TYR A   1      13.408   5.535  23.572  0.00  0.00    -0.480 OA
ATOM     17  H   TYR A   1      13.889   6.362  23.320  0.00  0.00    +0.295 HD
ENDBRANCH  14  16
ENDBRANCH  10  14
ENDBRANCH   1  10
TORSDOF 6
ENDMDL
MODEL 7
REMARK VINA RESULT:      -4.8      2.090      2.336
REMARK  Name = 
REMARK  6 active torsions:
REMARK  status: ('A' for Active; 'I' for Inactive)
REMARK    1  A    between atoms: N_1  and  CA_2
REMARK    2  A    between atoms: CA_2  and  CB_4
REMARK    3  A    between atoms: CA_2  and  C_12
REMARK    4  A    between atoms: CB_4  and  CG_5
REMARK    5  A    between atoms: CZ_8  and  OH_9
REMARK    6  A    between atoms: C_12  and  O_13
REMARK                            x       y       z     vdW  Elec       q    Type
REMARK                         _______ _______ _______ _____ _____    ______ ____
ROOT
ATOM      1  CB  TYR A   1       6.836  -2.216  23.167  0.00  0.00    +0.065 C 
ENDROOT
BRANCH   1   2
ATOM      2  CG  TYR A   1       7.667  -1.059  22.649  0.00  0.00    -0.045 A 
ATOM      3  CD2 TYR A   1       7.257   0.267  22.847  0.00  0.00    +0.007 A 
ATOM      4  CE2 TYR A   1       8.082   1.324  22.463  0.00  0.00    +0.045 A 
ATOM      5  CZ  TYR A   1       9.307   1.061  21.863  0.00  0.00    +0.117 A 
ATOM      6  CE1 TYR A   1       9.715  -0.246  21.621  0.00  0.00    +0.045 A 
ATOM      7  CD1 TYR A   1       8.894  -1.304  22.013  0.00  0.00    +0.007 A 
BRANCH   5   8
ATOM      8  OH  TYR A   1      10.093   2.123  21.528  0.00  0.00    -0.507 OA
ATOM      9  HH  TYR A   1      10.467   2.496  22.343  0.00  0.00    +0.292 HD
ENDBRANCH   5   8
ENDBRANCH   1   2
BRANCH   1  10
ATOM     10  CA  TYR A   1       6.936  -3.497  22.315  0.00  0.00    +0.165 C 
BRANCH  10  11
ATOM     11  N   TYR A   1       5.748  -3.737  21.431  0.00  0.00    -0.318 NA
ATOM     12  H1  TYR A   1       5.248  -2.847  21.322  0.00  0.00    +0.119 HD
ATOM     13  H2  TYR A   1       6.102  -3.936  20.491  0.00  0.00    +0.119 HD
ENDBRANCH  10  11
BRANCH  10  14
ATOM     14  C   TYR A   1       7.163  -4.741  23.192  0.00  0.00    +0.322 C 
ATOM     15  OXT TYR A   1       6.308  -5.562  23.484  0.00  0.00    -0.249 OA
BRANCH  14  16
ATOM     16  O   TYR A   1       8.446  -4.810  23.636  0.00  0.00    -0.480 OA
ATOM     17  H   TYR A   1       8.916  -4.053  23.205  0.00  0.00    +0.295 HD
ENDBRANCH  14  16
ENDBRANCH  10  14
ENDBRANCH   1  10
TORSDOF 6
ENDMDL
MODEL 8
REMARK VINA RESULT:      -4.7      1.766      2.337
REMARK  Name = 
REMARK  6 active torsions:
REMARK  status: ('A' for Active; 'I' for Inactive)
REMARK    1  A    between atoms: N_1  and  CA_2
REMARK    2  A    between atoms: CA_2  and  CB_4
REMARK    3  A    between atoms: CA_2  and  C_12
REMARK    4  A    between atoms: CB_4  and  CG_5
REMARK    5  A    between atoms: CZ_8  and  OH_9
REMARK    6  A    between atoms: C_12  and  O_13
REMARK                            x       y       z     vdW  Elec       q    Type
REMARK                         _______ _______ _______ _____ _____    ______ ____
ROOT
ATOM      1  CB  TYR A   1       6.949  -2.563  22.964  0.00  0.00    +0.065 C 
ENDROOT
BRANCH   1   2
ATOM      2  CG  TYR A   1       7.758  -1.325  22.633  0.00  0.00    -0.045 A 
ATOM      3  CD2 TYR A   1       8.994  -1.427  21.981  0.00  0.00    +0.007 A 
ATOM      4  CE2 TYR A   1       9.679  -0.278  21.586  0.00  0.00    +0.045 A 
ATOM      5  CZ  TYR A   1       9.142   0.975  21.859  0.00  0.00    +0.117 A 
ATOM      6  CE1 TYR A   1       7.937   1.099  22.541  0.00  0.00    +0.045 A 
ATOM      7  CD1 TYR A   1       7.247  -0.052  22.928  0.00  0.00    +0.007 A 
BRANCH   5   8
ATOM      8  OH  TYR A   1       9.831   2.070  21.431  0.00  0.00    -0.507 OA
ATOM      9  HH  TYR A   1       9.280   2.545  20.786  0.00  0.00    +0.292 HD
ENDBRANCH   5   8
ENDBRANCH   1   2
BRANCH   1  10
ATOM     10  CA  TYR A   1       7.689  -3.890  22.703  0.00  0.00    +0.165 C 
BRANCH  10  11
ATOM     11  N   TYR A   1       6.920  -4.863  21.861  0.00  0.00    -0.318 NA
ATOM     12  H1  TYR A   1       7.535  -5.187  21.105  0.00  0.00    +0.119 HD
ATOM     13  H2  TYR A   1       6.765  -5.702  22.427  0.00  0.00    +0.119 HD
ENDBRANCH  10  11
BRANCH  10  14
ATOM     14  C   TYR A   1       8.091  -4.580  24.019  0.00  0.00    +0.322 C 
ATOM     15  OXT TYR A   1       9.238  -4.805  24.374  0.00  0.00    -0.249 OA
BRANCH  14  16
ATOM     16  O   TYR A   1       7.001  -4.941  24.745  0.00  0.00    -0.480 OA
ATOM     17  H   TYR A   1       6.317  -4.250  24.559  0.00  0.00    +0.295 HD
ENDBRANCH  14  16
ENDBRANCH  10  14
ENDBRANCH   1  10
TORSDOF 6
ENDMDL
MODEL 9
REMARK VINA RESULT:      -4.7      3.332      6.700
REMARK  Name = 
REMARK  6 active torsions:
REMARK  status: ('A' for Active; 'I' for Inactive)
REMARK    1  A    between atoms: N_1  and  CA_2
REMARK    2  A    between atoms: CA_2  and  CB_4
REMARK    3  A    between atoms: CA_2  and  C_12
REMARK    4  A    between atoms: CB_4  and  CG_5
REMARK    5  A    between atoms: CZ_8  and  OH_9
REMARK    6  A    between atoms: C_12  and  O_13
REMARK                            x       y       z     vdW  Elec       q    Type
REMARK                         _______ _______ _______ _____ _____    ______ ____
ROOT
ATOM      1  CB  TYR A   1      10.435   3.119  23.220  0.00  0.00    +0.065 C 
ENDROOT
BRANCH   1   2
ATOM      2  CG  TYR A   1      10.251   1.616  23.175  0.00  0.00    -0.045 A 
ATOM      3  CD2 TYR A   1       9.989   0.959  21.964  0.00  0.00    +0.007 A 
ATOM      4  CE2 TYR A   1       9.929  -0.434  21.917  0.00  0.00    +0.045 A 
ATOM      5  CZ  TYR A   1      10.108  -1.173  23.081  0.00  0.00    +0.117 A 
ATOM      6  CE1 TYR A   1      10.328  -0.540  24.299  0.00  0.00    +0.045 A 
ATOM      7  CD1 TYR A   1      10.398   0.854  24.344  0.00  0.00    +0.007 A 
BRANCH   5   8
ATOM      8  OH  TYR A   1      10.067  -2.531  22.985  0.00  0.00    -0.507 OA
ATOM      9  HH  TYR A   1      10.156  -2.775  22.048  0.00  0.00    +0.292 HD
ENDBRANCH   5   8
ENDBRANCH   1   2
BRANCH   1  10
ATOM     10  CA  TYR A   1       9.164   3.901  23.604  0.00  0.00    +0.165 C 
BRANCH  10  11
ATOM     11  N   TYR A   1       8.137   3.972  22.513  0.00  0.00    -0.318 NA
ATOM     12  H1  TYR A   1       7.527   4.775  22.702  0.00  0.00    +0.119 HD
ATOM     13  H2  TYR A   1       8.625   4.232  21.651  0.00  0.00    +0.119 HD
ENDBRANCH  10  11
BRANCH  10  14
ATOM     14  C   TYR A   1       9.498   5.330  24.067  0.00  0.00    +0.322 C 
ATOM     15  OXT TYR A   1       9.430   5.731  25.218  0.00  0.00    -0.249 OA
BRANCH  14  16
ATOM     16  O   TYR A   1       9.861   6.119  23.022  0.00  0.00    -0.480 OA
ATOM     17  H   TYR A   1      10.156   5.498  22.310  0.00  0.00    +0.295 HD
ENDBRANCH  14  16
ENDBRANCH  10  14
ENDBRANCH   1  10
TORSDOF 6
ENDMDL
