MODEL 1
REMARK VINA RESULT:      -6.6      0.000      0.000
REMARK  Name = 
REMARK  7 active torsions:
REMARK  status: ('A' for Active; 'I' for Inactive)
REMARK    1  A    between atoms: O_1  and  N_2
REMARK    2  A    between atoms: N_2  and  C_3
REMARK    3  A    between atoms: C_3  and  C_4
REMARK    4  A    between atoms: C_4  and  O_5
REMARK    5  A    between atoms: O_5  and  C_6
REMARK    6  A    between atoms: C_10  and  C_12
REMARK    7  A    between atoms: C_12  and  C_14
REMARK                            x       y       z     vdW  Elec       q    Type
REMARK                         _______ _______ _______ _____ _____    ______ ____
ROOT
ATOM      1  C   UNL     1       9.833  -1.078  23.985  0.00  0.00    +0.121 A 
ATOM      2  C   UNL     1       9.611  -2.438  23.758  0.00  0.00    +0.057 A 
ATOM      3  C   UNL     1       8.922  -3.211  24.700  0.00  0.00    +0.026 A 
ATOM      4  C   UNL     1       8.517  -2.636  25.908  0.00  0.00    +0.012 A 
ATOM      5  C   UNL     1       8.757  -1.284  26.150  0.00  0.00    +0.004 A 
ATOM      6  C   UNL     1       9.402  -0.507  25.185  0.00  0.00    +0.046 A 
ENDROOT
BRANCH   3   7
ATOM      7  C   UNL     1       8.647  -4.649  24.458  0.00  0.00    +0.193 C 
ATOM      8  O   UNL     1       9.478  -5.481  24.815  0.00  0.00    -0.287 OA
BRANCH   7   9
ATOM      9  C   UNL     1       7.392  -5.113  23.797  0.00  0.00    +0.022 A 
ATOM     10  C   UNL     1       6.224  -5.192  24.566  0.00  0.00    +0.012 A 
ATOM     11  C   UNL     1       5.022  -5.595  23.980  0.00  0.00    +0.001 A 
ATOM     12  C   UNL     1       4.980  -5.919  22.625  0.00  0.00    +0.000 A 
ATOM     13  C   UNL     1       6.137  -5.837  21.851  0.00  0.00    +0.001 A 
ATOM     14  C   UNL     1       7.339  -5.424  22.431  0.00  0.00    +0.012 A 
ENDBRANCH   7   9
ENDBRANCH   3   7
BRANCH   1  15
ATOM     15  O   UNL     1      10.454  -0.220  23.112  0.00  0.00    -0.490 OA
BRANCH  15  16
ATOM     16  C   UNL     1       9.998  -0.289  21.759  0.00  0.00    +0.250 C 
BRANCH  16  17
ATOM     17  C   UNL     1       8.799   0.633  21.556  0.00  0.00    +0.180 C 
BRANCH  17  18
ATOM     18  N   UNL     1       9.041   1.966  22.100  0.00  0.00    -0.183 N 
ATOM     19  C   UNL     1       8.040   2.910  22.143  0.00  0.00    +0.353 C 
ATOM     20  O   UNL     1       6.837   2.681  22.102  0.00  0.00    -0.277 OA
BRANCH  18  21
ATOM     21  O   UNL     1      10.300   2.485  21.714  0.00  0.00    -0.293 OA
ATOM     22  H   UNL     1      10.041   3.165  21.063  0.00  0.00    +0.242 HD
ENDBRANCH  18  21
ENDBRANCH  17  18
ENDBRANCH  16  17
ENDBRANCH  15  16
ENDBRANCH   1  15
TORSDOF 7
ENDMDL
MODEL 2
REMARK VINA RESULT:      -6.5      3.158      8.281
REMARK  Name = 
REMARK  7 active torsions:
REMARK  status: ('A' for Active; 'I' for Inactive)
REMARK    1  A    between atoms: O_1  and  N_2
REMARK    2  A    between atoms: N_2  and  C_3
REMARK    3  A    between atoms: C_3  and  C_4
REMARK    4  A    between atoms: C_4  and  O_5
REMARK    5  A    between atoms: O_5  and  C_6
REMARK    6  A    between atoms: C_10  and  C_12
REMARK    7  A    between atoms: C_12  and  C_14
REMARK                            x       y       z     vdW  Elec       q    Type
REMARK                         _______ _______ _______ _____ _____    ______ ____
ROOT
ATOM      1  C   UNL     1       9.500  -0.537  23.740  0.00  0.00    +0.121 A 
ATOM      2  C   UNL     1       9.315   0.793  24.126  0.00  0.00    +0.057 A 
ATOM      3  C   UNL     1       9.182   1.799  23.161  0.00  0.00    +0.026 A 
ATOM      4  C   UNL     1       9.307   1.482  21.805  0.00  0.00    +0.012 A 
ATOM      5  C   UNL     1       9.515   0.160  21.416  0.00  0.00    +0.004 A 
ATOM      6  C   UNL     1       9.599  -0.847  22.382  0.00  0.00    +0.046 A 
ENDROOT
BRANCH   3   7
ATOM      7  C   UNL     1       8.950   3.211  23.554  0.00  0.00    +0.193 C 
ATOM      8  O   UNL     1       7.797   3.593  23.744  0.00  0.00    -0.287 OA
BRANCH   7   9
ATOM      9  C   UNL     1      10.073   4.178  23.724  0.00  0.00    +0.022 A 
ATOM     10  C   UNL     1      11.348   3.803  23.280  0.00  0.00    +0.012 A 
ATOM     11  C   UNL     1      12.422   4.688  23.397  0.00  0.00    +0.001 A 
ATOM     12  C   UNL     1      12.229   5.951  23.955  0.00  0.00    +0.000 A 
ATOM     13  C   UNL     1      10.962   6.334  24.394  0.00  0.00    +0.001 A 
ATOM     14  C   UNL     1       9.883   5.455  24.269  0.00  0.00    +0.012 A 
ENDBRANCH   7   9
ENDBRANCH   3   7
BRANCH   1  15
ATOM     15  O   UNL     1       9.596  -1.604  24.598  0.00  0.00    -0.490 OA
BRANCH  15  16
ATOM     16  C   UNL     1       9.842  -2.868  23.977  0.00  0.00    +0.250 C 
BRANCH  16  17
ATOM     17  C   UNL     1       8.713  -3.844  24.295  0.00  0.00    +0.180 C 
BRANCH  17  18
ATOM     18  N   UNL     1       9.115  -4.829  25.295  0.00  0.00    -0.183 N 
ATOM     19  C   UNL     1       8.761  -4.685  26.617  0.00  0.00    +0.353 C 
ATOM     20  O   UNL     1       7.836  -4.003  27.042  0.00  0.00    -0.277 OA
BRANCH  18  21
ATOM     21  O   UNL     1      10.442  -5.282  25.104  0.00  0.00    -0.293 OA
ATOM     22  H   UNL     1      10.692  -5.545  26.010  0.00  0.00    +0.242 HD
ENDBRANCH  18  21
ENDBRANCH  17  18
ENDBRANCH  16  17
ENDBRANCH  15  16
ENDBRANCH   1  15
TORSDOF 7
ENDMDL
MODEL 3
REMARK VINA RESULT:      -6.1      3.016      8.106
REMARK  Name = 
REMARK  7 active torsions:
REMARK  status: ('A' for Active; 'I' for Inactive)
REMARK    1  A    between atoms: O_1  and  N_2
REMARK    2  A    between atoms: N_2  and  C_3
REMARK    3  A    between atoms: C_3  and  C_4
REMARK    4  A    between atoms: C_4  and  O_5
REMARK    5  A    between atoms: O_5  and  C_6
REMARK    6  A    between atoms: C_10  and  C_12
REMARK    7  A    between atoms: C_12  and  C_14
REMARK                            x       y       z     vdW  Elec       q    Type
REMARK                         _______ _______ _______ _____ _____    ______ ____
ROOT
ATOM      1  C   UNL     1       9.883  -0.281  23.730  0.00  0.00    +0.121 A 
ATOM      2  C   UNL     1      10.328   1.000  24.069  0.00  0.00    +0.057 A 
ATOM      3  C   UNL     1      10.249   2.045  23.140  0.00  0.00    +0.026 A 
ATOM      4  C   UNL     1       9.792   1.790  21.844  0.00  0.00    +0.012 A 
ATOM      5  C   UNL     1       9.370   0.508  21.495  0.00  0.00    +0.004 A 
ATOM      6  C   UNL     1       9.405  -0.519  22.440  0.00  0.00    +0.046 A 
ENDROOT
BRANCH   3   7
ATOM      7  C   UNL     1      10.684   3.419  23.495  0.00  0.00    +0.193 C 
ATOM      8  O   UNL     1      11.874   3.710  23.396  0.00  0.00    -0.287 OA
BRANCH   7   9
ATOM      9  C   UNL     1       9.719   4.455  23.966  0.00  0.00    +0.022 A 
ATOM     10  C   UNL     1       9.958   5.792  23.624  0.00  0.00    +0.012 A 
ATOM     11  C   UNL     1       9.066   6.791  24.021  0.00  0.00    +0.001 A 
ATOM     12  C   UNL     1       7.931   6.460  24.759  0.00  0.00    +0.000 A 
ATOM     13  C   UNL     1       7.683   5.130  25.098  0.00  0.00    +0.001 A 
ATOM     14  C   UNL     1       8.567   4.127  24.693  0.00  0.00    +0.012 A 
ENDBRANCH   7   9
ENDBRANCH   3   7
BRANCH   1  15
ATOM     15  O   UNL     1       9.871  -1.363  24.574  0.00  0.00    -0.490 OA
BRANCH  15  16
ATOM     16  C   UNL     1       9.793  -2.638  23.932  0.00  0.00    +0.250 C 
BRANCH  16  17
ATOM     17  C   UNL     1       8.631  -3.447  24.501  0.00  0.00    +0.180 C 
BRANCH  17  18
ATOM     18  N   UNL     1       8.677  -3.510  25.959  0.00  0.00    -0.183 N 
ATOM     19  C   UNL     1       8.282  -4.643  26.635  0.00  0.00    +0.353 C 
ATOM     20  O   UNL     1       8.215  -5.772  26.164  0.00  0.00    -0.277 OA
BRANCH  18  21
ATOM     21  O   UNL     1       8.248  -2.305  26.565  0.00  0.00    -0.293 OA
ATOM     22  H   UNL     1       7.288  -2.328  26.389  0.00  0.00    +0.242 HD
ENDBRANCH  18  21
ENDBRANCH  17  18
ENDBRANCH  16  17
ENDBRANCH  15  16
ENDBRANCH   1  15
TORSDOF 7
ENDMDL
MODEL 4
REMARK VINA RESULT:      -6.1      1.694      2.653
REMARK  Name = 
REMARK  7 active torsions:
REMARK  status: ('A' for Active; 'I' for Inactive)
REMARK    1  A    between atoms: O_1  and  N_2
REMARK    2  A    between atoms: N_2  and  C_3
REMARK    3  A    between atoms: C_3  and  C_4
REMARK    4  A    between atoms: C_4  and  O_5
REMARK    5  A    between atoms: O_5  and  C_6
REMARK    6  A    between atoms: C_10  and  C_12
REMARK    7  A    between atoms: C_12  and  C_14
REMARK                            x       y       z     vdW  Elec       q    Type
REMARK                         _______ _______ _______ _____ _____    ______ ____
ROOT
ATOM      1  C   UNL     1      10.113   0.410  23.494  0.00  0.00    +0.121 A 
ATOM      2  C   UNL     1       9.722  -0.826  24.012  0.00  0.00    +0.057 A 
ATOM      3  C   UNL     1       9.246  -1.833  23.163  0.00  0.00    +0.026 A 
ATOM      4  C   UNL     1       9.092  -1.574  21.797  0.00  0.00    +0.012 A 
ATOM      5  C   UNL     1       9.460  -0.333  21.279  0.00  0.00    +0.004 A 
ATOM      6  C   UNL     1       9.979   0.650  22.124  0.00  0.00    +0.046 A 
ENDROOT
BRANCH   3   7
ATOM      7  C   UNL     1       8.860  -3.164  23.693  0.00  0.00    +0.193 C 
ATOM      8  O   UNL     1       9.666  -3.787  24.379  0.00  0.00    -0.287 OA
BRANCH   7   9
ATOM      9  C   UNL     1       7.522  -3.765  23.419  0.00  0.00    +0.022 A 
ATOM     10  C   UNL     1       7.470  -5.037  22.836  0.00  0.00    +0.012 A 
ATOM     11  C   UNL     1       6.239  -5.647  22.587  0.00  0.00    +0.001 A 
ATOM     12  C   UNL     1       5.055  -4.992  22.920  0.00  0.00    +0.000 A 
ATOM     13  C   UNL     1       5.098  -3.728  23.506  0.00  0.00    +0.001 A 
ATOM     14  C   UNL     1       6.328  -3.119  23.767  0.00  0.00    +0.012 A 
ENDBRANCH   7   9
ENDBRANCH   3   7
BRANCH   1  15
ATOM     15  O   UNL     1      10.635   1.447  24.226  0.00  0.00    -0.490 OA
BRANCH  15  16
ATOM     16  C   UNL     1      10.346   2.755  23.727  0.00  0.00    +0.250 C 
BRANCH  16  17
ATOM     17  C   UNL     1       9.042   3.275  24.325  0.00  0.00    +0.180 C 
BRANCH  17  18
ATOM     18  N   UNL     1       8.321   4.134  23.391  0.00  0.00    -0.183 N 
ATOM     19  C   UNL     1       7.512   3.599  22.413  0.00  0.00    +0.353 C 
ATOM     20  O   UNL     1       7.020   2.477  22.423  0.00  0.00    -0.277 OA
BRANCH  18  21
ATOM     21  O   UNL     1       9.102   5.229  22.951  0.00  0.00    -0.293 OA
ATOM     22  H   UNL     1       8.770   5.354  22.041  0.00  0.00    +0.242 HD
ENDBRANCH  18  21
ENDBRANCH  17  18
ENDBRANCH  16  17
ENDBRANCH  15  16
ENDBRANCH   1  15
TORSDOF 7
ENDMDL
MODEL 5
REMARK VINA RESULT:      -6.0      3.087      6.701
REMARK  Name = 
REMARK  7 active torsions:
REMARK  status: ('A' for Active; 'I' for Inactive)
REMARK    1  A    between atoms: O_1  and  N_2
REMARK    2  A    between atoms: N_2  and  C_3
REMARK    3  A    between atoms: C_3  and  C_4
REMARK    4  A    between atoms: C_4  and  O_5
REMARK    5  A    between atoms: O_5  and  C_6
REMARK    6  A    between atoms: C_10  and  C_12
REMARK    7  A    between atoms: C_12  and  C_14
REMARK                            x       y       z     vdW  Elec       q    Type
REMARK                         _______ _______ _______ _____ _____    ______ ____
ROOT
ATOM      1  C   UNL     1       6.119  -2.895  24.647  0.00  0.00    +0.121 A 
ATOM      2  C   UNL     1       7.218  -2.416  23.932  0.00  0.00    +0.057 A 
ATOM      3  C   UNL     1       8.500  -2.449  24.495  0.00  0.00    +0.026 A 
ATOM      4  C   UNL     1       8.670  -2.897  25.809  0.00  0.00    +0.012 A 
ATOM      5  C   UNL     1       7.571  -3.354  26.535  0.00  0.00    +0.004 A 
ATOM      6  C   UNL     1       6.303  -3.363  25.950  0.00  0.00    +0.046 A 
ENDROOT
BRANCH   3   7
ATOM      7  C   UNL     1       9.684  -1.977  23.736  0.00  0.00    +0.193 C 
ATOM      8  O   UNL     1      10.500  -2.803  23.333  0.00  0.00    -0.287 OA
BRANCH   7   9
ATOM      9  C   UNL     1       9.911  -0.531  23.446  0.00  0.00    +0.022 A 
ATOM     10  C   UNL     1       9.698  -0.072  22.140  0.00  0.00    +0.012 A 
ATOM     11  C   UNL     1       9.873   1.279  21.832  0.00  0.00    +0.001 A 
ATOM     12  C   UNL     1      10.259   2.177  22.825  0.00  0.00    +0.000 A 
ATOM     13  C   UNL     1      10.468   1.729  24.129  0.00  0.00    +0.001 A 
ATOM     14  C   UNL     1      10.283   0.381  24.443  0.00  0.00    +0.012 A 
ENDBRANCH   7   9
ENDBRANCH   3   7
BRANCH   1  15
ATOM     15  O   UNL     1       4.831  -2.951  24.176  0.00  0.00    -0.490 OA
BRANCH  15  16
ATOM     16  C   UNL     1       4.254  -4.259  24.130  0.00  0.00    +0.250 C 
BRANCH  16  17
ATOM     17  C   UNL     1       4.621  -4.955  22.822  0.00  0.00    +0.180 C 
BRANCH  17  18
ATOM     18  N   UNL     1       5.522  -6.082  23.042  0.00  0.00    -0.183 N 
ATOM     19  C   UNL     1       6.540  -6.362  22.158  0.00  0.00    +0.353 C 
ATOM     20  O   UNL     1       7.034  -5.574  21.360  0.00  0.00    -0.277 OA
BRANCH  18  21
ATOM     21  O   UNL     1       4.843  -7.230  23.516  0.00  0.00    -0.293 OA
ATOM     22  H   UNL     1       5.541  -7.668  24.041  0.00  0.00    +0.242 HD
ENDBRANCH  18  21
ENDBRANCH  17  18
ENDBRANCH  16  17
ENDBRANCH  15  16
ENDBRANCH   1  15
TORSDOF 7
ENDMDL
MODEL 6
REMARK VINA RESULT:      -5.9      2.312      3.328
REMARK  Name = 
REMARK  7 active torsions:
REMARK  status: ('A' for Active; 'I' for Inactive)
REMARK    1  A    between atoms: O_1  and  N_2
REMARK    2  A    between atoms: N_2  and  C_3
REMARK    3  A    between atoms: C_3  and  C_4
REMARK    4  A    between atoms: C_4  and  O_5
REMARK    5  A    between atoms: O_5  and  C_6
REMARK    6  A    between atoms: C_10  and  C_12
REMARK    7  A    between atoms: C_12  and  C_14
REMARK                            x       y       z     vdW  Elec       q    Type
REMARK                         _______ _______ _______ _____ _____    ______ ____
ROOT
ATOM      1  C   UNL     1       9.632   1.000  23.568  0.00  0.00    +0.121 A 
ATOM      2  C   UNL     1       9.461  -0.284  24.091  0.00  0.00    +0.057 A 
ATOM      3  C   UNL     1       9.331  -1.386  23.236  0.00  0.00    +0.026 A 
ATOM      4  C   UNL     1       9.297  -1.191  21.852  0.00  0.00    +0.012 A 
ATOM      5  C   UNL     1       9.443   0.092  21.326  0.00  0.00    +0.004 A 
ATOM      6  C   UNL     1       9.622   1.181  22.183  0.00  0.00    +0.046 A 
ENDROOT
BRANCH   3   7
ATOM      7  C   UNL     1       9.185  -2.761  23.775  0.00  0.00    +0.193 C 
ATOM      8  O   UNL     1      10.193  -3.378  24.110  0.00  0.00    -0.287 OA
BRANCH   7   9
ATOM      9  C   UNL     1       7.851  -3.413  23.922  0.00  0.00    +0.022 A 
ATOM     10  C   UNL     1       7.779  -4.636  24.601  0.00  0.00    +0.012 A 
ATOM     11  C   UNL     1       6.547  -5.268  24.785  0.00  0.00    +0.001 A 
ATOM     12  C   UNL     1       5.382  -4.682  24.293  0.00  0.00    +0.000 A 
ATOM     13  C   UNL     1       5.445  -3.462  23.620  0.00  0.00    +0.001 A 
ATOM     14  C   UNL     1       6.674  -2.822  23.445  0.00  0.00    +0.012 A 
ENDBRANCH   7   9
ENDBRANCH   3   7
BRANCH   1  15
ATOM     15  O   UNL     1       9.815   2.139  24.311  0.00  0.00    -0.490 OA
BRANCH  15  16
ATOM     16  C   UNL     1       8.634   2.670  24.918  0.00  0.00    +0.250 C 
BRANCH  16  17
ATOM     17  C   UNL     1       8.693   4.195  24.948  0.00  0.00    +0.180 C 
BRANCH  17  18
ATOM     18  N   UNL     1       9.298   4.737  23.735  0.00  0.00    -0.183 N 
ATOM     19  C   UNL     1       9.923   5.964  23.739  0.00  0.00    +0.353 C 
ATOM     20  O   UNL     1      10.363   6.541  24.726  0.00  0.00    -0.277 OA
BRANCH  18  21
ATOM     21  O   UNL     1       8.505   4.504  22.585  0.00  0.00    -0.293 OA
ATOM     22  H   UNL     1       8.771   5.246  22.009  0.00  0.00    +0.242 HD
ENDBRANCH  18  21
ENDBRANCH  17  18
ENDBRANCH  16  17
ENDBRANCH  15  16
ENDBRANCH   1  15
TORSDOF 7
ENDMDL
MODEL 7
REMARK VINA RESULT:      -5.8      2.893      7.713
REMARK  Name = 
REMARK  7 active torsions:
REMARK  status: ('A' for Active; 'I' for Inactive)
REMARK    1  A    between atoms: O_1  and  N_2
REMARK    2  A    between atoms: N_2  and  C_3
REMARK    3  A    between atoms: C_3  and  C_4
REMARK    4  A    between atoms: C_4  and  O_5
REMARK    5  A    between atoms: O_5  and  C_6
REMARK    6  A    between atoms: C_10  and  C_12
REMARK    7  A    between atoms: C_12  and  C_14
REMARK                            x       y       z     vdW  Elec       q    Type
REMARK                         _______ _______ _______ _____ _____    ______ ____
ROOT
ATOM      1  C   UNL     1       9.063  -1.371  24.689  0.00  0.00    +0.121 A 
ATOM      2  C   UNL     1       9.099  -0.341  23.746  0.00  0.00    +0.057 A 
ATOM      3  C   UNL     1       8.691   0.953  24.095  0.00  0.00    +0.026 A 
ATOM      4  C   UNL     1       8.176   1.199  25.371  0.00  0.00    +0.012 A 
ATOM      5  C   UNL     1       8.116   0.167  26.307  0.00  0.00    +0.004 A 
ATOM      6  C   UNL     1       8.569  -1.110  25.969  0.00  0.00    +0.046 A 
ENDROOT
BRANCH   3   7
ATOM      7  C   UNL     1       8.757   2.067  23.117  0.00  0.00    +0.193 C 
ATOM      8  O   UNL     1       8.123   1.975  22.068  0.00  0.00    -0.287 OA
BRANCH   7   9
ATOM      9  C   UNL     1       9.568   3.293  23.370  0.00  0.00    +0.022 A 
ATOM     10  C   UNL     1      10.959   3.213  23.225  0.00  0.00    +0.012 A 
ATOM     11  C   UNL     1      11.754   4.344  23.427  0.00  0.00    +0.001 A 
ATOM     12  C   UNL     1      11.165   5.559  23.771  0.00  0.00    +0.000 A 
ATOM     13  C   UNL     1       9.780   5.648  23.911  0.00  0.00    +0.001 A 
ATOM     14  C   UNL     1       8.981   4.522  23.700  0.00  0.00    +0.012 A 
ENDBRANCH   7   9
ENDBRANCH   3   7
BRANCH   1  15
ATOM     15  O   UNL     1       9.481  -2.660  24.469  0.00  0.00    -0.490 OA
BRANCH  15  16
ATOM     16  C   UNL     1       8.655  -3.429  23.590  0.00  0.00    +0.250 C 
BRANCH  16  17
ATOM     17  C   UNL     1       7.789  -4.398  24.390  0.00  0.00    +0.180 C 
BRANCH  17  18
ATOM     18  N   UNL     1       8.587  -5.217  25.297  0.00  0.00    -0.183 N 
ATOM     19  C   UNL     1       8.510  -5.049  26.661  0.00  0.00    +0.353 C 
ATOM     20  O   UNL     1       7.583  -4.526  27.268  0.00  0.00    -0.277 OA
BRANCH  18  21
ATOM     21  O   UNL     1       9.903  -5.424  24.820  0.00  0.00    -0.293 OA
ATOM     22  H   UNL     1      10.426  -4.892  25.450  0.00  0.00    +0.242 HD
ENDBRANCH  18  21
ENDBRANCH  17  18
ENDBRANCH  16  17
ENDBRANCH  15  16
ENDBRANCH   1  15
TORSDOF 7
ENDMDL
MODEL 8
REMARK VINA RESULT:      -5.7      2.986      7.571
REMARK  Name = 
REMARK  7 active torsions:
REMARK  status: ('A' for Active; 'I' for Inactive)
REMARK    1  A    between atoms: O_1  and  N_2
REMARK    2  A    between atoms: N_2  and  C_3
REMARK    3  A    between atoms: C_3  and  C_4
REMARK    4  A    between atoms: C_4  and  O_5
REMARK    5  A    between atoms: O_5  and  C_6
REMARK    6  A    between atoms: C_10  and  C_12
REMARK    7  A    between atoms: C_12  and  C_14
REMARK                            x       y       z     vdW  Elec       q    Type
REMARK                         _______ _______ _______ _____ _____    ______ ____
ROOT
ATOM      1  C   UNL     1       9.405  -1.567  24.004  0.00  0.00    +0.121 A 
ATOM      2  C   UNL     1       9.692  -0.221  24.244  0.00  0.00    +0.057 A 
ATOM      3  C   UNL     1       9.869   0.668  23.176  0.00  0.00    +0.026 A 
ATOM      4  C   UNL     1       9.831   0.191  21.862  0.00  0.00    +0.012 A 
ATOM      5  C   UNL     1       9.568  -1.157  21.618  0.00  0.00    +0.004 A 
ATOM      6  C   UNL     1       9.344  -2.028  22.687  0.00  0.00    +0.046 A 
ENDROOT
BRANCH   3   7
ATOM      7  C   UNL     1      10.139   2.107  23.413  0.00  0.00    +0.193 C 
ATOM      8  O   UNL     1      11.253   2.446  23.807  0.00  0.00    -0.287 OA
BRANCH   7   9
ATOM      9  C   UNL     1       9.100   3.153  23.186  0.00  0.00    +0.022 A 
ATOM     10  C   UNL     1       7.987   2.827  22.402  0.00  0.00    +0.012 A 
ATOM     11  C   UNL     1       6.978   3.768  22.186  0.00  0.00    +0.001 A 
ATOM     12  C   UNL     1       7.074   5.037  22.754  0.00  0.00    +0.000 A 
ATOM     13  C   UNL     1       8.176   5.368  23.542  0.00  0.00    +0.001 A 
ATOM     14  C   UNL     1       9.182   4.426  23.768  0.00  0.00    +0.012 A 
ENDBRANCH   7   9
ENDBRANCH   3   7
BRANCH   1  15
ATOM     15  O   UNL     1       9.168  -2.510  24.972  0.00  0.00    -0.490 OA
BRANCH  15  16
ATOM     16  C   UNL     1       8.075  -3.394  24.709  0.00  0.00    +0.250 C 
BRANCH  16  17
ATOM     17  C   UNL     1       8.527  -4.847  24.835  0.00  0.00    +0.180 C 
BRANCH  17  18
ATOM     18  N   UNL     1       8.537  -5.294  26.225  0.00  0.00    -0.183 N 
ATOM     19  C   UNL     1       7.370  -5.642  26.868  0.00  0.00    +0.353 C 
ATOM     20  O   UNL     1       6.322  -5.970  26.324  0.00  0.00    -0.277 OA
BRANCH  18  21
ATOM     21  O   UNL     1       9.430  -4.543  27.026  0.00  0.00    -0.293 OA
ATOM     22  H   UNL     1       8.858  -4.296  27.779  0.00  0.00    +0.242 HD
ENDBRANCH  18  21
ENDBRANCH  17  18
ENDBRANCH  16  17
ENDBRANCH  15  16
ENDBRANCH   1  15
TORSDOF 7
ENDMDL
MODEL 9
REMARK VINA RESULT:      -5.6      1.563      2.185
REMARK  Name = 
REMARK  7 active torsions:
REMARK  status: ('A' for Active; 'I' for Inactive)
REMARK    1  A    between atoms: O_1  and  N_2
REMARK    2  A    between atoms: N_2  and  C_3
REMARK    3  A    between atoms: C_3  and  C_4
REMARK    4  A    between atoms: C_4  and  O_5
REMARK    5  A    between atoms: O_5  and  C_6
REMARK    6  A    between atoms: C_10  and  C_12
REMARK    7  A    between atoms: C_12  and  C_14
REMARK                            x       y       z     vdW  Elec       q    Type
REMARK                         _______ _______ _______ _____ _____    ______ ____
ROOT
ATOM      1  C   UNL     1       8.442  -1.265  26.043  0.00  0.00    +0.121 A 
ATOM      2  C   UNL     1       8.409  -2.615  25.688  0.00  0.00    +0.057 A 
ATOM      3  C   UNL     1       7.268  -3.387  25.940  0.00  0.00    +0.026 A 
ATOM      4  C   UNL     1       6.183  -2.822  26.617  0.00  0.00    +0.012 A 
ATOM      5  C   UNL     1       6.220  -1.481  26.994  0.00  0.00    +0.004 A 
ATOM      6  C   UNL     1       7.342  -0.703  26.697  0.00  0.00    +0.046 A 
ENDROOT
BRANCH   3   7
ATOM      7  C   UNL     1       7.204  -4.814  25.537  0.00  0.00    +0.193 C 
ATOM      8  O   UNL     1       7.512  -5.677  26.356  0.00  0.00    -0.287 OA
BRANCH   7   9
ATOM      9  C   UNL     1       6.775  -5.229  24.170  0.00  0.00    +0.022 A 
ATOM     10  C   UNL     1       5.408  -5.415  23.928  0.00  0.00    +0.012 A 
ATOM     11  C   UNL     1       4.961  -5.778  22.656  0.00  0.00    +0.001 A 
ATOM     12  C   UNL     1       5.876  -5.955  21.619  0.00  0.00    +0.000 A 
ATOM     13  C   UNL     1       7.238  -5.766  21.850  0.00  0.00    +0.001 A 
ATOM     14  C   UNL     1       7.688  -5.392  23.118  0.00  0.00    +0.012 A 
ENDBRANCH   7   9
ENDBRANCH   3   7
BRANCH   1  15
ATOM     15  O   UNL     1       9.486  -0.408  25.803  0.00  0.00    -0.490 OA
BRANCH  15  16
ATOM     16  C   UNL     1      10.108  -0.545  24.522  0.00  0.00    +0.250 C 
BRANCH  16  17
ATOM     17  C   UNL     1       9.157  -0.088  23.420  0.00  0.00    +0.180 C 
BRANCH  17  18
ATOM     18  N   UNL     1       9.879   0.375  22.238  0.00  0.00    -0.183 N 
ATOM     19  C   UNL     1      10.039   1.719  21.983  0.00  0.00    +0.353 C 
ATOM     20  O   UNL     1       9.955   2.620  22.809  0.00  0.00    -0.277 OA
BRANCH  18  21
ATOM     21  O   UNL     1       9.580  -0.394  21.088  0.00  0.00    -0.293 OA
ATOM     22  H   UNL     1      10.243  -0.061  20.452  0.00  0.00    +0.242 HD
ENDBRANCH  18  21
ENDBRANCH  17  18
ENDBRANCH  16  17
ENDBRANCH  15  16
ENDBRANCH   1  15
TORSDOF 7
ENDMDL
