MODEL 1
REMARK VINA RESULT:      -4.9      0.000      0.000
REMARK  Name = 
REMARK  38 active torsions:
REMARK  status: ('A' for Active; 'I' for Inactive)
REMARK    1  A    between atoms: C_1  and  C_2
REMARK    2  A    between atoms: C_2  and  C_3
REMARK    3  A    between atoms: C_3  and  C_4
REMARK    4  A    between atoms: C_4  and  C_5
REMARK    5  A    between atoms: C_5  and  C_6
REMARK    6  A    between atoms: C_6  and  C_7
REMARK    7  A    between atoms: C_7  and  C_8
REMARK    8  A    between atoms: C_8  and  C_9
REMARK    9  A    between atoms: C_9  and  C_10
REMARK   10  A    between atoms: C_10  and  C_11
REMARK   11  A    between atoms: C_11  and  C_12
REMARK   12  A    between atoms: C_12  and  O_14
REMARK   13  A    between atoms: O_14  and  C_15
REMARK   14  A    between atoms: C_15  and  C_16
REMARK   15  A    between atoms: C_16  and  C_18
REMARK   16  A    between atoms: C_16  and  O_30
REMARK   17  A    between atoms: C_18  and  O_19
REMARK   18  A    between atoms: O_19  and  P_20
REMARK   19  A    between atoms: P_20  and  O_21
REMARK   20  A    between atoms: P_20  and  O_23
REMARK   21  A    between atoms: O_23  and  C_24
REMARK   22  A    between atoms: C_24  and  C_25
REMARK   23  A    between atoms: C_25  and  N_26
REMARK   24  A    between atoms: N_26  and  C_27
REMARK   25  A    between atoms: N_26  and  C_28
REMARK   26  A    between atoms: N_26  and  C_29
REMARK   27  A    between atoms: O_30  and  C_31
REMARK   28  A    between atoms: C_31  and  C_33
REMARK   29  A    between atoms: C_33  and  C_34
REMARK   30  A    between atoms: C_34  and  C_35
REMARK   31  A    between atoms: C_35  and  C_36
REMARK   32  A    between atoms: C_36  and  C_37
REMARK   33  A    between atoms: C_37  and  C_38
REMARK   34  A    between atoms: C_38  and  C_39
REMARK   35  A    between atoms: C_39  and  C_40
REMARK   36  A    between atoms: C_40  and  C_41
REMARK   37  A    between atoms: C_41  and  C_42
REMARK   38  A    between atoms: C_42  and  C_43
REMARK                            x       y       z     vdW  Elec       q    Type
REMARK                         _______ _______ _______ _____ _____    ______ ____
ROOT
ATOM      1  C   UNL     1       7.769  -2.505  24.553  0.00  0.00    +0.240 C 
ENDROOT
BRANCH   1   2
ATOM      2  C   UNL     1       8.488  -3.587  25.353  0.00  0.00    +0.220 C 
BRANCH   2   3
ATOM      3  O   UNL     1       7.892  -3.744  26.645  0.00  0.00    -0.283 OA
BRANCH   3   4
ATOM      4  P   UNL     1       6.909  -5.166  26.717  0.00  0.00    +0.475 P 
ATOM      5  O   UNL     1       6.611  -4.926  28.197  0.00  0.00    -0.227 OA
BRANCH   4   6
ATOM      6  O   UNL     1       8.316  -6.003  26.742  0.00  0.00    -0.302 OA
ATOM      7  H   UNL     1       8.910  -5.495  27.336  0.00  0.00    +0.222 HD
ENDBRANCH   4   6
BRANCH   4   8
ATOM      8  O   UNL     1       5.925  -6.589  26.788  0.00  0.00    -0.281 OA
BRANCH   8   9
ATOM      9  C   UNL     1       4.842  -6.635  25.860  0.00  0.00    +0.223 C 
BRANCH   9  10
ATOM     10  C   UNL     1       4.540  -5.287  25.220  0.00  0.00    +0.161 C 
BRANCH  10  11
ATOM     11  N   UNL     1       4.500  -5.293  23.682  0.00  0.00    +0.239 N 
ATOM     12  C   UNL     1       4.646  -3.846  23.224  0.00  0.00    +0.192 C 
ATOM     13  C   UNL     1       3.169  -5.838  23.171  0.00  0.00    +0.192 C 
ATOM     14  C   UNL     1       5.635  -6.119  23.090  0.00  0.00    +0.192 C 
ENDBRANCH  10  11
ENDBRANCH   9  10
ENDBRANCH   8   9
ENDBRANCH   4   8
ENDBRANCH   3   4
ENDBRANCH   2   3
ENDBRANCH   1   2
BRANCH   1  15
ATOM     15  O   UNL     1       7.614  -1.355  25.415  0.00  0.00    -0.456 OA
BRANCH  15  16
ATOM     16  C   UNL     1       6.622  -0.486  25.079  0.00  0.00    +0.308 C 
ATOM     17  O   UNL     1       5.454  -0.780  24.870  0.00  0.00    -0.251 OA
BRANCH  16  18
ATOM     18  C   UNL     1       7.158   0.922  25.027  0.00  0.00    +0.120 C 
BRANCH  18  19
ATOM     19  C   UNL     1       6.185   1.915  25.655  0.00  0.00    +0.011 C 
BRANCH  19  20
ATOM     20  C   UNL     1       6.245   1.905  27.186  0.00  0.00    +0.001 C 
BRANCH  20  21
ATOM     21  C   UNL     1       6.814   3.217  27.725  0.00  0.00    +0.000 C 
BRANCH  21  22
ATOM     22  C   UNL     1       5.854   4.378  27.467  0.00  0.00    +0.000 C 
BRANCH  22  23
ATOM     23  C   UNL     1       6.605   5.624  27.000  0.00  0.00    +0.000 C 
BRANCH  23  24
ATOM     24  C   UNL     1       5.646   6.653  26.403  0.00  0.00    -0.000 C 
BRANCH  24  25
ATOM     25  C   UNL     1       6.040   7.010  24.969  0.00  0.00    -0.000 C 
BRANCH  25  26
ATOM     26  C   UNL     1       5.877   5.808  24.039  0.00  0.00    -0.000 C 
BRANCH  26  27
ATOM     27  C   UNL     1       5.792   6.243  22.578  0.00  0.00    -0.003 C 
ATOM     28  C   UNL     1       7.146   6.700  22.061  0.00  0.00    +0.004 C 
ENDBRANCH  26  27
ENDBRANCH  25  26
ENDBRANCH  24  25
ENDBRANCH  23  24
ENDBRANCH  22  23
ENDBRANCH  21  22
ENDBRANCH  20  21
ENDBRANCH  19  20
ENDBRANCH  18  19
ENDBRANCH  16  18
ENDBRANCH  15  16
ENDBRANCH   1  15
BRANCH   1  29
ATOM     29  C   UNL     1       8.622  -2.091  23.347  0.00  0.00    +0.279 C 
BRANCH  29  30
ATOM     30  O   UNL     1       9.941  -1.699  23.760  0.00  0.00    -0.461 OA
BRANCH  30  31
ATOM     31  C   UNL     1      10.300  -0.431  23.420  0.00  0.00    +0.307 C 
ATOM     32  O   UNL     1      10.900   0.333  24.165  0.00  0.00    -0.251 OA
BRANCH  31  33
ATOM     33  C   UNL     1       9.823  -0.105  22.029  0.00  0.00    +0.120 C 
BRANCH  33  34
ATOM     34  C   UNL     1       9.719   1.401  21.838  0.00  0.00    +0.011 C 
BRANCH  34  35
ATOM     35  C   UNL     1       8.268   1.862  21.717  0.00  0.00    +0.001 C 
BRANCH  35  36
ATOM     36  C   UNL     1       8.077   3.203  22.425  0.00  0.00    +0.000 C 
BRANCH  36  37
ATOM     37  C   UNL     1       9.346   3.654  23.145  0.00  0.00    +0.000 C 
BRANCH  37  38
ATOM     38  C   UNL     1       9.019   4.180  24.543  0.00  0.00    +0.000 C 
BRANCH  38  39
ATOM     39  C   UNL     1       9.524   5.609  24.733  0.00  0.00    -0.000 C 
BRANCH  39  40
ATOM     40  C   UNL     1      10.513   5.999  23.634  0.00  0.00    -0.000 C 
BRANCH  40  41
ATOM     41  C   UNL     1      11.945   6.030  24.167  0.00  0.00    -0.000 C 
BRANCH  41  43
ATOM     42  C   UNL     1      13.216   5.635  22.024  0.00  0.00    +0.004 C 
ATOM     43  C   UNL     1      12.851   5.075  23.394  0.00  0.00    -0.003 C 
ENDBRANCH  41  43
ENDBRANCH  40  41
ENDBRANCH  39  40
ENDBRANCH  38  39
ENDBRANCH  37  38
ENDBRANCH  36  37
ENDBRANCH  35  36
ENDBRANCH  34  35
ENDBRANCH  33  34
ENDBRANCH  31  33
ENDBRANCH  30  31
ENDBRANCH  29  30
ENDBRANCH   1  29
TORSDOF 33
ENDMDL
MODEL 2
REMARK VINA RESULT:      -4.9      2.242      4.200
REMARK  Name = 
REMARK  38 active torsions:
REMARK  status: ('A' for Active; 'I' for Inactive)
REMARK    1  A    between atoms: C_1  and  C_2
REMARK    2  A    between atoms: C_2  and  C_3
REMARK    3  A    between atoms: C_3  and  C_4
REMARK    4  A    between atoms: C_4  and  C_5
REMARK    5  A    between atoms: C_5  and  C_6
REMARK    6  A    between atoms: C_6  and  C_7
REMARK    7  A    between atoms: C_7  and  C_8
REMARK    8  A    between atoms: C_8  and  C_9
REMARK    9  A    between atoms: C_9  and  C_10
REMARK   10  A    between atoms: C_10  and  C_11
REMARK   11  A    between atoms: C_11  and  C_12
REMARK   12  A    between atoms: C_12  and  O_14
REMARK   13  A    between atoms: O_14  and  C_15
REMARK   14  A    between atoms: C_15  and  C_16
REMARK   15  A    between atoms: C_16  and  C_18
REMARK   16  A    between atoms: C_16  and  O_30
REMARK   17  A    between atoms: C_18  and  O_19
REMARK   18  A    between atoms: O_19  and  P_20
REMARK   19  A    between atoms: P_20  and  O_21
REMARK   20  A    between atoms: P_20  and  O_23
REMARK   21  A    between atoms: O_23  and  C_24
REMARK   22  A    between atoms: C_24  and  C_25
REMARK   23  A    between atoms: C_25  and  N_26
REMARK   24  A    between atoms: N_26  and  C_27
REMARK   25  A    between atoms: N_26  and  C_28
REMARK   26  A    between atoms: N_26  and  C_29
REMARK   27  A    between atoms: O_30  and  C_31
REMARK   28  A    between atoms: C_31  and  C_33
REMARK   29  A    between atoms: C_33  and  C_34
REMARK   30  A    between atoms: C_34  and  C_35
REMARK   31  A    between atoms: C_35  and  C_36
REMARK   32  A    between atoms: C_36  and  C_37
REMARK   33  A    between atoms: C_37  and  C_38
REMARK   34  A    between atoms: C_38  and  C_39
REMARK   35  A    between atoms: C_39  and  C_40
REMARK   36  A    between atoms: C_40  and  C_41
REMARK   37  A    between atoms: C_41  and  C_42
REMARK   38  A    between atoms: C_42  and  C_43
REMARK                            x       y       z     vdW  Elec       q    Type
REMARK                         _______ _______ _______ _____ _____    ______ ____
ROOT
ATOM      1  C   UNL     1       8.280  -4.229  24.663  0.00  0.00    +0.240 C 
ENDROOT
BRANCH   1   2
ATOM      2  C   UNL     1       7.968  -5.168  23.503  0.00  0.00    +0.220 C 
BRANCH   2   3
ATOM      3  O   UNL     1       7.207  -4.496  22.493  0.00  0.00    -0.283 OA
BRANCH   3   4
ATOM      4  P   UNL     1       5.549  -4.988  22.520  0.00  0.00    +0.475 P 
ATOM      5  O   UNL     1       5.738  -5.815  21.248  0.00  0.00    -0.227 OA
BRANCH   4   6
ATOM      6  O   UNL     1       5.211  -3.489  21.955  0.00  0.00    -0.302 OA
ATOM      7  H   UNL     1       4.266  -3.518  21.690  0.00  0.00    +0.222 HD
ENDBRANCH   4   6
BRANCH   4   8
ATOM      8  O   UNL     1       3.889  -5.479  22.549  0.00  0.00    -0.281 OA
BRANCH   8   9
ATOM      9  C   UNL     1       3.521  -6.346  23.621  0.00  0.00    +0.223 C 
BRANCH   9  10
ATOM     10  C   UNL     1       2.507  -5.727  24.573  0.00  0.00    +0.161 C 
BRANCH  10  11
ATOM     11  N   UNL     1       2.573  -6.245  26.020  0.00  0.00    +0.239 N 
ATOM     12  C   UNL     1       2.229  -5.073  26.933  0.00  0.00    +0.192 C 
ATOM     13  C   UNL     1       3.978  -6.736  26.361  0.00  0.00    +0.192 C 
ATOM     14  C   UNL     1       1.580  -7.374  26.263  0.00  0.00    +0.192 C 
ENDBRANCH  10  11
ENDBRANCH   9  10
ENDBRANCH   8   9
ENDBRANCH   4   8
ENDBRANCH   3   4
ENDBRANCH   2   3
ENDBRANCH   1   2
BRANCH   1  15
ATOM     15  O   UNL     1       8.573  -5.046  25.819  0.00  0.00    -0.456 OA
BRANCH  15  16
ATOM     16  C   UNL     1       7.707  -4.935  26.864  0.00  0.00    +0.308 C 
ATOM     17  O   UNL     1       7.448  -5.813  27.674  0.00  0.00    -0.251 OA
BRANCH  16  18
ATOM     18  C   UNL     1       7.119  -3.548  26.908  0.00  0.00    +0.120 C 
BRANCH  18  19
ATOM     19  C   UNL     1       5.656  -3.574  27.338  0.00  0.00    +0.011 C 
BRANCH  19  20
ATOM     20  C   UNL     1       4.863  -2.381  26.794  0.00  0.00    +0.001 C 
BRANCH  20  21
ATOM     21  C   UNL     1       4.754  -2.439  25.271  0.00  0.00    +0.000 C 
BRANCH  21  22
ATOM     22  C   UNL     1       5.680  -1.416  24.614  0.00  0.00    +0.000 C 
BRANCH  22  23
ATOM     23  C   UNL     1       5.679  -0.095  25.381  0.00  0.00    +0.000 C 
BRANCH  23  24
ATOM     24  C   UNL     1       7.100   0.335  25.740  0.00  0.00    -0.000 C 
BRANCH  24  25
ATOM     25  C   UNL     1       7.307   0.353  27.255  0.00  0.00    -0.000 C 
BRANCH  25  26
ATOM     26  C   UNL     1       6.724   1.622  27.875  0.00  0.00    -0.000 C 
BRANCH  26  27
ATOM     27  C   UNL     1       7.110   2.862  27.070  0.00  0.00    -0.003 C 
ATOM     28  C   UNL     1       5.924   3.798  26.899  0.00  0.00    +0.004 C 
ENDBRANCH  26  27
ENDBRANCH  25  26
ENDBRANCH  24  25
ENDBRANCH  23  24
ENDBRANCH  22  23
ENDBRANCH  21  22
ENDBRANCH  20  21
ENDBRANCH  19  20
ENDBRANCH  18  19
ENDBRANCH  16  18
ENDBRANCH  15  16
ENDBRANCH   1  15
BRANCH   1  29
ATOM     29  C   UNL     1       9.522  -3.389  24.339  0.00  0.00    +0.279 C 
BRANCH  29  30
ATOM     30  O   UNL     1       9.164  -2.024  24.070  0.00  0.00    -0.461 OA
BRANCH  30  31
ATOM     31  C   UNL     1       9.679  -1.507  22.922  0.00  0.00    +0.307 C 
ATOM     32  O   UNL     1      10.690  -1.928  22.375  0.00  0.00    -0.251 OA
BRANCH  31  33
ATOM     33  C   UNL     1       8.855  -0.337  22.455  0.00  0.00    +0.120 C 
BRANCH  33  34
ATOM     34  C   UNL     1       9.731   0.894  22.265  0.00  0.00    +0.011 C 
BRANCH  34  35
ATOM     35  C   UNL     1      10.397   1.326  23.570  0.00  0.00    +0.001 C 
BRANCH  35  36
ATOM     36  C   UNL     1       9.552   2.390  24.270  0.00  0.00    +0.000 C 
BRANCH  36  37
ATOM     37  C   UNL     1       8.916   3.359  23.275  0.00  0.00    +0.000 C 
BRANCH  37  38
ATOM     38  C   UNL     1       8.238   4.519  24.004  0.00  0.00    +0.000 C 
BRANCH  38  39
ATOM     39  C   UNL     1       9.260   5.410  24.706  0.00  0.00    -0.000 C 
BRANCH  39  40
ATOM     40  C   UNL     1      10.169   6.113  23.697  0.00  0.00    -0.000 C 
BRANCH  40  41
ATOM     41  C   UNL     1      11.639   5.978  24.093  0.00  0.00    -0.000 C 
BRANCH  41  43
ATOM     42  C   UNL     1      13.149   5.478  22.136  0.00  0.00    +0.004 C 
ATOM     43  C   UNL     1      12.339   4.889  23.284  0.00  0.00    -0.003 C 
ENDBRANCH  41  43
ENDBRANCH  40  41
ENDBRANCH  39  40
ENDBRANCH  38  39
ENDBRANCH  37  38
ENDBRANCH  36  37
ENDBRANCH  35  36
ENDBRANCH  34  35
ENDBRANCH  33  34
ENDBRANCH  31  33
ENDBRANCH  30  31
ENDBRANCH  29  30
ENDBRANCH   1  29
TORSDOF 33
ENDMDL
MODEL 3
REMARK VINA RESULT:      -4.9      1.652      4.838
REMARK  Name = 
REMARK  38 active torsions:
REMARK  status: ('A' for Active; 'I' for Inactive)
REMARK    1  A    between atoms: C_1  and  C_2
REMARK    2  A    between atoms: C_2  and  C_3
REMARK    3  A    between atoms: C_3  and  C_4
REMARK    4  A    between atoms: C_4  and  C_5
REMARK    5  A    between atoms: C_5  and  C_6
REMARK    6  A    between atoms: C_6  and  C_7
REMARK    7  A    between atoms: C_7  and  C_8
REMARK    8  A    between atoms: C_8  and  C_9
REMARK    9  A    between atoms: C_9  and  C_10
REMARK   10  A    between atoms: C_10  and  C_11
REMARK   11  A    between atoms: C_11  and  C_12
REMARK   12  A    between atoms: C_12  and  O_14
REMARK   13  A    between atoms: O_14  and  C_15
REMARK   14  A    between atoms: C_15  and  C_16
REMARK   15  A    between atoms: C_16  and  C_18
REMARK   16  A    between atoms: C_16  and  O_30
REMARK   17  A    between atoms: C_18  and  O_19
REMARK   18  A    between atoms: O_19  and  P_20
REMARK   19  A    between atoms: P_20  and  O_21
REMARK   20  A    between atoms: P_20  and  O_23
REMARK   21  A    between atoms: O_23  and  C_24
REMARK   22  A    between atoms: C_24  and  C_25
REMARK   23  A    between atoms: C_25  and  N_26
REMARK   24  A    between atoms: N_26  and  C_27
REMARK   25  A    between atoms: N_26  and  C_28
REMARK   26  A    between atoms: N_26  and  C_29
REMARK   27  A    between atoms: O_30  and  C_31
REMARK   28  A    between atoms: C_31  and  C_33
REMARK   29  A    between atoms: C_33  and  C_34
REMARK   30  A    between atoms: C_34  and  C_35
REMARK   31  A    between atoms: C_35  and  C_36
REMARK   32  A    between atoms: C_36  and  C_37
REMARK   33  A    between atoms: C_37  and  C_38
REMARK   34  A    between atoms: C_38  and  C_39
REMARK   35  A    between atoms: C_39  and  C_40
REMARK   36  A    between atoms: C_40  and  C_41
REMARK   37  A    between atoms: C_41  and  C_42
REMARK   38  A    between atoms: C_42  and  C_43
REMARK                            x       y       z     vdW  Elec       q    Type
REMARK                         _______ _______ _______ _____ _____    ______ ____
ROOT
ATOM      1  C   UNL     1       7.638  -1.210  25.841  0.00  0.00    +0.240 C 
ENDROOT
BRANCH   1   2
ATOM      2  C   UNL     1       7.660  -2.442  26.740  0.00  0.00    +0.220 C 
BRANCH   2   3
ATOM      3  O   UNL     1       8.115  -3.592  26.019  0.00  0.00    -0.283 OA
BRANCH   3   4
ATOM      4  P   UNL     1       7.155  -4.985  26.382  0.00  0.00    +0.475 P 
ATOM      5  O   UNL     1       6.986  -4.531  27.832  0.00  0.00    -0.227 OA
BRANCH   4   6
ATOM      6  O   UNL     1       8.567  -5.813  26.404  0.00  0.00    -0.302 OA
ATOM      7  H   UNL     1       8.317  -6.756  26.290  0.00  0.00    +0.222 HD
ENDBRANCH   4   6
BRANCH   4   8
ATOM      8  O   UNL     1       6.195  -6.379  26.744  0.00  0.00    -0.281 OA
BRANCH   8   9
ATOM      9  C   UNL     1       4.788  -6.155  26.820  0.00  0.00    +0.223 C 
BRANCH   9  10
ATOM     10  C   UNL     1       4.278  -5.172  25.775  0.00  0.00    +0.161 C 
BRANCH  10  11
ATOM     11  N   UNL     1       3.423  -5.797  24.659  0.00  0.00    +0.239 N 
ATOM     12  C   UNL     1       3.368  -4.787  23.517  0.00  0.00    +0.192 C 
ATOM     13  C   UNL     1       2.001  -6.066  25.145  0.00  0.00    +0.192 C 
ATOM     14  C   UNL     1       4.026  -7.097  24.144  0.00  0.00    +0.192 C 
ENDBRANCH  10  11
ENDBRANCH   9  10
ENDBRANCH   8   9
ENDBRANCH   4   8
ENDBRANCH   3   4
ENDBRANCH   2   3
ENDBRANCH   1   2
BRANCH   1  15
ATOM     15  O   UNL     1       6.760  -0.238  26.453  0.00  0.00    -0.456 OA
BRANCH  15  16
ATOM     16  C   UNL     1       5.561  -0.046  25.837  0.00  0.00    +0.308 C 
ATOM     17  O   UNL     1       4.912  -0.900  25.252  0.00  0.00    -0.251 OA
BRANCH  16  18
ATOM     18  C   UNL     1       5.115   1.385  26.002  0.00  0.00    +0.120 C 
BRANCH  18  19
ATOM     19  C   UNL     1       6.032   2.347  25.255  0.00  0.00    +0.011 C 
BRANCH  19  20
ATOM     20  C   UNL     1       6.084   2.058  23.751  0.00  0.00    +0.001 C 
BRANCH  20  21
ATOM     21  C   UNL     1       5.046   2.884  22.994  0.00  0.00    +0.000 C 
BRANCH  21  22
ATOM     22  C   UNL     1       5.556   4.301  22.732  0.00  0.00    +0.000 C 
BRANCH  22  23
ATOM     23  C   UNL     1       7.005   4.287  22.246  0.00  0.00    +0.000 C 
BRANCH  23  24
ATOM     24  C   UNL     1       7.780   5.485  22.792  0.00  0.00    -0.000 C 
BRANCH  24  25
ATOM     25  C   UNL     1       7.868   5.439  24.318  0.00  0.00    -0.000 C 
BRANCH  25  26
ATOM     26  C   UNL     1       9.312   5.603  24.791  0.00  0.00    -0.000 C 
BRANCH  26  27
ATOM     27  C   UNL     1      10.198   6.174  23.685  0.00  0.00    -0.003 C 
ATOM     28  C   UNL     1      11.561   5.502  23.670  0.00  0.00    +0.004 C 
ENDBRANCH  26  27
ENDBRANCH  25  26
ENDBRANCH  24  25
ENDBRANCH  23  24
ENDBRANCH  22  23
ENDBRANCH  21  22
ENDBRANCH  20  21
ENDBRANCH  19  20
ENDBRANCH  18  19
ENDBRANCH  16  18
ENDBRANCH  15  16
ENDBRANCH   1  15
BRANCH   1  29
ATOM     29  C   UNL     1       9.043  -0.601  25.752  0.00  0.00    +0.279 C 
BRANCH  29  30
ATOM     30  O   UNL     1       9.000   0.704  25.151  0.00  0.00    -0.461 OA
BRANCH  30  31
ATOM     31  C   UNL     1      10.161   1.110  24.568  0.00  0.00    +0.307 C 
ATOM     32  O   UNL     1      11.260   0.642  24.834  0.00  0.00    -0.251 OA
BRANCH  31  33
ATOM     33  C   UNL     1       9.896   2.225  23.592  0.00  0.00    +0.120 C 
BRANCH  33  34
ATOM     34  C   UNL     1       9.963   1.711  22.161  0.00  0.00    +0.011 C 
BRANCH  34  35
ATOM     35  C   UNL     1       8.788   0.794  21.828  0.00  0.00    +0.001 C 
BRANCH  35  36
ATOM     36  C   UNL     1       9.294  -0.527  21.250  0.00  0.00    +0.000 C 
BRANCH  36  37
ATOM     37  C   UNL     1       9.944  -1.405  22.318  0.00  0.00    +0.000 C 
BRANCH  37  38
ATOM     38  C   UNL     1       9.051  -2.599  22.658  0.00  0.00    +0.000 C 
BRANCH  38  39
ATOM     39  C   UNL     1       7.600  -2.341  22.257  0.00  0.00    -0.000 C 
BRANCH  39  40
ATOM     40  C   UNL     1       6.733  -3.580  22.485  0.00  0.00    -0.000 C 
BRANCH  40  41
ATOM     41  C   UNL     1       7.595  -4.815  22.748  0.00  0.00    -0.000 C 
BRANCH  41  43
ATOM     42  C   UNL     1       6.157  -5.657  20.854  0.00  0.00    +0.004 C 
ATOM     43  C   UNL     1       7.045  -6.045  22.031  0.00  0.00    -0.003 C 
ENDBRANCH  41  43
ENDBRANCH  40  41
ENDBRANCH  39  40
ENDBRANCH  38  39
ENDBRANCH  37  38
ENDBRANCH  36  37
ENDBRANCH  35  36
ENDBRANCH  34  35
ENDBRANCH  33  34
ENDBRANCH  31  33
ENDBRANCH  30  31
ENDBRANCH  29  30
ENDBRANCH   1  29
TORSDOF 33
ENDMDL
MODEL 4
REMARK VINA RESULT:      -4.7      1.275      3.542
REMARK  Name = 
REMARK  38 active torsions:
REMARK  status: ('A' for Active; 'I' for Inactive)
REMARK    1  A    between atoms: C_1  and  C_2
REMARK    2  A    between atoms: C_2  and  C_3
REMARK    3  A    between atoms: C_3  and  C_4
REMARK    4  A    between atoms: C_4  and  C_5
REMARK    5  A    between atoms: C_5  and  C_6
REMARK    6  A    between atoms: C_6  and  C_7
REMARK    7  A    between atoms: C_7  and  C_8
REMARK    8  A    between atoms: C_8  and  C_9
REMARK    9  A    between atoms: C_9  and  C_10
REMARK   10  A    between atoms: C_10  and  C_11
REMARK   11  A    between atoms: C_11  and  C_12
REMARK   12  A    between atoms: C_12  and  O_14
REMARK   13  A    between atoms: O_14  and  C_15
REMARK   14  A    between atoms: C_15  and  C_16
REMARK   15  A    between atoms: C_16  and  C_18
REMARK   16  A    between atoms: C_16  and  O_30
REMARK   17  A    between atoms: C_18  and  O_19
REMARK   18  A    between atoms: O_19  and  P_20
REMARK   19  A    between atoms: P_20  and  O_21
REMARK   20  A    between atoms: P_20  and  O_23
REMARK   21  A    between atoms: O_23  and  C_24
REMARK   22  A    between atoms: C_24  and  C_25
REMARK   23  A    between atoms: C_25  and  N_26
REMARK   24  A    between atoms: N_26  and  C_27
REMARK   25  A    between atoms: N_26  and  C_28
REMARK   26  A    between atoms: N_26  and  C_29
REMARK   27  A    between atoms: O_30  and  C_31
REMARK   28  A    between atoms: C_31  and  C_33
REMARK   29  A    between atoms: C_33  and  C_34
REMARK   30  A    between atoms: C_34  and  C_35
REMARK   31  A    between atoms: C_35  and  C_36
REMARK   32  A    between atoms: C_36  and  C_37
REMARK   33  A    between atoms: C_37  and  C_38
REMARK   34  A    between atoms: C_38  and  C_39
REMARK   35  A    between atoms: C_39  and  C_40
REMARK   36  A    between atoms: C_40  and  C_41
REMARK   37  A    between atoms: C_41  and  C_42
REMARK   38  A    between atoms: C_42  and  C_43
REMARK                            x       y       z     vdW  Elec       q    Type
REMARK                         _______ _______ _______ _____ _____    ______ ____
ROOT
ATOM      1  C   UNL     1       8.474  -2.958  24.073  0.00  0.00    +0.240 C 
ENDROOT
BRANCH   1   2
ATOM      2  C   UNL     1       8.576  -4.133  25.039  0.00  0.00    +0.220 C 
BRANCH   2   3
ATOM      3  O   UNL     1       7.809  -3.888  26.223  0.00  0.00    -0.283 OA
BRANCH   3   4
ATOM      4  P   UNL     1       6.832  -5.255  26.636  0.00  0.00    +0.475 P 
ATOM      5  O   UNL     1       6.471  -4.631  27.984  0.00  0.00    -0.227 OA
BRANCH   4   6
ATOM      6  O   UNL     1       8.242  -6.030  26.940  0.00  0.00    -0.302 OA
ATOM      7  H   UNL     1       8.909  -5.319  27.057  0.00  0.00    +0.222 HD
ENDBRANCH   4   6
BRANCH   4   8
ATOM      8  O   UNL     1       5.856  -6.623  27.048  0.00  0.00    -0.281 OA
BRANCH   8   9
ATOM      9  C   UNL     1       4.574  -6.676  26.422  0.00  0.00    +0.223 C 
BRANCH   9  10
ATOM     10  C   UNL     1       4.632  -6.464  24.915  0.00  0.00    +0.161 C 
BRANCH  10  11
ATOM     11  N   UNL     1       3.573  -5.499  24.354  0.00  0.00    +0.239 N 
ATOM     12  C   UNL     1       4.299  -4.222  23.947  0.00  0.00    +0.192 C 
ATOM     13  C   UNL     1       2.531  -5.154  25.415  0.00  0.00    +0.192 C 
ATOM     14  C   UNL     1       2.867  -6.081  23.136  0.00  0.00    +0.192 C 
ENDBRANCH  10  11
ENDBRANCH   9  10
ENDBRANCH   8   9
ENDBRANCH   4   8
ENDBRANCH   3   4
ENDBRANCH   2   3
ENDBRANCH   1   2
BRANCH   1  15
ATOM     15  O   UNL     1       7.776  -1.891  24.755  0.00  0.00    -0.456 OA
BRANCH  15  16
ATOM     16  C   UNL     1       6.691  -1.380  24.111  0.00  0.00    +0.308 C 
ATOM     17  O   UNL     1       6.390  -1.584  22.945  0.00  0.00    -0.251 OA
BRANCH  16  18
ATOM     18  C   UNL     1       5.876  -0.535  25.057  0.00  0.00    +0.120 C 
BRANCH  18  19
ATOM     19  C   UNL     1       6.203   0.947  24.906  0.00  0.00    +0.011 C 
BRANCH  19  20
ATOM     20  C   UNL     1       7.457   1.353  25.687  0.00  0.00    +0.001 C 
BRANCH  20  21
ATOM     21  C   UNL     1       7.279   2.717  26.350  0.00  0.00    +0.000 C 
BRANCH  21  22
ATOM     22  C   UNL     1       8.063   3.797  25.604  0.00  0.00    +0.000 C 
BRANCH  22  23
ATOM     23  C   UNL     1       7.830   5.176  26.221  0.00  0.00    +0.000 C 
BRANCH  23  24
ATOM     24  C   UNL     1       8.263   6.286  25.265  0.00  0.00    -0.000 C 
BRANCH  24  25
ATOM     25  C   UNL     1       9.785   6.333  25.125  0.00  0.00    -0.000 C 
BRANCH  25  26
ATOM     26  C   UNL     1      10.212   6.091  23.677  0.00  0.00    -0.000 C 
BRANCH  26  27
ATOM     27  C   UNL     1      11.605   5.468  23.604  0.00  0.00    -0.003 C 
ATOM     28  C   UNL     1      11.525   3.969  23.367  0.00  0.00    +0.004 C 
ENDBRANCH  26  27
ENDBRANCH  25  26
ENDBRANCH  24  25
ENDBRANCH  23  24
ENDBRANCH  22  23
ENDBRANCH  21  22
ENDBRANCH  20  21
ENDBRANCH  19  20
ENDBRANCH  18  19
ENDBRANCH  16  18
ENDBRANCH  15  16
ENDBRANCH   1  15
BRANCH   1  29
ATOM     29  C   UNL     1       9.877  -2.458  23.705  0.00  0.00    +0.279 C 
BRANCH  29  30
ATOM     30  O   UNL     1       9.832  -1.604  22.550  0.00  0.00    -0.461 OA
BRANCH  30  31
ATOM     31  C   UNL     1      10.050  -0.284  22.799  0.00  0.00    +0.307 C 
ATOM     32  O   UNL     1      10.484   0.150  23.858  0.00  0.00    -0.251 OA
BRANCH  31  33
ATOM     33  C   UNL     1       9.648   0.549  21.611  0.00  0.00    +0.120 C 
BRANCH  33  34
ATOM     34  C   UNL     1       8.286   1.188  21.842  0.00  0.00    +0.011 C 
BRANCH  34  35
ATOM     35  C   UNL     1       8.401   2.682  22.138  0.00  0.00    +0.001 C 
BRANCH  35  36
ATOM     36  C   UNL     1       7.020   3.337  22.104  0.00  0.00    +0.000 C 
BRANCH  36  37
ATOM     37  C   UNL     1       7.110   4.861  22.132  0.00  0.00    +0.000 C 
BRANCH  37  38
ATOM     38  C   UNL     1       5.832   5.470  22.709  0.00  0.00    +0.000 C 
BRANCH  38  39
ATOM     39  C   UNL     1       4.762   4.405  22.940  0.00  0.00    -0.000 C 
BRANCH  39  40
ATOM     40  C   UNL     1       4.559   4.137  24.432  0.00  0.00    -0.000 C 
BRANCH  40  41
ATOM     41  C   UNL     1       3.370   4.928  24.977  0.00  0.00    -0.000 C 
BRANCH  41  43
ATOM     42  C   UNL     1       4.295   5.153  27.313  0.00  0.00    +0.004 C 
ATOM     43  C   UNL     1       3.798   5.895  26.078  0.00  0.00    -0.003 C 
ENDBRANCH  41  43
ENDBRANCH  40  41
ENDBRANCH  39  40
ENDBRANCH  38  39
ENDBRANCH  37  38
ENDBRANCH  36  37
ENDBRANCH  35  36
ENDBRANCH  34  35
ENDBRANCH  33  34
ENDBRANCH  31  33
ENDBRANCH  30  31
ENDBRANCH  29  30
ENDBRANCH   1  29
TORSDOF 33
ENDMDL
MODEL 5
REMARK VINA RESULT:      -4.7      2.148      4.981
REMARK  Name = 
REMARK  38 active torsions:
REMARK  status: ('A' for Active; 'I' for Inactive)
REMARK    1  A    between atoms: C_1  and  C_2
REMARK    2  A    between atoms: C_2  and  C_3
REMARK    3  A    between atoms: C_3  and  C_4
REMARK    4  A    between atoms: C_4  and  C_5
REMARK    5  A    between atoms: C_5  and  C_6
REMARK    6  A    between atoms: C_6  and  C_7
REMARK    7  A    between atoms: C_7  and  C_8
REMARK    8  A    between atoms: C_8  and  C_9
REMARK    9  A    between atoms: C_9  and  C_10
REMARK   10  A    between atoms: C_10  and  C_11
REMARK   11  A    between atoms: C_11  and  C_12
REMARK   12  A    between atoms: C_12  and  O_14
REMARK   13  A    between atoms: O_14  and  C_15
REMARK   14  A    between atoms: C_15  and  C_16
REMARK   15  A    between atoms: C_16  and  C_18
REMARK   16  A    between atoms: C_16  and  O_30
REMARK   17  A    between atoms: C_18  and  O_19
REMARK   18  A    between atoms: O_19  and  P_20
REMARK   19  A    between atoms: P_20  and  O_21
REMARK   20  A    between atoms: P_20  and  O_23
REMARK   21  A    between atoms: O_23  and  C_24
REMARK   22  A    between atoms: C_24  and  C_25
REMARK   23  A    between atoms: C_25  and  N_26
REMARK   24  A    between atoms: N_26  and  C_27
REMARK   25  A    between atoms: N_26  and  C_28
REMARK   26  A    between atoms: N_26  and  C_29
REMARK   27  A    between atoms: O_30  and  C_31
REMARK   28  A    between atoms: C_31  and  C_33
REMARK   29  A    between atoms: C_33  and  C_34
REMARK   30  A    between atoms: C_34  and  C_35
REMARK   31  A    between atoms: C_35  and  C_36
REMARK   32  A    between atoms: C_36  and  C_37
REMARK   33  A    between atoms: C_37  and  C_38
REMARK   34  A    between atoms: C_38  and  C_39
REMARK   35  A    between atoms: C_39  and  C_40
REMARK   36  A    between atoms: C_40  and  C_41
REMARK   37  A    between atoms: C_41  and  C_42
REMARK   38  A    between atoms: C_42  and  C_43
REMARK                            x       y       z     vdW  Elec       q    Type
REMARK                         _______ _______ _______ _____ _____    ______ ____
ROOT
ATOM      1  C   UNL     1       8.249  -2.544  22.997  0.00  0.00    +0.240 C 
ENDROOT
BRANCH   1   2
ATOM      2  C   UNL     1       7.144  -3.312  22.281  0.00  0.00    +0.220 C 
BRANCH   2   3
ATOM      3  O   UNL     1       6.984  -4.619  22.843  0.00  0.00    -0.283 OA
BRANCH   3   4
ATOM      4  P   UNL     1       5.342  -5.155  22.737  0.00  0.00    +0.475 P 
ATOM      5  O   UNL     1       5.577  -5.701  21.327  0.00  0.00    -0.227 OA
BRANCH   4   6
ATOM      6  O   UNL     1       4.964  -3.583  22.480  0.00  0.00    -0.302 OA
ATOM      7  H   UNL     1       5.736  -3.203  22.008  0.00  0.00    +0.222 HD
ENDBRANCH   4   6
BRANCH   4   8
ATOM      8  O   UNL     1       3.700  -5.691  22.631  0.00  0.00    -0.281 OA
BRANCH   8   9
ATOM      9  C   UNL     1       3.111  -6.116  23.860  0.00  0.00    +0.223 C 
BRANCH   9  10
ATOM     10  C   UNL     1       3.377  -5.163  25.016  0.00  0.00    +0.161 C 
BRANCH  10  11
ATOM     11  N   UNL     1       3.629  -5.842  26.373  0.00  0.00    +0.239 N 
ATOM     12  C   UNL     1       3.859  -4.733  27.395  0.00  0.00    +0.192 C 
ATOM     13  C   UNL     1       4.873  -6.726  26.320  0.00  0.00    +0.192 C 
ATOM     14  C   UNL     1       2.440  -6.686  26.813  0.00  0.00    +0.192 C 
ENDBRANCH  10  11
ENDBRANCH   9  10
ENDBRANCH   8   9
ENDBRANCH   4   8
ENDBRANCH   3   4
ENDBRANCH   2   3
ENDBRANCH   1   2
BRANCH   1  15
ATOM     15  O   UNL     1       8.682  -1.480  22.119  0.00  0.00    -0.456 OA
BRANCH  15  16
ATOM     16  C   UNL     1       9.962  -1.050  22.288  0.00  0.00    +0.308 C 
ATOM     17  O   UNL     1      10.957  -1.759  22.322  0.00  0.00    -0.251 OA
BRANCH  16  18
ATOM     18  C   UNL     1       9.995   0.453  22.400  0.00  0.00    +0.120 C 
BRANCH  18  19
ATOM     19  C   UNL     1       9.034   1.109  21.414  0.00  0.00    +0.011 C 
BRANCH  19  20
ATOM     20  C   UNL     1       8.236   2.253  22.047  0.00  0.00    +0.001 C 
BRANCH  20  21
ATOM     21  C   UNL     1       6.745   1.926  22.098  0.00  0.00    +0.000 C 
BRANCH  21  22
ATOM     22  C   UNL     1       5.928   3.147  22.520  0.00  0.00    +0.000 C 
BRANCH  22  23
ATOM     23  C   UNL     1       6.704   4.441  22.282  0.00  0.00    +0.000 C 
BRANCH  23  24
ATOM     24  C   UNL     1       5.976   5.640  22.888  0.00  0.00    -0.000 C 
BRANCH  24  25
ATOM     25  C   UNL     1       6.954   6.759  23.245  0.00  0.00    -0.000 C 
BRANCH  25  26
ATOM     26  C   UNL     1       8.367   6.429  22.763  0.00  0.00    -0.000 C 
BRANCH  26  27
ATOM     27  C   UNL     1       9.375   6.495  23.909  0.00  0.00    -0.003 C 
ATOM     28  C   UNL     1      10.363   5.342  23.838  0.00  0.00    +0.004 C 
ENDBRANCH  26  27
ENDBRANCH  25  26
ENDBRANCH  24  25
ENDBRANCH  23  24
ENDBRANCH  22  23
ENDBRANCH  21  22
ENDBRANCH  20  21
ENDBRANCH  19  20
ENDBRANCH  18  19
ENDBRANCH  16  18
ENDBRANCH  15  16
ENDBRANCH   1  15
BRANCH   1  29
ATOM     29  C   UNL     1       7.701  -1.914  24.284  0.00  0.00    +0.279 C 
BRANCH  29  30
ATOM     30  O   UNL     1       6.754  -0.876  23.985  0.00  0.00    -0.461 OA
BRANCH  30  31
ATOM     31  C   UNL     1       5.653  -0.850  24.785  0.00  0.00    +0.307 C 
ATOM     32  O   UNL     1       4.922  -1.814  24.973  0.00  0.00    -0.251 OA
BRANCH  31  33
ATOM     33  C   UNL     1       5.455   0.526  25.362  0.00  0.00    +0.120 C 
BRANCH  33  34
ATOM     34  C   UNL     1       5.900   0.566  26.816  0.00  0.00    +0.011 C 
BRANCH  34  35
ATOM     35  C   UNL     1       6.937   1.660  27.065  0.00  0.00    +0.001 C 
BRANCH  35  36
ATOM     36  C   UNL     1       7.587   2.083  25.747  0.00  0.00    +0.000 C 
BRANCH  36  37
ATOM     37  C   UNL     1       7.757   3.598  25.656  0.00  0.00    +0.000 C 
BRANCH  37  38
ATOM     38  C   UNL     1       7.274   4.277  26.939  0.00  0.00    +0.000 C 
BRANCH  38  39
ATOM     39  C   UNL     1       6.662   5.646  26.648  0.00  0.00    -0.000 C 
BRANCH  39  40
ATOM     40  C   UNL     1       5.136   5.571  26.590  0.00  0.00    -0.000 C 
BRANCH  40  41
ATOM     41  C   UNL     1       4.602   4.480  27.517  0.00  0.00    -0.000 C 
BRANCH  41  43
ATOM     42  C   UNL     1       3.638   3.729  25.311  0.00  0.00    +0.004 C 
ATOM     43  C   UNL     1       3.536   3.632  26.828  0.00  0.00    -0.003 C 
ENDBRANCH  41  43
ENDBRANCH  40  41
ENDBRANCH  39  40
ENDBRANCH  38  39
ENDBRANCH  37  38
ENDBRANCH  36  37
ENDBRANCH  35  36
ENDBRANCH  34  35
ENDBRANCH  33  34
ENDBRANCH  31  33
ENDBRANCH  30  31
ENDBRANCH  29  30
ENDBRANCH   1  29
TORSDOF 33
ENDMDL
MODEL 6
REMARK VINA RESULT:      -4.6      2.095      4.820
REMARK  Name = 
REMARK  38 active torsions:
REMARK  status: ('A' for Active; 'I' for Inactive)
REMARK    1  A    between atoms: C_1  and  C_2
REMARK    2  A    between atoms: C_2  and  C_3
REMARK    3  A    between atoms: C_3  and  C_4
REMARK    4  A    between atoms: C_4  and  C_5
REMARK    5  A    between atoms: C_5  and  C_6
REMARK    6  A    between atoms: C_6  and  C_7
REMARK    7  A    between atoms: C_7  and  C_8
REMARK    8  A    between atoms: C_8  and  C_9
REMARK    9  A    between atoms: C_9  and  C_10
REMARK   10  A    between atoms: C_10  and  C_11
REMARK   11  A    between atoms: C_11  and  C_12
REMARK   12  A    between atoms: C_12  and  O_14
REMARK   13  A    between atoms: O_14  and  C_15
REMARK   14  A    between atoms: C_15  and  C_16
REMARK   15  A    between atoms: C_16  and  C_18
REMARK   16  A    between atoms: C_16  and  O_30
REMARK   17  A    between atoms: C_18  and  O_19
REMARK   18  A    between atoms: O_19  and  P_20
REMARK   19  A    between atoms: P_20  and  O_21
REMARK   20  A    between atoms: P_20  and  O_23
REMARK   21  A    between atoms: O_23  and  C_24
REMARK   22  A    between atoms: C_24  and  C_25
REMARK   23  A    between atoms: C_25  and  N_26
REMARK   24  A    between atoms: N_26  and  C_27
REMARK   25  A    between atoms: N_26  and  C_28
REMARK   26  A    between atoms: N_26  and  C_29
REMARK   27  A    between atoms: O_30  and  C_31
REMARK   28  A    between atoms: C_31  and  C_33
REMARK   29  A    between atoms: C_33  and  C_34
REMARK   30  A    between atoms: C_34  and  C_35
REMARK   31  A    between atoms: C_35  and  C_36
REMARK   32  A    between atoms: C_36  and  C_37
REMARK   33  A    between atoms: C_37  and  C_38
REMARK   34  A    between atoms: C_38  and  C_39
REMARK   35  A    between atoms: C_39  and  C_40
REMARK   36  A    between atoms: C_40  and  C_41
REMARK   37  A    between atoms: C_41  and  C_42
REMARK   38  A    between atoms: C_42  and  C_43
REMARK                            x       y       z     vdW  Elec       q    Type
REMARK                         _______ _______ _______ _____ _____    ______ ____
ROOT
ATOM      1  C   UNL     1       8.363  -2.579  23.507  0.00  0.00    +0.240 C 
ENDROOT
BRANCH   1   2
ATOM      2  C   UNL     1       7.481  -3.070  22.364  0.00  0.00    +0.220 C 
BRANCH   2   3
ATOM      3  O   UNL     1       7.197  -4.466  22.504  0.00  0.00    -0.283 OA
BRANCH   3   4
ATOM      4  P   UNL     1       5.493  -4.757  22.594  0.00  0.00    +0.475 P 
ATOM      5  O   UNL     1       5.570  -5.761  21.444  0.00  0.00    -0.227 OA
BRANCH   4   6
ATOM      6  O   UNL     1       5.321  -3.317  21.833  0.00  0.00    -0.302 OA
ATOM      7  H   UNL     1       4.402  -3.031  22.024  0.00  0.00    +0.222 HD
ENDBRANCH   4   6
BRANCH   4   8
ATOM      8  O   UNL     1       3.789  -5.046  22.685  0.00  0.00    -0.281 OA
BRANCH   8   9
ATOM      9  C   UNL     1       3.229  -5.019  23.997  0.00  0.00    +0.223 C 
BRANCH   9  10
ATOM     10  C   UNL     1       4.237  -4.640  25.074  0.00  0.00    +0.161 C 
BRANCH  10  11
ATOM     11  N   UNL     1       4.535  -5.744  26.103  0.00  0.00    +0.239 N 
ATOM     12  C   UNL     1       3.707  -5.435  27.346  0.00  0.00    +0.192 C 
ATOM     13  C   UNL     1       6.012  -5.750  26.486  0.00  0.00    +0.192 C 
ATOM     14  C   UNL     1       4.153  -7.123  25.580  0.00  0.00    +0.192 C 
ENDBRANCH  10  11
ENDBRANCH   9  10
ENDBRANCH   8   9
ENDBRANCH   4   8
ENDBRANCH   3   4
ENDBRANCH   2   3
ENDBRANCH   1   2
BRANCH   1  15
ATOM     15  O   UNL     1       8.699  -1.199  23.238  0.00  0.00    -0.456 OA
BRANCH  15  16
ATOM     16  C   UNL     1       9.675  -0.991  22.313  0.00  0.00    +0.308 C 
ATOM     17  O   UNL     1      10.655  -1.699  22.136  0.00  0.00    -0.251 OA
BRANCH  16  18
ATOM     18  C   UNL     1       9.366   0.238  21.496  0.00  0.00    +0.120 C 
BRANCH  18  19
ATOM     19  C   UNL     1      10.111   1.461  22.022  0.00  0.00    +0.011 C 
BRANCH  19  20
ATOM     20  C   UNL     1      10.270   1.440  23.545  0.00  0.00    +0.001 C 
BRANCH  20  21
ATOM     21  C   UNL     1      10.218   2.853  24.126  0.00  0.00    +0.000 C 
BRANCH  21  22
ATOM     22  C   UNL     1       9.067   3.654  23.518  0.00  0.00    +0.000 C 
BRANCH  22  23
ATOM     23  C   UNL     1       8.946   5.030  24.170  0.00  0.00    +0.000 C 
BRANCH  23  24
ATOM     24  C   UNL     1       9.967   6.006  23.588  0.00  0.00    -0.000 C 
BRANCH  24  25
ATOM     25  C   UNL     1      10.953   6.478  24.657  0.00  0.00    -0.000 C 
BRANCH  25  26
ATOM     26  C   UNL     1      12.394   6.169  24.250  0.00  0.00    -0.000 C 
BRANCH  26  27
ATOM     27  C   UNL     1      12.443   5.269  23.017  0.00  0.00    -0.003 C 
ATOM     28  C   UNL     1      13.481   5.758  22.020  0.00  0.00    +0.004 C 
ENDBRANCH  26  27
ENDBRANCH  25  26
ENDBRANCH  24  25
ENDBRANCH  23  24
ENDBRANCH  22  23
ENDBRANCH  21  22
ENDBRANCH  20  21
ENDBRANCH  19  20
ENDBRANCH  18  19
ENDBRANCH  16  18
ENDBRANCH  15  16
ENDBRANCH   1  15
BRANCH   1  29
ATOM     29  C   UNL     1       7.588  -2.637  24.830  0.00  0.00    +0.279 C 
BRANCH  29  30
ATOM     30  O   UNL     1       8.454  -2.365  25.945  0.00  0.00    -0.461 OA
BRANCH  30  31
ATOM     31  C   UNL     1       8.244  -1.170  26.561  0.00  0.00    +0.307 C 
ATOM     32  O   UNL     1       9.040  -0.648  27.331  0.00  0.00    -0.251 OA
BRANCH  31  33
ATOM     33  C   UNL     1       6.894  -0.616  26.188  0.00  0.00    +0.120 C 
BRANCH  33  34
ATOM     34  C   UNL     1       6.827   0.876  26.484  0.00  0.00    +0.011 C 
BRANCH  34  35
ATOM     35  C   UNL     1       6.323   1.673  25.283  0.00  0.00    +0.001 C 
BRANCH  35  36
ATOM     36  C   UNL     1       6.669   0.948  23.982  0.00  0.00    +0.000 C 
BRANCH  36  37
ATOM     37  C   UNL     1       5.956   1.562  22.780  0.00  0.00    +0.000 C 
BRANCH  37  38
ATOM     38  C   UNL     1       5.944   3.088  22.877  0.00  0.00    +0.000 C 
BRANCH  38  39
ATOM     39  C   UNL     1       4.535   3.647  22.693  0.00  0.00    -0.000 C 
BRANCH  39  40
ATOM     40  C   UNL     1       4.278   4.826  23.633  0.00  0.00    -0.000 C 
BRANCH  40  41
ATOM     41  C   UNL     1       5.446   5.811  23.613  0.00  0.00    -0.000 C 
BRANCH  41  43
ATOM     42  C   UNL     1       6.771   7.059  21.866  0.00  0.00    +0.004 C 
ATOM     43  C   UNL     1       5.381   6.732  22.396  0.00  0.00    -0.003 C 
ENDBRANCH  41  43
ENDBRANCH  40  41
ENDBRANCH  39  40
ENDBRANCH  38  39
ENDBRANCH  37  38
ENDBRANCH  36  37
ENDBRANCH  35  36
ENDBRANCH  34  35
ENDBRANCH  33  34
ENDBRANCH  31  33
ENDBRANCH  30  31
ENDBRANCH  29  30
ENDBRANCH   1  29
TORSDOF 33
ENDMDL
MODEL 7
REMARK VINA RESULT:      -4.6      2.191      3.475
REMARK  Name = 
REMARK  38 active torsions:
REMARK  status: ('A' for Active; 'I' for Inactive)
REMARK    1  A    between atoms: C_1  and  C_2
REMARK    2  A    between atoms: C_2  and  C_3
REMARK    3  A    between atoms: C_3  and  C_4
REMARK    4  A    between atoms: C_4  and  C_5
REMARK    5  A    between atoms: C_5  and  C_6
REMARK    6  A    between atoms: C_6  and  C_7
REMARK    7  A    between atoms: C_7  and  C_8
REMARK    8  A    between atoms: C_8  and  C_9
REMARK    9  A    between atoms: C_9  and  C_10
REMARK   10  A    between atoms: C_10  and  C_11
REMARK   11  A    between atoms: C_11  and  C_12
REMARK   12  A    between atoms: C_12  and  O_14
REMARK   13  A    between atoms: O_14  and  C_15
REMARK   14  A    between atoms: C_15  and  C_16
REMARK   15  A    between atoms: C_16  and  C_18
REMARK   16  A    between atoms: C_16  and  O_30
REMARK   17  A    between atoms: C_18  and  O_19
REMARK   18  A    between atoms: O_19  and  P_20
REMARK   19  A    between atoms: P_20  and  O_21
REMARK   20  A    between atoms: P_20  and  O_23
REMARK   21  A    between atoms: O_23  and  C_24
REMARK   22  A    between atoms: C_24  and  C_25
REMARK   23  A    between atoms: C_25  and  N_26
REMARK   24  A    between atoms: N_26  and  C_27
REMARK   25  A    between atoms: N_26  and  C_28
REMARK   26  A    between atoms: N_26  and  C_29
REMARK   27  A    between atoms: O_30  and  C_31
REMARK   28  A    between atoms: C_31  and  C_33
REMARK   29  A    between atoms: C_33  and  C_34
REMARK   30  A    between atoms: C_34  and  C_35
REMARK   31  A    between atoms: C_35  and  C_36
REMARK   32  A    between atoms: C_36  and  C_37
REMARK   33  A    between atoms: C_37  and  C_38
REMARK   34  A    between atoms: C_38  and  C_39
REMARK   35  A    between atoms: C_39  and  C_40
REMARK   36  A    between atoms: C_40  and  C_41
REMARK   37  A    between atoms: C_41  and  C_42
REMARK   38  A    between atoms: C_42  and  C_43
REMARK                            x       y       z     vdW  Elec       q    Type
REMARK                         _______ _______ _______ _____ _____    ______ ____
ROOT
ATOM      1  C   UNL     1       8.134  -3.495  24.016  0.00  0.00    +0.240 C 
ENDROOT
BRANCH   1   2
ATOM      2  C   UNL     1       8.009  -4.889  23.410  0.00  0.00    +0.220 C 
BRANCH   2   3
ATOM      3  O   UNL     1       7.226  -4.854  22.212  0.00  0.00    -0.283 OA
BRANCH   3   4
ATOM      4  P   UNL     1       5.546  -4.629  22.562  0.00  0.00    +0.475 P 
ATOM      5  O   UNL     1       5.182  -5.901  21.796  0.00  0.00    -0.227 OA
BRANCH   4   6
ATOM      6  O   UNL     1       5.573  -3.477  21.399  0.00  0.00    -0.302 OA
ATOM      7  H   UNL     1       5.492  -3.963  20.550  0.00  0.00    +0.222 HD
ENDBRANCH   4   6
BRANCH   4   8
ATOM      8  O   UNL     1       3.867  -4.403  22.913  0.00  0.00    -0.281 OA
BRANCH   8   9
ATOM      9  C   UNL     1       3.155  -5.577  23.303  0.00  0.00    +0.223 C 
BRANCH   9  10
ATOM     10  C   UNL     1       2.561  -5.483  24.702  0.00  0.00    +0.161 C 
BRANCH  10  11
ATOM     11  N   UNL     1       3.455  -6.033  25.826  0.00  0.00    +0.239 N 
ATOM     12  C   UNL     1       4.258  -7.188  25.237  0.00  0.00    +0.192 C 
ATOM     13  C   UNL     1       2.613  -6.561  26.985  0.00  0.00    +0.192 C 
ATOM     14  C   UNL     1       4.417  -4.976  26.353  0.00  0.00    +0.192 C 
ENDBRANCH  10  11
ENDBRANCH   9  10
ENDBRANCH   8   9
ENDBRANCH   4   8
ENDBRANCH   3   4
ENDBRANCH   2   3
ENDBRANCH   1   2
BRANCH   1  15
ATOM     15  O   UNL     1       8.884  -3.619  25.246  0.00  0.00    -0.456 OA
BRANCH  15  16
ATOM     16  C   UNL     1       8.150  -3.672  26.391  0.00  0.00    +0.308 C 
ATOM     17  O   UNL     1       8.124  -4.603  27.182  0.00  0.00    -0.251 OA
BRANCH  16  18
ATOM     18  C   UNL     1       7.379  -2.389  26.575  0.00  0.00    +0.120 C 
BRANCH  18  19
ATOM     19  C   UNL     1       8.313  -1.200  26.775  0.00  0.00    +0.011 C 
BRANCH  19  20
ATOM     20  C   UNL     1       7.731   0.102  26.216  0.00  0.00    +0.001 C 
BRANCH  20  21
ATOM     21  C   UNL     1       6.740  -0.175  25.087  0.00  0.00    +0.000 C 
BRANCH  21  22
ATOM     22  C   UNL     1       5.388   0.479  25.370  0.00  0.00    +0.000 C 
BRANCH  22  23
ATOM     23  C   UNL     1       5.458   1.387  26.597  0.00  0.00    +0.000 C 
BRANCH  23  24
ATOM     24  C   UNL     1       5.098   2.828  26.237  0.00  0.00    -0.000 C 
BRANCH  24  25
ATOM     25  C   UNL     1       4.319   2.891  24.923  0.00  0.00    -0.000 C 
BRANCH  25  26
ATOM     26  C   UNL     1       3.754   4.291  24.686  0.00  0.00    -0.000 C 
BRANCH  26  27
ATOM     27  C   UNL     1       3.761   4.650  23.201  0.00  0.00    -0.003 C 
ATOM     28  C   UNL     1       3.168   3.531  22.361  0.00  0.00    +0.004 C 
ENDBRANCH  26  27
ENDBRANCH  25  26
ENDBRANCH  24  25
ENDBRANCH  23  24
ENDBRANCH  22  23
ENDBRANCH  21  22
ENDBRANCH  20  21
ENDBRANCH  19  20
ENDBRANCH  18  19
ENDBRANCH  16  18
ENDBRANCH  15  16
ENDBRANCH   1  15
BRANCH   1  29
ATOM     29  C   UNL     1       8.914  -2.577  23.066  0.00  0.00    +0.279 C 
BRANCH  29  30
ATOM     30  O   UNL     1      10.061  -2.013  23.723  0.00  0.00    -0.461 OA
BRANCH  30  31
ATOM     31  C   UNL     1      10.192  -0.664  23.599  0.00  0.00    +0.307 C 
ATOM     32  O   UNL     1      10.862   0.030  24.352  0.00  0.00    -0.251 OA
BRANCH  31  33
ATOM     33  C   UNL     1       9.374  -0.161  22.439  0.00  0.00    +0.120 C 
BRANCH  33  34
ATOM     34  C   UNL     1       9.935   1.155  21.919  0.00  0.00    +0.011 C 
BRANCH  34  35
ATOM     35  C   UNL     1       8.906   2.281  21.989  0.00  0.00    +0.001 C 
BRANCH  35  36
ATOM     36  C   UNL     1       8.432   2.477  23.429  0.00  0.00    +0.000 C 
BRANCH  36  37
ATOM     37  C   UNL     1       7.472   3.658  23.558  0.00  0.00    +0.000 C 
BRANCH  37  38
ATOM     38  C   UNL     1       7.210   4.296  22.194  0.00  0.00    +0.000 C 
BRANCH  38  39
ATOM     39  C   UNL     1       7.323   5.818  22.259  0.00  0.00    -0.000 C 
BRANCH  39  40
ATOM     40  C   UNL     1       7.497   6.300  23.700  0.00  0.00    -0.000 C 
BRANCH  40  41
ATOM     41  C   UNL     1       8.806   7.071  23.869  0.00  0.00    -0.000 C 
BRANCH  41  43
ATOM     42  C   UNL     1      10.934   5.724  23.741  0.00  0.00    +0.004 C 
ATOM     43  C   UNL     1       9.836   6.260  24.651  0.00  0.00    -0.003 C 
ENDBRANCH  41  43
ENDBRANCH  40  41
ENDBRANCH  39  40
ENDBRANCH  38  39
ENDBRANCH  37  38
ENDBRANCH  36  37
ENDBRANCH  35  36
ENDBRANCH  34  35
ENDBRANCH  33  34
ENDBRANCH  31  33
ENDBRANCH  30  31
ENDBRANCH  29  30
ENDBRANCH   1  29
TORSDOF 33
ENDMDL
MODEL 8
REMARK VINA RESULT:      -4.6      2.398      6.826
REMARK  Name = 
REMARK  38 active torsions:
REMARK  status: ('A' for Active; 'I' for Inactive)
REMARK    1  A    between atoms: C_1  and  C_2
REMARK    2  A    between atoms: C_2  and  C_3
REMARK    3  A    between atoms: C_3  and  C_4
REMARK    4  A    between atoms: C_4  and  C_5
REMARK    5  A    between atoms: C_5  and  C_6
REMARK    6  A    between atoms: C_6  and  C_7
REMARK    7  A    between atoms: C_7  and  C_8
REMARK    8  A    between atoms: C_8  and  C_9
REMARK    9  A    between atoms: C_9  and  C_10
REMARK   10  A    between atoms: C_10  and  C_11
REMARK   11  A    between atoms: C_11  and  C_12
REMARK   12  A    between atoms: C_12  and  O_14
REMARK   13  A    between atoms: O_14  and  C_15
REMARK   14  A    between atoms: C_15  and  C_16
REMARK   15  A    between atoms: C_16  and  C_18
REMARK   16  A    between atoms: C_16  and  O_30
REMARK   17  A    between atoms: C_18  and  O_19
REMARK   18  A    between atoms: O_19  and  P_20
REMARK   19  A    between atoms: P_20  and  O_21
REMARK   20  A    between atoms: P_20  and  O_23
REMARK   21  A    between atoms: O_23  and  C_24
REMARK   22  A    between atoms: C_24  and  C_25
REMARK   23  A    between atoms: C_25  and  N_26
REMARK   24  A    between atoms: N_26  and  C_27
REMARK   25  A    between atoms: N_26  and  C_28
REMARK   26  A    between atoms: N_26  and  C_29
REMARK   27  A    between atoms: O_30  and  C_31
REMARK   28  A    between atoms: C_31  and  C_33
REMARK   29  A    between atoms: C_33  and  C_34
REMARK   30  A    between atoms: C_34  and  C_35
REMARK   31  A    between atoms: C_35  and  C_36
REMARK   32  A    between atoms: C_36  and  C_37
REMARK   33  A    between atoms: C_37  and  C_38
REMARK   34  A    between atoms: C_38  and  C_39
REMARK   35  A    between atoms: C_39  and  C_40
REMARK   36  A    between atoms: C_40  and  C_41
REMARK   37  A    between atoms: C_41  and  C_42
REMARK   38  A    between atoms: C_42  and  C_43
REMARK                            x       y       z     vdW  Elec       q    Type
REMARK                         _______ _______ _______ _____ _____    ______ ____
ROOT
ATOM      1  C   UNL     1       9.344  -1.994  25.133  0.00  0.00    +0.240 C 
ENDROOT
BRANCH   1   2
ATOM      2  C   UNL     1       8.354  -0.989  25.713  0.00  0.00    +0.220 C 
BRANCH   2   3
ATOM      3  O   UNL     1       7.006  -1.399  25.460  0.00  0.00    -0.283 OA
BRANCH   3   4
ATOM      4  P   UNL     1       6.015  -0.056  25.002  0.00  0.00    +0.475 P 
ATOM      5  O   UNL     1       4.743  -0.845  25.316  0.00  0.00    -0.227 OA
BRANCH   4   6
ATOM      6  O   UNL     1       6.353  -0.478  23.456  0.00  0.00    -0.302 OA
ATOM      7  H   UNL     1       7.231  -0.916  23.492  0.00  0.00    +0.222 HD
ENDBRANCH   4   6
BRANCH   4   8
ATOM      8  O   UNL     1       5.025   1.287  24.542  0.00  0.00    -0.281 OA
BRANCH   8   9
ATOM      9  C   UNL     1       4.731   2.220  25.582  0.00  0.00    +0.223 C 
BRANCH   9  10
ATOM     10  C   UNL     1       5.925   2.517  26.478  0.00  0.00    +0.161 C 
BRANCH  10  11
ATOM     11  N   UNL     1       5.667   2.342  27.984  0.00  0.00    +0.239 N 
ATOM     12  C   UNL     1       6.732   1.388  28.515  0.00  0.00    +0.192 C 
ATOM     13  C   UNL     1       4.291   1.729  28.236  0.00  0.00    +0.192 C 
ATOM     14  C   UNL     1       5.765   3.665  28.734  0.00  0.00    +0.192 C 
ENDBRANCH  10  11
ENDBRANCH   9  10
ENDBRANCH   8   9
ENDBRANCH   4   8
ENDBRANCH   3   4
ENDBRANCH   2   3
ENDBRANCH   1   2
BRANCH   1  15
ATOM     15  O   UNL     1       8.615  -3.207  24.840  0.00  0.00    -0.456 OA
BRANCH  15  16
ATOM     16  C   UNL     1       9.157  -4.360  25.316  0.00  0.00    +0.308 C 
ATOM     17  O   UNL     1      10.211  -4.860  24.950  0.00  0.00    -0.251 OA
BRANCH  16  18
ATOM     18  C   UNL     1       8.283  -4.938  26.400  0.00  0.00    +0.120 C 
BRANCH  18  19
ATOM     19  C   UNL     1       6.954  -5.434  25.842  0.00  0.00    +0.011 C 
BRANCH  19  20
ATOM     20  C   UNL     1       5.799  -5.259  26.834  0.00  0.00    +0.001 C 
BRANCH  20  21
ATOM     21  C   UNL     1       4.699  -6.291  26.589  0.00  0.00    +0.000 C 
BRANCH  21  22
ATOM     22  C   UNL     1       3.353  -5.610  26.341  0.00  0.00    +0.000 C 
BRANCH  22  23
ATOM     23  C   UNL     1       3.528  -4.303  25.569  0.00  0.00    +0.000 C 
BRANCH  23  24
ATOM     24  C   UNL     1       3.161  -4.481  24.096  0.00  0.00    -0.000 C 
BRANCH  24  25
ATOM     25  C   UNL     1       4.406  -4.447  23.209  0.00  0.00    -0.000 C 
BRANCH  25  26
ATOM     26  C   UNL     1       4.864  -5.860  22.849  0.00  0.00    -0.000 C 
BRANCH  26  27
ATOM     27  C   UNL     1       5.901  -5.841  21.728  0.00  0.00    -0.003 C 
ATOM     28  C   UNL     1       7.196  -5.193  22.188  0.00  0.00    +0.004 C 
ENDBRANCH  26  27
ENDBRANCH  25  26
ENDBRANCH  24  25
ENDBRANCH  23  24
ENDBRANCH  22  23
ENDBRANCH  21  22
ENDBRANCH  20  21
ENDBRANCH  19  20
ENDBRANCH  18  19
ENDBRANCH  16  18
ENDBRANCH  15  16
ENDBRANCH   1  15
BRANCH   1  29
ATOM     29  C   UNL     1       9.931  -1.455  23.821  0.00  0.00    +0.279 C 
BRANCH  29  30
ATOM     30  O   UNL     1       9.501  -0.105  23.582  0.00  0.00    -0.461 OA
BRANCH  30  31
ATOM     31  C   UNL     1       9.387   0.241  22.272  0.00  0.00    +0.307 C 
ATOM     32  O   UNL     1       8.902  -0.483  21.412  0.00  0.00    -0.251 OA
BRANCH  31  33
ATOM     33  C   UNL     1       9.971   1.609  22.036  0.00  0.00    +0.120 C 
BRANCH  33  34
ATOM     34  C   UNL     1       9.259   2.649  22.890  0.00  0.00    +0.011 C 
BRANCH  34  35
ATOM     35  C   UNL     1       7.919   3.064  22.284  0.00  0.00    +0.001 C 
BRANCH  35  36
ATOM     36  C   UNL     1       7.213   4.066  23.197  0.00  0.00    +0.000 C 
BRANCH  36  37
ATOM     37  C   UNL     1       7.028   5.422  22.519  0.00  0.00    +0.000 C 
BRANCH  37  38
ATOM     38  C   UNL     1       8.190   6.359  22.854  0.00  0.00    +0.000 C 
BRANCH  38  39
ATOM     39  C   UNL     1       8.439   6.421  24.360  0.00  0.00    -0.000 C 
BRANCH  39  40
ATOM     40  C   UNL     1       9.886   6.061  24.698  0.00  0.00    -0.000 C 
BRANCH  40  41
ATOM     41  C   UNL     1      10.754   6.028  23.440  0.00  0.00    -0.000 C 
BRANCH  41  43
ATOM     42  C   UNL     1      13.013   5.409  22.504  0.00  0.00    +0.004 C 
ATOM     43  C   UNL     1      12.049   5.252  23.673  0.00  0.00    -0.003 C 
ENDBRANCH  41  43
ENDBRANCH  40  41
ENDBRANCH  39  40
ENDBRANCH  38  39
ENDBRANCH  37  38
ENDBRANCH  36  37
ENDBRANCH  35  36
ENDBRANCH  34  35
ENDBRANCH  33  34
ENDBRANCH  31  33
ENDBRANCH  30  31
ENDBRANCH  29  30
ENDBRANCH   1  29
TORSDOF 33
ENDMDL
MODEL 9
REMARK VINA RESULT:      -4.6      3.225      9.284
REMARK  Name = 
REMARK  38 active torsions:
REMARK  status: ('A' for Active; 'I' for Inactive)
REMARK    1  A    between atoms: C_1  and  C_2
REMARK    2  A    between atoms: C_2  and  C_3
REMARK    3  A    between atoms: C_3  and  C_4
REMARK    4  A    between atoms: C_4  and  C_5
REMARK    5  A    between atoms: C_5  and  C_6
REMARK    6  A    between atoms: C_6  and  C_7
REMARK    7  A    between atoms: C_7  and  C_8
REMARK    8  A    between atoms: C_8  and  C_9
REMARK    9  A    between atoms: C_9  and  C_10
REMARK   10  A    between atoms: C_10  and  C_11
REMARK   11  A    between atoms: C_11  and  C_12
REMARK   12  A    between atoms: C_12  and  O_14
REMARK   13  A    between atoms: O_14  and  C_15
REMARK   14  A    between atoms: C_15  and  C_16
REMARK   15  A    between atoms: C_16  and  C_18
REMARK   16  A    between atoms: C_16  and  O_30
REMARK   17  A    between atoms: C_18  and  O_19
REMARK   18  A    between atoms: O_19  and  P_20
REMARK   19  A    between atoms: P_20  and  O_21
REMARK   20  A    between atoms: P_20  and  O_23
REMARK   21  A    between atoms: O_23  and  C_24
REMARK   22  A    between atoms: C_24  and  C_25
REMARK   23  A    between atoms: C_25  and  N_26
REMARK   24  A    between atoms: N_26  and  C_27
REMARK   25  A    between atoms: N_26  and  C_28
REMARK   26  A    between atoms: N_26  and  C_29
REMARK   27  A    between atoms: O_30  and  C_31
REMARK   28  A    between atoms: C_31  and  C_33
REMARK   29  A    between atoms: C_33  and  C_34
REMARK   30  A    between atoms: C_34  and  C_35
REMARK   31  A    between atoms: C_35  and  C_36
REMARK   32  A    between atoms: C_36  and  C_37
REMARK   33  A    between atoms: C_37  and  C_38
REMARK   34  A    between atoms: C_38  and  C_39
REMARK   35  A    between atoms: C_39  and  C_40
REMARK   36  A    between atoms: C_40  and  C_41
REMARK   37  A    between atoms: C_41  and  C_42
REMARK   38  A    between atoms: C_42  and  C_43
REMARK                            x       y       z     vdW  Elec       q    Type
REMARK                         _______ _______ _______ _____ _____    ______ ____
ROOT
ATOM      1  C   UNL     1       9.454  -2.396  23.415  0.00  0.00    +0.240 C 
ENDROOT
BRANCH   1   2
ATOM      2  C   UNL     1      10.067  -1.030  23.707  0.00  0.00    +0.220 C 
BRANCH   2   3
ATOM      3  O   UNL     1      10.143  -0.241  22.515  0.00  0.00    -0.283 OA
BRANCH   3   4
ATOM      4  P   UNL     1       9.897   1.438  22.854  0.00  0.00    +0.475 P 
ATOM      5  O   UNL     1       8.620   1.128  23.635  0.00  0.00    -0.227 OA
BRANCH   4   6
ATOM      6  O   UNL     1       9.378   1.560  21.306  0.00  0.00    -0.302 OA
ATOM      7  H   UNL     1      10.154   1.876  20.796  0.00  0.00    +0.222 HD
ENDBRANCH   4   6
BRANCH   4   8
ATOM      8  O   UNL     1       9.652   3.118  23.193  0.00  0.00    -0.281 OA
BRANCH   8   9
ATOM      9  C   UNL     1       8.953   3.407  24.403  0.00  0.00    +0.223 C 
BRANCH   9  10
ATOM     10  C   UNL     1       8.633   4.885  24.574  0.00  0.00    +0.161 C 
BRANCH  10  11
ATOM     11  N   UNL     1       7.341   5.355  23.883  0.00  0.00    +0.239 N 
ATOM     12  C   UNL     1       7.749   6.022  22.573  0.00  0.00    +0.192 C 
ATOM     13  C   UNL     1       6.600   6.376  24.743  0.00  0.00    +0.192 C 
ATOM     14  C   UNL     1       6.406   4.191  23.578  0.00  0.00    +0.192 C 
ENDBRANCH  10  11
ENDBRANCH   9  10
ENDBRANCH   8   9
ENDBRANCH   4   8
ENDBRANCH   3   4
ENDBRANCH   2   3
ENDBRANCH   1   2
BRANCH   1  15
ATOM     15  O   UNL     1       8.789  -2.843  24.618  0.00  0.00    -0.456 OA
BRANCH  15  16
ATOM     16  C   UNL     1       9.261  -3.994  25.169  0.00  0.00    +0.308 C 
ATOM     17  O   UNL     1      10.120  -4.718  24.688  0.00  0.00    -0.251 OA
BRANCH  16  18
ATOM     18  C   UNL     1       8.591  -4.250  26.496  0.00  0.00    +0.120 C 
BRANCH  18  19
ATOM     19  C   UNL     1       7.165  -4.758  26.313  0.00  0.00    +0.011 C 
BRANCH  19  20
ATOM     20  C   UNL     1       6.118  -3.758  26.814  0.00  0.00    +0.001 C 
BRANCH  20  21
ATOM     21  C   UNL     1       5.409  -3.069  25.650  0.00  0.00    +0.000 C 
BRANCH  21  22
ATOM     22  C   UNL     1       3.910  -2.936  25.920  0.00  0.00    +0.000 C 
BRANCH  22  23
ATOM     23  C   UNL     1       3.646  -2.118  27.184  0.00  0.00    +0.000 C 
BRANCH  23  24
ATOM     24  C   UNL     1       4.157  -0.686  27.029  0.00  0.00    -0.000 C 
BRANCH  24  25
ATOM     25  C   UNL     1       4.889  -0.220  28.287  0.00  0.00    -0.000 C 
BRANCH  25  26
ATOM     26  C   UNL     1       6.083   0.667  27.932  0.00  0.00    -0.000 C 
BRANCH  26  27
ATOM     27  C   UNL     1       6.799   0.161  26.682  0.00  0.00    -0.003 C 
ATOM     28  C   UNL     1       8.107  -0.526  27.037  0.00  0.00    +0.004 C 
ENDBRANCH  26  27
ENDBRANCH  25  26
ENDBRANCH  24  25
ENDBRANCH  23  24
ENDBRANCH  22  23
ENDBRANCH  21  22
ENDBRANCH  20  21
ENDBRANCH  19  20
ENDBRANCH  18  19
ENDBRANCH  16  18
ENDBRANCH  15  16
ENDBRANCH   1  15
BRANCH   1  29
ATOM     29  C   UNL     1       8.406  -2.274  22.302  0.00  0.00    +0.279 C 
BRANCH  29  30
ATOM     30  O   UNL     1       7.102  -2.643  22.781  0.00  0.00    -0.461 OA
BRANCH  30  31
ATOM     31  C   UNL     1       6.466  -3.597  22.048  0.00  0.00    +0.307 C 
ATOM     32  O   UNL     1       5.629  -3.355  21.189  0.00  0.00    -0.251 OA
BRANCH  31  33
ATOM     33  C   UNL     1       6.912  -4.971  22.474  0.00  0.00    +0.120 C 
BRANCH  33  34
ATOM     34  C   UNL     1       5.784  -5.978  22.301  0.00  0.00    +0.011 C 
BRANCH  34  35
ATOM     35  C   UNL     1       4.686  -5.789  23.346  0.00  0.00    +0.001 C 
BRANCH  35  36
ATOM     36  C   UNL     1       4.819  -6.839  24.449  0.00  0.00    +0.000 C 
BRANCH  36  37
ATOM     37  C   UNL     1       3.457  -7.287  24.976  0.00  0.00    +0.000 C 
BRANCH  37  38
ATOM     38  C   UNL     1       2.427  -6.165  24.843  0.00  0.00    +0.000 C 
BRANCH  38  39
ATOM     39  C   UNL     1       1.703  -5.914  26.164  0.00  0.00    -0.000 C 
BRANCH  39  40
ATOM     40  C   UNL     1       2.425  -6.589  27.330  0.00  0.00    -0.000 C 
BRANCH  40  41
ATOM     41  C   UNL     1       2.677  -5.600  28.468  0.00  0.00    -0.000 C 
BRANCH  41  43
ATOM     42  C   UNL     1       4.846  -6.885  28.375  0.00  0.00    +0.004 C 
ATOM     43  C   UNL     1       4.107  -5.705  28.995  0.00  0.00    -0.003 C 
ENDBRANCH  41  43
ENDBRANCH  40  41
ENDBRANCH  39  40
ENDBRANCH  38  39
ENDBRANCH  37  38
ENDBRANCH  36  37
ENDBRANCH  35  36
ENDBRANCH  34  35
ENDBRANCH  33  34
ENDBRANCH  31  33
ENDBRANCH  30  31
ENDBRANCH  29  30
ENDBRANCH   1  29
TORSDOF 33
ENDMDL
