MODEL 1
REMARK VINA RESULT:      -5.6      0.000      0.000
REMARK  Name = 
REMARK  6 active torsions:
REMARK  status: ('A' for Active; 'I' for Inactive)
REMARK    1  A    between atoms: C_1  and  C_2
REMARK    2  A    between atoms: C_2  and  O_3
REMARK    3  A    between atoms: O_3  and  C_4
REMARK    4  A    between atoms: C_4  and  N_6
REMARK    5  A    between atoms: N_6  and  C_7
REMARK    6  A    between atoms: N_9  and  N_12
REMARK                            x       y       z     vdW  Elec       q    Type
REMARK                         _______ _______ _______ _____ _____    ______ ____
ROOT
ATOM      1  C   UNL     1       9.388  -1.314  22.257  0.00  0.00    +0.132 A 
ATOM      2  O   UNL     1      10.581  -1.909  22.592  0.00  0.00    -0.322 OA
ATOM      3  N   UNL     1      10.344  -2.843  23.619  0.00  0.00    +0.229 NA
ATOM      4  N   UNL     1       9.053  -2.725  23.879  0.00  0.00    +0.060 N 
ATOM      5  C   UNL     1       8.421  -1.768  23.122  0.00  0.00    +0.401 A 
ENDROOT
BRANCH   4   6
ATOM      6  N   UNL     1       8.352  -3.686  24.684  0.00  0.00    -0.106 N 
ATOM      7  C   UNL     1       7.362  -4.528  24.015  0.00  0.00    +0.201 C 
ATOM      8  C   UNL     1       6.415  -5.078  25.086  0.00  0.00    +0.184 C 
ATOM      9  O   UNL     1       7.143  -5.810  26.079  0.00  0.00    -0.376 OA
ATOM     10  C   UNL     1       8.123  -4.985  26.718  0.00  0.00    +0.184 C 
ATOM     11  C   UNL     1       9.113  -4.424  25.692  0.00  0.00    +0.201 C 
ENDBRANCH   4   6
BRANCH   1  12
ATOM     12  N   UNL     1       9.213  -0.484  21.209  0.00  0.00    -0.543 NA
BRANCH  12  13
ATOM     13  C   UNL     1       9.016   0.800  21.535  0.00  0.00    +0.230 C 
ATOM     14  O   UNL     1       7.959   1.425  21.565  0.00  0.00    -0.272 OA
BRANCH  13  15
ATOM     15  O   UNL     1      10.218   1.374  21.849  0.00  0.00    -0.478 OA
BRANCH  15  17
ATOM     16  C   UNL     1      10.665   1.409  24.247  0.00  0.00    +0.048 C 
ATOM     17  C   UNL     1      10.233   2.198  23.024  0.00  0.00    +0.227 C 
ENDBRANCH  15  17
ENDBRANCH  13  15
ENDBRANCH  12  13
ENDBRANCH   1  12
TORSDOF 5
ENDMDL
MODEL 2
REMARK VINA RESULT:      -5.6      2.021      6.414
REMARK  Name = 
REMARK  6 active torsions:
REMARK  status: ('A' for Active; 'I' for Inactive)
REMARK    1  A    between atoms: C_1  and  C_2
REMARK    2  A    between atoms: C_2  and  O_3
REMARK    3  A    between atoms: O_3  and  C_4
REMARK    4  A    between atoms: C_4  and  N_6
REMARK    5  A    between atoms: N_6  and  C_7
REMARK    6  A    between atoms: N_9  and  N_12
REMARK                            x       y       z     vdW  Elec       q    Type
REMARK                         _______ _______ _______ _____ _____    ______ ____
ROOT
ATOM      1  C   UNL     1       9.227  -3.343  24.563  0.00  0.00    +0.132 A 
ATOM      2  O   UNL     1       8.777  -2.684  25.682  0.00  0.00    -0.322 OA
ATOM      3  N   UNL     1       9.018  -1.306  25.517  0.00  0.00    +0.229 NA
ATOM      4  N   UNL     1       9.636  -1.217  24.351  0.00  0.00    +0.060 N 
ATOM      5  C   UNL     1       9.846  -2.431  23.743  0.00  0.00    +0.401 A 
ENDROOT
BRANCH   4   6
ATOM      6  N   UNL     1       9.824   0.043  23.689  0.00  0.00    -0.106 N 
ATOM      7  C   UNL     1      10.774   0.980  24.287  0.00  0.00    +0.201 C 
ATOM      8  C   UNL     1      10.449   2.379  23.755  0.00  0.00    +0.184 C 
ATOM      9  O   UNL     1      10.515   2.405  22.324  0.00  0.00    -0.376 OA
ATOM     10  C   UNL     1       9.594   1.473  21.745  0.00  0.00    +0.184 C 
ATOM     11  C   UNL     1       9.889   0.049  22.228  0.00  0.00    +0.201 C 
ENDBRANCH   4   6
BRANCH   1  12
ATOM     12  N   UNL     1       9.019  -4.651  24.310  0.00  0.00    -0.543 NA
BRANCH  12  13
ATOM     13  C   UNL     1       7.732  -5.003  24.190  0.00  0.00    +0.230 C 
ATOM     14  O   UNL     1       6.980  -5.445  25.056  0.00  0.00    -0.272 OA
BRANCH  13  15
ATOM     15  O   UNL     1       7.328  -4.802  22.899  0.00  0.00    -0.478 OA
BRANCH  15  17
ATOM     16  C   UNL     1       6.241  -5.702  20.909  0.00  0.00    +0.048 C 
ATOM     17  C   UNL     1       7.118  -5.986  22.115  0.00  0.00    +0.227 C 
ENDBRANCH  15  17
ENDBRANCH  13  15
ENDBRANCH  12  13
ENDBRANCH   1  12
TORSDOF 5
ENDMDL
MODEL 3
REMARK VINA RESULT:      -5.5      2.228      2.909
REMARK  Name = 
REMARK  6 active torsions:
REMARK  status: ('A' for Active; 'I' for Inactive)
REMARK    1  A    between atoms: C_1  and  C_2
REMARK    2  A    between atoms: C_2  and  O_3
REMARK    3  A    between atoms: O_3  and  C_4
REMARK    4  A    between atoms: C_4  and  N_6
REMARK    5  A    between atoms: N_6  and  C_7
REMARK    6  A    between atoms: N_9  and  N_12
REMARK                            x       y       z     vdW  Elec       q    Type
REMARK                         _______ _______ _______ _____ _____    ______ ____
ROOT
ATOM      1  C   UNL     1       9.732  -2.087  23.407  0.00  0.00    +0.132 A 
ATOM      2  O   UNL     1      10.133  -3.210  24.091  0.00  0.00    -0.322 OA
ATOM      3  N   UNL     1       9.081  -4.146  24.072  0.00  0.00    +0.229 NA
ATOM      4  N   UNL     1       8.102  -3.528  23.433  0.00  0.00    +0.060 N 
ATOM      5  C   UNL     1       8.414  -2.246  23.051  0.00  0.00    +0.401 A 
ENDROOT
BRANCH   4   6
ATOM      6  N   UNL     1       6.939  -4.231  22.969  0.00  0.00    -0.106 N 
ATOM      7  C   UNL     1       7.155  -5.484  22.249  0.00  0.00    +0.201 C 
ATOM      8  C   UNL     1       5.892  -5.779  21.433  0.00  0.00    +0.184 C 
ATOM      9  O   UNL     1       4.743  -5.854  22.286  0.00  0.00    -0.376 OA
ATOM     10  C   UNL     1       4.547  -4.629  23.002  0.00  0.00    +0.184 C 
ATOM     11  C   UNL     1       5.777  -4.297  23.854  0.00  0.00    +0.201 C 
ENDBRANCH   4   6
BRANCH   1  12
ATOM     12  N   UNL     1      10.538  -1.053  23.094  0.00  0.00    -0.543 NA
BRANCH  12  13
ATOM     13  C   UNL     1      10.377   0.036  23.858  0.00  0.00    +0.230 C 
ATOM     14  O   UNL     1      10.170   0.093  25.068  0.00  0.00    -0.272 OA
BRANCH  13  15
ATOM     15  O   UNL     1      10.474   1.154  23.076  0.00  0.00    -0.478 OA
BRANCH  15  17
ATOM     16  C   UNL     1       8.497   1.949  21.888  0.00  0.00    +0.048 C 
ATOM     17  C   UNL     1       9.762   1.112  21.830  0.00  0.00    +0.227 C 
ENDBRANCH  15  17
ENDBRANCH  13  15
ENDBRANCH  12  13
ENDBRANCH   1  12
TORSDOF 5
ENDMDL
MODEL 4
REMARK VINA RESULT:      -5.5      2.425      6.364
REMARK  Name = 
REMARK  6 active torsions:
REMARK  status: ('A' for Active; 'I' for Inactive)
REMARK    1  A    between atoms: C_1  and  C_2
REMARK    2  A    between atoms: C_2  and  O_3
REMARK    3  A    between atoms: O_3  and  C_4
REMARK    4  A    between atoms: C_4  and  N_6
REMARK    5  A    between atoms: N_6  and  C_7
REMARK    6  A    between atoms: N_9  and  N_12
REMARK                            x       y       z     vdW  Elec       q    Type
REMARK                         _______ _______ _______ _____ _____    ______ ____
ROOT
ATOM      1  C   UNL     1       7.888  -4.041  23.327  0.00  0.00    +0.132 A 
ATOM      2  O   UNL     1       9.058  -4.197  24.031  0.00  0.00    -0.322 OA
ATOM      3  N   UNL     1       9.819  -3.018  23.904  0.00  0.00    +0.229 NA
ATOM      4  N   UNL     1       9.102  -2.249  23.102  0.00  0.00    +0.060 N 
ATOM      5  C   UNL     1       7.938  -2.837  22.667  0.00  0.00    +0.401 A 
ENDROOT
BRANCH   4   6
ATOM      6  N   UNL     1       9.398  -0.855  22.926  0.00  0.00    -0.106 N 
ATOM      7  C   UNL     1      10.384  -0.260  23.827  0.00  0.00    +0.201 C 
ATOM      8  C   UNL     1      10.172   1.257  23.816  0.00  0.00    +0.184 C 
ATOM      9  O   UNL     1      10.293   1.777  22.486  0.00  0.00    -0.376 OA
ATOM     10  C   UNL     1       9.336   1.177  21.606  0.00  0.00    +0.184 C 
ATOM     11  C   UNL     1       9.518  -0.344  21.562  0.00  0.00    +0.201 C 
ENDBRANCH   4   6
BRANCH   1  12
ATOM     12  N   UNL     1       6.856  -4.908  23.355  0.00  0.00    -0.543 NA
BRANCH  12  13
ATOM     13  C   UNL     1       6.454  -5.343  22.152  0.00  0.00    +0.230 C 
ATOM     14  O   UNL     1       7.118  -5.910  21.287  0.00  0.00    -0.272 OA
BRANCH  13  15
ATOM     15  O   UNL     1       5.127  -5.055  21.991  0.00  0.00    -0.478 OA
BRANCH  15  17
ATOM     16  C   UNL     1       3.093  -5.708  23.170  0.00  0.00    +0.048 C 
ATOM     17  C   UNL     1       4.369  -4.886  23.198  0.00  0.00    +0.227 C 
ENDBRANCH  15  17
ENDBRANCH  13  15
ENDBRANCH  12  13
ENDBRANCH   1  12
TORSDOF 5
ENDMDL
MODEL 5
REMARK VINA RESULT:      -5.4      1.878      6.789
REMARK  Name = 
REMARK  6 active torsions:
REMARK  status: ('A' for Active; 'I' for Inactive)
REMARK    1  A    between atoms: C_1  and  C_2
REMARK    2  A    between atoms: C_2  and  O_3
REMARK    3  A    between atoms: O_3  and  C_4
REMARK    4  A    between atoms: C_4  and  N_6
REMARK    5  A    between atoms: N_6  and  C_7
REMARK    6  A    between atoms: N_9  and  N_12
REMARK                            x       y       z     vdW  Elec       q    Type
REMARK                         _______ _______ _______ _____ _____    ______ ____
ROOT
ATOM      1  C   UNL     1       8.998  -3.866  25.783  0.00  0.00    +0.132 A 
ATOM      2  O   UNL     1       9.775  -4.332  24.749  0.00  0.00    -0.322 OA
ATOM      3  N   UNL     1      10.049  -3.260  23.877  0.00  0.00    +0.229 NA
ATOM      4  N   UNL     1       9.391  -2.237  24.395  0.00  0.00    +0.060 N 
ATOM      5  C   UNL     1       8.682  -2.553  25.529  0.00  0.00    +0.401 A 
ENDROOT
BRANCH   4   6
ATOM      6  N   UNL     1       9.617  -0.890  23.954  0.00  0.00    -0.106 N 
ATOM      7  C   UNL     1      10.187   0.046  24.923  0.00  0.00    +0.201 C 
ATOM      8  C   UNL     1       9.872   1.466  24.442  0.00  0.00    +0.184 C 
ATOM      9  O   UNL     1      10.398   1.685  23.127  0.00  0.00    -0.376 OA
ATOM     10  C   UNL     1       9.849   0.754  22.187  0.00  0.00    +0.184 C 
ATOM     11  C   UNL     1      10.155  -0.687  22.610  0.00  0.00    +0.201 C 
ENDBRANCH   4   6
BRANCH   1  12
ATOM     12  N   UNL     1       8.676  -4.580  26.881  0.00  0.00    -0.543 NA
BRANCH  12  13
ATOM     13  C   UNL     1       7.553  -5.302  26.772  0.00  0.00    +0.230 C 
ATOM     14  O   UNL     1       6.835  -5.450  25.786  0.00  0.00    -0.272 OA
BRANCH  13  15
ATOM     15  O   UNL     1       7.279  -5.892  27.976  0.00  0.00    -0.478 OA
BRANCH  15  17
ATOM     16  C   UNL     1       5.373  -5.203  29.334  0.00  0.00    +0.048 C 
ATOM     17  C   UNL     1       5.892  -6.136  28.254  0.00  0.00    +0.227 C 
ENDBRANCH  15  17
ENDBRANCH  13  15
ENDBRANCH  12  13
ENDBRANCH   1  12
TORSDOF 5
ENDMDL
MODEL 6
REMARK VINA RESULT:      -5.2      2.079      2.956
REMARK  Name = 
REMARK  6 active torsions:
REMARK  status: ('A' for Active; 'I' for Inactive)
REMARK    1  A    between atoms: C_1  and  C_2
REMARK    2  A    between atoms: C_2  and  O_3
REMARK    3  A    between atoms: O_3  and  C_4
REMARK    4  A    between atoms: C_4  and  N_6
REMARK    5  A    between atoms: N_6  and  C_7
REMARK    6  A    between atoms: N_9  and  N_12
REMARK                            x       y       z     vdW  Elec       q    Type
REMARK                         _______ _______ _______ _____ _____    ______ ____
ROOT
ATOM      1  C   UNL     1      10.057  -0.397  24.046  0.00  0.00    +0.132 A 
ATOM      2  O   UNL     1      10.686  -0.710  22.864  0.00  0.00    -0.322 OA
ATOM      3  N   UNL     1      10.050  -1.833  22.301  0.00  0.00    +0.229 NA
ATOM      4  N   UNL     1       9.122  -2.162  23.183  0.00  0.00    +0.060 N 
ATOM      5  C   UNL     1       9.110  -1.361  24.299  0.00  0.00    +0.401 A 
ENDROOT
BRANCH   4   6
ATOM      6  N   UNL     1       8.078  -3.097  22.870  0.00  0.00    -0.106 N 
ATOM      7  C   UNL     1       8.031  -4.334  23.647  0.00  0.00    +0.201 C 
ATOM      8  C   UNL     1       7.220  -5.359  22.847  0.00  0.00    +0.184 C 
ATOM      9  O   UNL     1       5.905  -4.861  22.570  0.00  0.00    -0.376 OA
ATOM     10  C   UNL     1       5.960  -3.640  21.823  0.00  0.00    +0.184 C 
ATOM     11  C   UNL     1       6.743  -2.570  22.591  0.00  0.00    +0.201 C 
ENDBRANCH   4   6
BRANCH   1  12
ATOM     12  N   UNL     1      10.301   0.711  24.774  0.00  0.00    -0.543 NA
BRANCH  12  13
ATOM     13  C   UNL     1      10.158   1.864  24.108  0.00  0.00    +0.230 C 
ATOM     14  O   UNL     1      11.036   2.619  23.694  0.00  0.00    -0.272 OA
BRANCH  13  15
ATOM     15  O   UNL     1       8.826   2.122  23.936  0.00  0.00    -0.478 OA
BRANCH  15  17
ATOM     16  C   UNL     1       8.276   1.669  21.602  0.00  0.00    +0.048 C 
ATOM     17  C   UNL     1       8.458   2.720  22.683  0.00  0.00    +0.227 C 
ENDBRANCH  15  17
ENDBRANCH  13  15
ENDBRANCH  12  13
ENDBRANCH   1  12
TORSDOF 5
ENDMDL
MODEL 7
REMARK VINA RESULT:      -5.2      1.992      6.806
REMARK  Name = 
REMARK  6 active torsions:
REMARK  status: ('A' for Active; 'I' for Inactive)
REMARK    1  A    between atoms: C_1  and  C_2
REMARK    2  A    between atoms: C_2  and  O_3
REMARK    3  A    between atoms: O_3  and  C_4
REMARK    4  A    between atoms: C_4  and  N_6
REMARK    5  A    between atoms: N_6  and  C_7
REMARK    6  A    between atoms: N_9  and  N_12
REMARK                            x       y       z     vdW  Elec       q    Type
REMARK                         _______ _______ _______ _____ _____    ______ ____
ROOT
ATOM      1  C   UNL     1       8.266  -5.006  26.405  0.00  0.00    +0.132 A 
ATOM      2  O   UNL     1       9.143  -5.633  25.552  0.00  0.00    -0.322 OA
ATOM      3  N   UNL     1       9.659  -4.677  24.657  0.00  0.00    +0.229 NA
ATOM      4  N   UNL     1       9.037  -3.555  24.979  0.00  0.00    +0.060 N 
ATOM      5  C   UNL     1       8.130  -3.700  26.001  0.00  0.00    +0.401 A 
ENDROOT
BRANCH   4   6
ATOM      6  N   UNL     1       9.467  -2.280  24.478  0.00  0.00    -0.106 N 
ATOM      7  C   UNL     1       9.363  -2.056  23.037  0.00  0.00    +0.201 C 
ATOM      8  C   UNL     1      10.308  -0.907  22.673  0.00  0.00    +0.184 C 
ATOM      9  O   UNL     1       9.980   0.274  23.414  0.00  0.00    -0.376 OA
ATOM     10  C   UNL     1      10.067   0.043  24.824  0.00  0.00    +0.184 C 
ATOM     11  C   UNL     1       9.122  -1.086  25.248  0.00  0.00    +0.201 C 
ENDBRANCH   4   6
BRANCH   1  12
ATOM     12  N   UNL     1       7.704  -5.583  27.487  0.00  0.00    -0.543 NA
BRANCH  12  13
ATOM     13  C   UNL     1       6.365  -5.560  27.504  0.00  0.00    +0.230 C 
ATOM     14  O   UNL     1       5.624  -4.890  28.221  0.00  0.00    -0.272 OA
BRANCH  13  15
ATOM     15  O   UNL     1       5.887  -6.435  26.568  0.00  0.00    -0.478 OA
BRANCH  15  17
ATOM     16  C   UNL     1       4.233  -7.094  24.900  0.00  0.00    +0.048 C 
ATOM     17  C   UNL     1       4.701  -6.025  25.871  0.00  0.00    +0.227 C 
ENDBRANCH  15  17
ENDBRANCH  13  15
ENDBRANCH  12  13
ENDBRANCH   1  12
TORSDOF 5
ENDMDL
MODEL 8
REMARK VINA RESULT:      -5.1      1.844      6.639
REMARK  Name = 
REMARK  6 active torsions:
REMARK  status: ('A' for Active; 'I' for Inactive)
REMARK    1  A    between atoms: C_1  and  C_2
REMARK    2  A    between atoms: C_2  and  O_3
REMARK    3  A    between atoms: O_3  and  C_4
REMARK    4  A    between atoms: C_4  and  N_6
REMARK    5  A    between atoms: N_6  and  C_7
REMARK    6  A    between atoms: N_9  and  N_12
REMARK                            x       y       z     vdW  Elec       q    Type
REMARK                         _______ _______ _______ _____ _____    ______ ____
ROOT
ATOM      1  C   UNL     1       8.115  -4.200  24.532  0.00  0.00    +0.132 A 
ATOM      2  O   UNL     1       9.436  -4.578  24.490  0.00  0.00    -0.322 OA
ATOM      3  N   UNL     1      10.204  -3.476  24.064  0.00  0.00    +0.229 NA
ATOM      4  N   UNL     1       9.314  -2.527  23.827  0.00  0.00    +0.060 N 
ATOM      5  C   UNL     1       8.015  -2.922  24.038  0.00  0.00    +0.401 A 
ENDROOT
BRANCH   4   6
ATOM      6  N   UNL     1       9.702  -1.159  23.624  0.00  0.00    -0.106 N 
ATOM      7  C   UNL     1       9.056  -0.434  22.532  0.00  0.00    +0.201 C 
ATOM      8  C   UNL     1       9.942   0.764  22.177  0.00  0.00    +0.184 C 
ATOM      9  O   UNL     1      10.141   1.604  23.321  0.00  0.00    -0.376 OA
ATOM     10  C   UNL     1      10.759   0.883  24.393  0.00  0.00    +0.184 C 
ATOM     11  C   UNL     1       9.900  -0.318  24.803  0.00  0.00    +0.201 C 
ENDBRANCH   4   6
BRANCH   1  12
ATOM     12  N   UNL     1       7.119  -4.952  25.043  0.00  0.00    -0.543 NA
BRANCH  12  13
ATOM     13  C   UNL     1       7.209  -5.185  26.359  0.00  0.00    +0.230 C 
ATOM     14  O   UNL     1       7.854  -4.564  27.200  0.00  0.00    -0.272 OA
BRANCH  13  15
ATOM     15  O   UNL     1       6.447  -6.276  26.676  0.00  0.00    -0.478 OA
BRANCH  15  17
ATOM     16  C   UNL     1       4.946  -6.926  28.487  0.00  0.00    +0.048 C 
ATOM     17  C   UNL     1       5.187  -6.001  27.306  0.00  0.00    +0.227 C 
ENDBRANCH  15  17
ENDBRANCH  13  15
ENDBRANCH  12  13
ENDBRANCH   1  12
TORSDOF 5
ENDMDL
MODEL 9
REMARK VINA RESULT:      -5.1      2.063      6.059
REMARK  Name = 
REMARK  6 active torsions:
REMARK  status: ('A' for Active; 'I' for Inactive)
REMARK    1  A    between atoms: C_1  and  C_2
REMARK    2  A    between atoms: C_2  and  O_3
REMARK    3  A    between atoms: O_3  and  C_4
REMARK    4  A    between atoms: C_4  and  N_6
REMARK    5  A    between atoms: N_6  and  C_7
REMARK    6  A    between atoms: N_9  and  N_12
REMARK                            x       y       z     vdW  Elec       q    Type
REMARK                         _______ _______ _______ _____ _____    ______ ____
ROOT
ATOM      1  C   UNL     1       7.927  -4.268  23.208  0.00  0.00    +0.132 A 
ATOM      2  O   UNL     1       8.918  -4.561  24.115  0.00  0.00    -0.322 OA
ATOM      3  N   UNL     1       9.761  -3.439  24.235  0.00  0.00    +0.229 NA
ATOM      4  N   UNL     1       9.272  -2.565  23.372  0.00  0.00    +0.060 N 
ATOM      5  C   UNL     1       8.186  -3.030  22.670  0.00  0.00    +0.401 A 
ENDROOT
BRANCH   4   6
ATOM      6  N   UNL     1       9.684  -1.190  23.371  0.00  0.00    -0.106 N 
ATOM      7  C   UNL     1       9.058  -0.303  22.393  0.00  0.00    +0.201 C 
ATOM      8  C   UNL     1       9.966   0.918  22.220  0.00  0.00    +0.184 C 
ATOM      9  O   UNL     1      10.172   1.580  23.474  0.00  0.00    -0.376 OA
ATOM     10  C   UNL     1      10.770   0.700  24.432  0.00  0.00    +0.184 C 
ATOM     11  C   UNL     1       9.888  -0.532  24.661  0.00  0.00    +0.201 C 
ENDBRANCH   4   6
BRANCH   1  12
ATOM     12  N   UNL     1       6.858  -5.052  22.962  0.00  0.00    -0.543 NA
BRANCH  12  13
ATOM     13  C   UNL     1       5.677  -4.512  23.293  0.00  0.00    +0.230 C 
ATOM     14  O   UNL     1       4.818  -4.043  22.550  0.00  0.00    -0.272 OA
BRANCH  13  15
ATOM     15  O   UNL     1       5.533  -4.544  24.653  0.00  0.00    -0.478 OA
BRANCH  15  17
ATOM     16  C   UNL     1       4.225  -6.582  24.956  0.00  0.00    +0.048 C 
ATOM     17  C   UNL     1       5.521  -5.849  25.253  0.00  0.00    +0.227 C 
ENDBRANCH  15  17
ENDBRANCH  13  15
ENDBRANCH  12  13
ENDBRANCH   1  12
TORSDOF 5
ENDMDL
