MODEL 1
REMARK VINA RESULT:      -4.7      0.000      0.000
REMARK  Name = 
REMARK  14 active torsions:
REMARK  status: ('A' for Active; 'I' for Inactive)
REMARK    1  A    between atoms: C_1  and  N_2
REMARK    2  A    between atoms: N_2  and  C_3
REMARK    3  A    between atoms: N_2  and  C_4
REMARK    4  A    between atoms: N_2  and  C_5
REMARK    5  A    between atoms: C_5  and  C_6
REMARK    6  A    between atoms: C_6  and  O_7
REMARK    7  A    between atoms: O_7  and  P_8
REMARK    8  A    between atoms: P_8  and  O_9
REMARK    9  A    between atoms: P_8  and  O_11
REMARK   10  A    between atoms: O_11  and  C_12
REMARK   11  A    between atoms: C_12  and  C_13
REMARK   12  A    between atoms: C_13  and  O_15
REMARK   13  A    between atoms: C_13  and  C_16
REMARK   14  A    between atoms: C_16  and  O_17
REMARK                            x       y       z     vdW  Elec       q    Type
REMARK                         _______ _______ _______ _____ _____    ______ ____
ROOT
ATOM      1  P   UNL     1       9.945  -1.554  23.054  0.00  0.00    +0.475 P 
ATOM      2  O   UNL     1      10.157  -2.872  23.725  0.00  0.00    -0.227 OA
ENDROOT
BRANCH   1   3
ATOM      3  O   UNL     1      10.270  -1.525  21.491  0.00  0.00    -0.302 OA
ATOM      4  H   UNL     1      11.041  -2.094  21.297  0.00  0.00    +0.222 HD
ENDBRANCH   1   3
BRANCH   1   5
ATOM      5  O   UNL     1       8.379  -1.168  23.040  0.00  0.00    -0.281 OA
BRANCH   5   6
ATOM      6  C   UNL     1       7.469  -2.187  23.407  0.00  0.00    +0.223 C 
BRANCH   6   7
ATOM      7  C   UNL     1       7.006  -2.990  22.198  0.00  0.00    +0.161 C 
BRANCH   7   9
ATOM      8  C   UNL     1       5.069  -4.229  23.112  0.00  0.00    +0.192 C 
ATOM      9  N   UNL     1       6.469  -4.404  22.529  0.00  0.00    +0.239 N 
ATOM     10  C   UNL     1       6.364  -5.271  21.274  0.00  0.00    +0.192 C 
ATOM     11  C   UNL     1       7.342  -5.119  23.554  0.00  0.00    +0.192 C 
ENDBRANCH   7   9
ENDBRANCH   6   7
ENDBRANCH   5   6
ENDBRANCH   1   5
BRANCH   1  12
ATOM     12  O   UNL     1      10.619  -0.269  23.720  0.00  0.00    -0.284 OA
BRANCH  12  13
ATOM     13  C   UNL     1      10.101   1.034  23.816  0.00  0.00    +0.206 C 
BRANCH  13  14
ATOM     14  C   UNL     1      10.129   1.940  22.580  0.00  0.00    +0.166 C 
BRANCH  14  15
ATOM     15  O   UNL     1      10.614   3.231  22.932  0.00  0.00    -0.387 OA
ATOM     16  H   UNL     1      10.552   3.797  22.142  0.00  0.00    +0.210 HD
ENDBRANCH  14  15
BRANCH  14  17
ATOM     17  C   UNL     1       8.794   2.031  21.833  0.00  0.00    +0.189 C 
BRANCH  17  18
ATOM     18  O   UNL     1       8.697   1.049  20.808  0.00  0.00    -0.392 OA
ATOM     19  H   UNL     1       7.753   0.906  20.614  0.00  0.00    +0.210 HD
ENDBRANCH  17  18
ENDBRANCH  14  17
ENDBRANCH  13  14
ENDBRANCH  12  13
ENDBRANCH   1  12
TORSDOF 11
ENDMDL
MODEL 2
REMARK VINA RESULT:      -4.7      1.675      2.486
REMARK  Name = 
REMARK  14 active torsions:
REMARK  status: ('A' for Active; 'I' for Inactive)
REMARK    1  A    between atoms: C_1  and  N_2
REMARK    2  A    between atoms: N_2  and  C_3
REMARK    3  A    between atoms: N_2  and  C_4
REMARK    4  A    between atoms: N_2  and  C_5
REMARK    5  A    between atoms: C_5  and  C_6
REMARK    6  A    between atoms: C_6  and  O_7
REMARK    7  A    between atoms: O_7  and  P_8
REMARK    8  A    between atoms: P_8  and  O_9
REMARK    9  A    between atoms: P_8  and  O_11
REMARK   10  A    between atoms: O_11  and  C_12
REMARK   11  A    between atoms: C_12  and  C_13
REMARK   12  A    between atoms: C_13  and  O_15
REMARK   13  A    between atoms: C_13  and  C_16
REMARK   14  A    between atoms: C_16  and  O_17
REMARK                            x       y       z     vdW  Elec       q    Type
REMARK                         _______ _______ _______ _____ _____    ______ ____
ROOT
ATOM      1  P   UNL     1       9.496  -1.816  22.727  0.00  0.00    +0.475 P 
ATOM      2  O   UNL     1      10.377  -2.681  23.569  0.00  0.00    -0.227 OA
ENDROOT
BRANCH   1   3
ATOM      3  O   UNL     1      10.130  -1.342  21.341  0.00  0.00    -0.302 OA
ATOM      4  H   UNL     1      11.106  -1.379  21.387  0.00  0.00    +0.222 HD
ENDBRANCH   1   3
BRANCH   1   5
ATOM      5  O   UNL     1       8.217  -2.646  22.202  0.00  0.00    -0.281 OA
BRANCH   5   6
ATOM      6  C   UNL     1       7.241  -2.990  23.167  0.00  0.00    +0.223 C 
BRANCH   6   7
ATOM      7  C   UNL     1       7.391  -4.434  23.629  0.00  0.00    +0.161 C 
BRANCH   7   9
ATOM      8  C   UNL     1       6.522  -5.451  25.711  0.00  0.00    +0.192 C 
ATOM      9  N   UNL     1       7.659  -4.603  25.145  0.00  0.00    +0.239 N 
ATOM     10  C   UNL     1       8.978  -5.330  25.403  0.00  0.00    +0.192 C 
ATOM     11  C   UNL     1       7.680  -3.262  25.872  0.00  0.00    +0.192 C 
ENDBRANCH   7   9
ENDBRANCH   6   7
ENDBRANCH   5   6
ENDBRANCH   1   5
BRANCH   1  12
ATOM     12  O   UNL     1       8.829  -0.543  23.423  0.00  0.00    -0.284 OA
BRANCH  12  13
ATOM     13  C   UNL     1       8.389   0.648  22.817  0.00  0.00    +0.206 C 
BRANCH  13  14
ATOM     14  C   UNL     1       9.347   1.843  22.740  0.00  0.00    +0.166 C 
BRANCH  14  15
ATOM     15  O   UNL     1       9.968   1.887  21.460  0.00  0.00    -0.387 OA
ATOM     16  H   UNL     1      10.325   2.785  21.334  0.00  0.00    +0.210 HD
ENDBRANCH  14  15
BRANCH  14  17
ATOM     17  C   UNL     1      10.385   1.894  23.866  0.00  0.00    +0.189 C 
BRANCH  17  18
ATOM     18  O   UNL     1       9.874   1.351  25.077  0.00  0.00    -0.392 OA
ATOM     19  H   UNL     1      10.031   0.389  25.067  0.00  0.00    +0.210 HD
ENDBRANCH  17  18
ENDBRANCH  14  17
ENDBRANCH  13  14
ENDBRANCH  12  13
ENDBRANCH   1  12
TORSDOF 11
ENDMDL
MODEL 3
REMARK VINA RESULT:      -4.6      1.272      2.133
REMARK  Name = 
REMARK  14 active torsions:
REMARK  status: ('A' for Active; 'I' for Inactive)
REMARK    1  A    between atoms: C_1  and  N_2
REMARK    2  A    between atoms: N_2  and  C_3
REMARK    3  A    between atoms: N_2  and  C_4
REMARK    4  A    between atoms: N_2  and  C_5
REMARK    5  A    between atoms: C_5  and  C_6
REMARK    6  A    between atoms: C_6  and  O_7
REMARK    7  A    between atoms: O_7  and  P_8
REMARK    8  A    between atoms: P_8  and  O_9
REMARK    9  A    between atoms: P_8  and  O_11
REMARK   10  A    between atoms: O_11  and  C_12
REMARK   11  A    between atoms: C_12  and  C_13
REMARK   12  A    between atoms: C_13  and  O_15
REMARK   13  A    between atoms: C_13  and  C_16
REMARK   14  A    between atoms: C_16  and  O_17
REMARK                            x       y       z     vdW  Elec       q    Type
REMARK                         _______ _______ _______ _____ _____    ______ ____
ROOT
ATOM      1  P   UNL     1       9.327  -1.467  22.453  0.00  0.00    +0.475 P 
ATOM      2  O   UNL     1      10.506  -2.045  23.164  0.00  0.00    -0.227 OA
ENDROOT
BRANCH   1   3
ATOM      3  O   UNL     1       9.603  -0.979  20.959  0.00  0.00    -0.302 OA
ATOM      4  H   UNL     1       8.977  -1.408  20.343  0.00  0.00    +0.222 HD
ENDBRANCH   1   3
BRANCH   1   5
ATOM      5  O   UNL     1       8.206  -2.598  22.196  0.00  0.00    -0.281 OA
BRANCH   5   6
ATOM      6  C   UNL     1       7.675  -3.240  23.340  0.00  0.00    +0.223 C 
BRANCH   6   7
ATOM      7  C   UNL     1       7.448  -4.726  23.097  0.00  0.00    +0.161 C 
BRANCH   7   9
ATOM      8  C   UNL     1       6.105  -5.630  21.224  0.00  0.00    +0.192 C 
ATOM      9  N   UNL     1       6.011  -5.096  22.651  0.00  0.00    +0.239 N 
ATOM     10  C   UNL     1       5.415  -6.189  23.538  0.00  0.00    +0.192 C 
ATOM     11  C   UNL     1       5.083  -3.886  22.663  0.00  0.00    +0.192 C 
ENDBRANCH   7   9
ENDBRANCH   6   7
ENDBRANCH   5   6
ENDBRANCH   1   5
BRANCH   1  12
ATOM     12  O   UNL     1       8.504  -0.319  23.200  0.00  0.00    -0.284 OA
BRANCH  12  13
ATOM     13  C   UNL     1       8.236   0.988  22.755  0.00  0.00    +0.206 C 
BRANCH  13  14
ATOM     14  C   UNL     1       9.360   2.030  22.786  0.00  0.00    +0.166 C 
BRANCH  14  15
ATOM     15  O   UNL     1      10.032   2.058  21.532  0.00  0.00    -0.387 OA
ATOM     16  H   UNL     1      10.903   1.639  21.653  0.00  0.00    +0.210 HD
ENDBRANCH  14  15
BRANCH  14  17
ATOM     17  C   UNL     1      10.347   1.861  23.945  0.00  0.00    +0.189 C 
BRANCH  17  18
ATOM     18  O   UNL     1       9.699   1.395  25.123  0.00  0.00    -0.392 OA
ATOM     19  H   UNL     1      10.382   1.224  25.796  0.00  0.00    +0.210 HD
ENDBRANCH  17  18
ENDBRANCH  14  17
ENDBRANCH  13  14
ENDBRANCH  12  13
ENDBRANCH   1  12
TORSDOF 11
ENDMDL
MODEL 4
REMARK VINA RESULT:      -4.6      2.905      6.272
REMARK  Name = 
REMARK  14 active torsions:
REMARK  status: ('A' for Active; 'I' for Inactive)
REMARK    1  A    between atoms: C_1  and  N_2
REMARK    2  A    between atoms: N_2  and  C_3
REMARK    3  A    between atoms: N_2  and  C_4
REMARK    4  A    between atoms: N_2  and  C_5
REMARK    5  A    between atoms: C_5  and  C_6
REMARK    6  A    between atoms: C_6  and  O_7
REMARK    7  A    between atoms: O_7  and  P_8
REMARK    8  A    between atoms: P_8  and  O_9
REMARK    9  A    between atoms: P_8  and  O_11
REMARK   10  A    between atoms: O_11  and  C_12
REMARK   11  A    between atoms: C_12  and  C_13
REMARK   12  A    between atoms: C_13  and  O_15
REMARK   13  A    between atoms: C_13  and  C_16
REMARK   14  A    between atoms: C_16  and  O_17
REMARK                            x       y       z     vdW  Elec       q    Type
REMARK                         _______ _______ _______ _____ _____    ______ ____
ROOT
ATOM      1  P   UNL     1       9.878  -1.898  23.416  0.00  0.00    +0.475 P 
ATOM      2  O   UNL     1      10.603  -1.734  22.120  0.00  0.00    -0.227 OA
ENDROOT
BRANCH   1   3
ATOM      3  O   UNL     1      10.253  -0.834  24.545  0.00  0.00    -0.302 OA
ATOM      4  H   UNL     1      11.211  -0.640  24.522  0.00  0.00    +0.222 HD
ENDBRANCH   1   3
BRANCH   1   5
ATOM      5  O   UNL     1       8.305  -1.595  23.231  0.00  0.00    -0.281 OA
BRANCH   5   6
ATOM      6  C   UNL     1       7.822  -0.380  23.772  0.00  0.00    +0.223 C 
BRANCH   6   7
ATOM      7  C   UNL     1       7.527   0.643  22.684  0.00  0.00    +0.161 C 
BRANCH   7   9
ATOM      8  C   UNL     1       8.620   2.219  24.248  0.00  0.00    +0.192 C 
ATOM      9  N   UNL     1       8.373   1.938  22.768  0.00  0.00    +0.239 N 
ATOM     10  C   UNL     1       9.726   1.768  22.077  0.00  0.00    +0.192 C 
ATOM     11  C   UNL     1       7.649   3.131  22.154  0.00  0.00    +0.192 C 
ENDBRANCH   7   9
ENDBRANCH   6   7
ENDBRANCH   5   6
ENDBRANCH   1   5
BRANCH   1  12
ATOM     12  O   UNL     1       9.882  -3.347  24.086  0.00  0.00    -0.284 OA
BRANCH  12  13
ATOM     13  C   UNL     1       8.783  -4.102  24.532  0.00  0.00    +0.206 C 
BRANCH  13  14
ATOM     14  C   UNL     1       8.933  -4.966  25.789  0.00  0.00    +0.166 C 
BRANCH  14  15
ATOM     15  O   UNL     1       9.858  -6.020  25.548  0.00  0.00    -0.387 OA
ATOM     16  H   UNL     1       9.718  -6.701  26.230  0.00  0.00    +0.210 HD
ENDBRANCH  14  15
BRANCH  14  17
ATOM     17  C   UNL     1       7.611  -5.502  26.349  0.00  0.00    +0.189 C 
BRANCH  17  18
ATOM     18  O   UNL     1       7.748  -5.938  27.696  0.00  0.00    -0.392 OA
ATOM     19  H   UNL     1       7.592  -5.173  28.279  0.00  0.00    +0.210 HD
ENDBRANCH  17  18
ENDBRANCH  14  17
ENDBRANCH  13  14
ENDBRANCH  12  13
ENDBRANCH   1  12
TORSDOF 11
ENDMDL
MODEL 5
REMARK VINA RESULT:      -4.5      3.004      6.528
REMARK  Name = 
REMARK  14 active torsions:
REMARK  status: ('A' for Active; 'I' for Inactive)
REMARK    1  A    between atoms: C_1  and  N_2
REMARK    2  A    between atoms: N_2  and  C_3
REMARK    3  A    between atoms: N_2  and  C_4
REMARK    4  A    between atoms: N_2  and  C_5
REMARK    5  A    between atoms: C_5  and  C_6
REMARK    6  A    between atoms: C_6  and  O_7
REMARK    7  A    between atoms: O_7  and  P_8
REMARK    8  A    between atoms: P_8  and  O_9
REMARK    9  A    between atoms: P_8  and  O_11
REMARK   10  A    between atoms: O_11  and  C_12
REMARK   11  A    between atoms: C_12  and  C_13
REMARK   12  A    between atoms: C_13  and  O_15
REMARK   13  A    between atoms: C_13  and  C_16
REMARK   14  A    between atoms: C_16  and  O_17
REMARK                            x       y       z     vdW  Elec       q    Type
REMARK                         _______ _______ _______ _____ _____    ______ ____
ROOT
ATOM      1  P   UNL     1       9.377  -1.770  22.988  0.00  0.00    +0.475 P 
ATOM      2  O   UNL     1       7.926  -1.499  22.762  0.00  0.00    -0.227 OA
ENDROOT
BRANCH   1   3
ATOM      3  O   UNL     1      10.299  -1.671  21.689  0.00  0.00    -0.302 OA
ATOM      4  H   UNL     1      10.591  -0.749  21.552  0.00  0.00    +0.222 HD
ENDBRANCH   1   3
BRANCH   1   5
ATOM      5  O   UNL     1      10.035  -0.620  23.909  0.00  0.00    -0.281 OA
BRANCH   5   6
ATOM      6  C   UNL     1      10.489   0.544  23.245  0.00  0.00    +0.223 C 
BRANCH   6   7
ATOM      7  C   UNL     1      10.392   1.774  24.138  0.00  0.00    +0.161 C 
BRANCH   7   9
ATOM      8  C   UNL     1       8.517   2.275  22.603  0.00  0.00    +0.192 C 
ATOM      9  N   UNL     1       9.076   2.577  23.991  0.00  0.00    +0.239 N 
ATOM     10  C   UNL     1       8.041   2.150  25.031  0.00  0.00    +0.192 C 
ATOM     11  C   UNL     1       9.310   4.079  24.111  0.00  0.00    +0.192 C 
ENDBRANCH   7   9
ENDBRANCH   6   7
ENDBRANCH   5   6
ENDBRANCH   1   5
BRANCH   1  12
ATOM     12  O   UNL     1       9.766  -3.110  23.766  0.00  0.00    -0.284 OA
BRANCH  12  13
ATOM     13  C   UNL     1       8.909  -4.037  24.384  0.00  0.00    +0.206 C 
BRANCH  13  14
ATOM     14  C   UNL     1       9.299  -4.620  25.747  0.00  0.00    +0.166 C 
BRANCH  14  15
ATOM     15  O   UNL     1       9.937  -5.880  25.573  0.00  0.00    -0.387 OA
ATOM     16  H   UNL     1       9.426  -6.384  24.914  0.00  0.00    +0.210 HD
ENDBRANCH  14  15
BRANCH  14  17
ATOM     17  C   UNL     1       8.142  -4.713  26.748  0.00  0.00    +0.189 C 
BRANCH  17  18
ATOM     18  O   UNL     1       7.954  -6.045  27.211  0.00  0.00    -0.392 OA
ATOM     19  H   UNL     1       7.178  -6.053  27.800  0.00  0.00    +0.210 HD
ENDBRANCH  17  18
ENDBRANCH  14  17
ENDBRANCH  13  14
ENDBRANCH  12  13
ENDBRANCH   1  12
TORSDOF 11
ENDMDL
MODEL 6
REMARK VINA RESULT:      -4.5      3.756      6.677
REMARK  Name = 
REMARK  14 active torsions:
REMARK  status: ('A' for Active; 'I' for Inactive)
REMARK    1  A    between atoms: C_1  and  N_2
REMARK    2  A    between atoms: N_2  and  C_3
REMARK    3  A    between atoms: N_2  and  C_4
REMARK    4  A    between atoms: N_2  and  C_5
REMARK    5  A    between atoms: C_5  and  C_6
REMARK    6  A    between atoms: C_6  and  O_7
REMARK    7  A    between atoms: O_7  and  P_8
REMARK    8  A    between atoms: P_8  and  O_9
REMARK    9  A    between atoms: P_8  and  O_11
REMARK   10  A    between atoms: O_11  and  C_12
REMARK   11  A    between atoms: C_12  and  C_13
REMARK   12  A    between atoms: C_13  and  O_15
REMARK   13  A    between atoms: C_13  and  C_16
REMARK   14  A    between atoms: C_16  and  O_17
REMARK                            x       y       z     vdW  Elec       q    Type
REMARK                         _______ _______ _______ _____ _____    ______ ____
ROOT
ATOM      1  P   UNL     1       8.824  -4.310  24.603  0.00  0.00    +0.475 P 
ATOM      2  O   UNL     1       7.805  -4.277  23.512  0.00  0.00    -0.227 OA
ENDROOT
BRANCH   1   3
ATOM      3  O   UNL     1       9.529  -5.723  24.835  0.00  0.00    -0.302 OA
ATOM      4  H   UNL     1      10.487  -5.657  24.652  0.00  0.00    +0.222 HD
ENDBRANCH   1   3
BRANCH   1   5
ATOM      5  O   UNL     1      10.100  -3.400  24.219  0.00  0.00    -0.281 OA
BRANCH   5   6
ATOM      6  C   UNL     1       9.848  -2.253  23.430  0.00  0.00    +0.223 C 
BRANCH   6   7
ATOM      7  C   UNL     1       9.892  -0.978  24.262  0.00  0.00    +0.161 C 
BRANCH   7   9
ATOM      8  C   UNL     1       9.911   0.564  22.327  0.00  0.00    +0.192 C 
ATOM      9  N   UNL     1       9.174   0.236  23.623  0.00  0.00    +0.239 N 
ATOM     10  C   UNL     1       7.720  -0.090  23.282  0.00  0.00    +0.192 C 
ATOM     11  C   UNL     1       9.208   1.460  24.531  0.00  0.00    +0.192 C 
ENDBRANCH   7   9
ENDBRANCH   6   7
ENDBRANCH   5   6
ENDBRANCH   1   5
BRANCH   1  12
ATOM     12  O   UNL     1       8.397  -3.734  26.030  0.00  0.00    -0.284 OA
BRANCH  12  13
ATOM     13  C   UNL     1       7.158  -3.858  26.683  0.00  0.00    +0.206 C 
BRANCH  13  14
ATOM     14  C   UNL     1       6.770  -5.209  27.294  0.00  0.00    +0.166 C 
BRANCH  14  15
ATOM     15  O   UNL     1       7.937  -5.983  27.546  0.00  0.00    -0.387 OA
ATOM     16  H   UNL     1       8.595  -5.761  26.863  0.00  0.00    +0.210 HD
ENDBRANCH  14  15
BRANCH  14  17
ATOM     17  C   UNL     1       5.741  -5.999  26.478  0.00  0.00    +0.189 C 
BRANCH  17  18
ATOM     18  O   UNL     1       5.264  -7.134  27.191  0.00  0.00    -0.392 OA
ATOM     19  H   UNL     1       5.818  -7.248  27.984  0.00  0.00    +0.210 HD
ENDBRANCH  17  18
ENDBRANCH  14  17
ENDBRANCH  13  14
ENDBRANCH  12  13
ENDBRANCH   1  12
TORSDOF 11
ENDMDL
MODEL 7
REMARK VINA RESULT:      -4.4      3.973      6.588
REMARK  Name = 
REMARK  14 active torsions:
REMARK  status: ('A' for Active; 'I' for Inactive)
REMARK    1  A    between atoms: C_1  and  N_2
REMARK    2  A    between atoms: N_2  and  C_3
REMARK    3  A    between atoms: N_2  and  C_4
REMARK    4  A    between atoms: N_2  and  C_5
REMARK    5  A    between atoms: C_5  and  C_6
REMARK    6  A    between atoms: C_6  and  O_7
REMARK    7  A    between atoms: O_7  and  P_8
REMARK    8  A    between atoms: P_8  and  O_9
REMARK    9  A    between atoms: P_8  and  O_11
REMARK   10  A    between atoms: O_11  and  C_12
REMARK   11  A    between atoms: C_12  and  C_13
REMARK   12  A    between atoms: C_13  and  O_15
REMARK   13  A    between atoms: C_13  and  C_16
REMARK   14  A    between atoms: C_16  and  O_17
REMARK                            x       y       z     vdW  Elec       q    Type
REMARK                         _______ _______ _______ _____ _____    ______ ____
ROOT
ATOM      1  P   UNL     1       8.280  -5.090  25.488  0.00  0.00    +0.475 P 
ATOM      2  O   UNL     1       9.430  -5.471  24.615  0.00  0.00    -0.227 OA
ENDROOT
BRANCH   1   3
ATOM      3  O   UNL     1       8.142  -5.932  26.838  0.00  0.00    -0.302 OA
ATOM      4  H   UNL     1       7.435  -5.556  27.399  0.00  0.00    +0.222 HD
ENDBRANCH   1   3
BRANCH   1   5
ATOM      5  O   UNL     1       8.483  -3.605  26.082  0.00  0.00    -0.281 OA
BRANCH   5   6
ATOM      6  C   UNL     1       7.992  -2.534  25.299  0.00  0.00    +0.223 C 
BRANCH   6   7
ATOM      7  C   UNL     1       9.113  -1.820  24.556  0.00  0.00    +0.161 C 
BRANCH   7   9
ATOM      8  C   UNL     1      10.167  -1.475  22.344  0.00  0.00    +0.192 C 
ATOM      9  N   UNL     1       8.822  -1.539  23.061  0.00  0.00    +0.239 N 
ATOM     10  C   UNL     1       7.992  -2.658  22.433  0.00  0.00    +0.192 C 
ATOM     11  C   UNL     1       8.096  -0.213  22.863  0.00  0.00    +0.192 C 
ENDBRANCH   7   9
ENDBRANCH   6   7
ENDBRANCH   5   6
ENDBRANCH   1   5
BRANCH   1  12
ATOM     12  O   UNL     1       6.835  -5.006  24.813  0.00  0.00    -0.284 OA
BRANCH  12  13
ATOM     13  C   UNL     1       5.690  -5.764  25.112  0.00  0.00    +0.206 C 
BRANCH  13  14
ATOM     14  C   UNL     1       4.738  -6.156  23.976  0.00  0.00    +0.166 C 
BRANCH  14  15
ATOM     15  O   UNL     1       4.435  -7.545  24.051  0.00  0.00    -0.387 OA
ATOM     16  H   UNL     1       4.465  -7.805  24.990  0.00  0.00    +0.210 HD
ENDBRANCH  14  15
BRANCH  14  17
ATOM     17  C   UNL     1       5.229  -5.767  22.578  0.00  0.00    +0.189 C 
BRANCH  17  18
ATOM     18  O   UNL     1       6.277  -6.619  22.132  0.00  0.00    -0.392 OA
ATOM     19  H   UNL     1       7.121  -6.151  22.259  0.00  0.00    +0.210 HD
ENDBRANCH  17  18
ENDBRANCH  14  17
ENDBRANCH  13  14
ENDBRANCH  12  13
ENDBRANCH   1  12
TORSDOF 11
ENDMDL
MODEL 8
REMARK VINA RESULT:      -4.4      2.735      3.832
REMARK  Name = 
REMARK  14 active torsions:
REMARK  status: ('A' for Active; 'I' for Inactive)
REMARK    1  A    between atoms: C_1  and  N_2
REMARK    2  A    between atoms: N_2  and  C_3
REMARK    3  A    between atoms: N_2  and  C_4
REMARK    4  A    between atoms: N_2  and  C_5
REMARK    5  A    between atoms: C_5  and  C_6
REMARK    6  A    between atoms: C_6  and  O_7
REMARK    7  A    between atoms: O_7  and  P_8
REMARK    8  A    between atoms: P_8  and  O_9
REMARK    9  A    between atoms: P_8  and  O_11
REMARK   10  A    between atoms: O_11  and  C_12
REMARK   11  A    between atoms: C_12  and  C_13
REMARK   12  A    between atoms: C_13  and  O_15
REMARK   13  A    between atoms: C_13  and  C_16
REMARK   14  A    between atoms: C_16  and  O_17
REMARK                            x       y       z     vdW  Elec       q    Type
REMARK                         _______ _______ _______ _____ _____    ______ ____
ROOT
ATOM      1  P   UNL     1      10.140   2.004  23.089  0.00  0.00    +0.475 P 
ATOM      2  O   UNL     1      10.724   0.772  23.699  0.00  0.00    -0.227 OA
ENDROOT
BRANCH   1   3
ATOM      3  O   UNL     1      10.208   2.073  21.495  0.00  0.00    -0.302 OA
ATOM      4  H   UNL     1      10.675   1.290  21.143  0.00  0.00    +0.222 HD
ENDBRANCH   1   3
BRANCH   1   5
ATOM      5  O   UNL     1       8.545   2.054  23.322  0.00  0.00    -0.281 OA
BRANCH   5   6
ATOM      6  C   UNL     1       7.768   1.112  22.608  0.00  0.00    +0.223 C 
BRANCH   6   7
ATOM      7  C   UNL     1       7.186   0.049  23.531  0.00  0.00    +0.161 C 
BRANCH   7   9
ATOM      8  C   UNL     1       6.474  -2.258  22.984  0.00  0.00    +0.192 C 
ATOM      9  N   UNL     1       7.698  -1.388  23.265  0.00  0.00    +0.239 N 
ATOM     10  C   UNL     1       8.616  -1.438  22.044  0.00  0.00    +0.192 C 
ATOM     11  C   UNL     1       8.440  -1.959  24.467  0.00  0.00    +0.192 C 
ENDBRANCH   7   9
ENDBRANCH   6   7
ENDBRANCH   5   6
ENDBRANCH   1   5
BRANCH   1  12
ATOM     12  O   UNL     1      10.625   3.413  23.663  0.00  0.00    -0.284 OA
BRANCH  12  13
ATOM     13  C   UNL     1      11.794   4.127  23.343  0.00  0.00    +0.206 C 
BRANCH  13  14
ATOM     14  C   UNL     1      11.807   5.650  23.509  0.00  0.00    +0.166 C 
BRANCH  14  15
ATOM     15  O   UNL     1      12.817   6.031  24.437  0.00  0.00    -0.387 OA
ATOM     16  H   UNL     1      13.660   6.082  23.953  0.00  0.00    +0.210 HD
ENDBRANCH  14  15
BRANCH  14  17
ATOM     17  C   UNL     1      10.449   6.256  23.882  0.00  0.00    +0.189 C 
BRANCH  17  18
ATOM     18  O   UNL     1       9.480   6.043  22.863  0.00  0.00    -0.392 OA
ATOM     19  H   UNL     1       9.011   6.883  22.712  0.00  0.00    +0.210 HD
ENDBRANCH  17  18
ENDBRANCH  14  17
ENDBRANCH  13  14
ENDBRANCH  12  13
ENDBRANCH   1  12
TORSDOF 11
ENDMDL
MODEL 9
REMARK VINA RESULT:      -4.3      1.661      2.367
REMARK  Name = 
REMARK  14 active torsions:
REMARK  status: ('A' for Active; 'I' for Inactive)
REMARK    1  A    between atoms: C_1  and  N_2
REMARK    2  A    between atoms: N_2  and  C_3
REMARK    3  A    between atoms: N_2  and  C_4
REMARK    4  A    between atoms: N_2  and  C_5
REMARK    5  A    between atoms: C_5  and  C_6
REMARK    6  A    between atoms: C_6  and  O_7
REMARK    7  A    between atoms: O_7  and  P_8
REMARK    8  A    between atoms: P_8  and  O_9
REMARK    9  A    between atoms: P_8  and  O_11
REMARK   10  A    between atoms: O_11  and  C_12
REMARK   11  A    between atoms: C_12  and  C_13
REMARK   12  A    between atoms: C_13  and  O_15
REMARK   13  A    between atoms: C_13  and  C_16
REMARK   14  A    between atoms: C_16  and  O_17
REMARK                            x       y       z     vdW  Elec       q    Type
REMARK                         _______ _______ _______ _____ _____    ______ ____
ROOT
ATOM      1  P   UNL     1       8.899  -0.678  25.141  0.00  0.00    +0.475 P 
ATOM      2  O   UNL     1       7.507  -0.272  24.782  0.00  0.00    -0.227 OA
ENDROOT
BRANCH   1   3
ATOM      3  O   UNL     1       9.322  -0.398  26.655  0.00  0.00    -0.302 OA
ATOM      4  H   UNL     1       9.894   0.393  26.704  0.00  0.00    +0.222 HD
ENDBRANCH   1   3
BRANCH   1   5
ATOM      5  O   UNL     1       9.058  -2.282  25.079  0.00  0.00    -0.281 OA
BRANCH   5   6
ATOM      6  C   UNL     1       7.902  -3.023  24.739  0.00  0.00    +0.223 C 
BRANCH   6   7
ATOM      7  C   UNL     1       7.934  -3.482  23.287  0.00  0.00    +0.161 C 
BRANCH   7   9
ATOM      8  C   UNL     1       5.843  -3.445  21.963  0.00  0.00    +0.192 C 
ATOM      9  N   UNL     1       6.714  -4.331  22.850  0.00  0.00    +0.239 N 
ATOM     10  C   UNL     1       7.145  -5.552  22.039  0.00  0.00    +0.192 C 
ATOM     11  C   UNL     1       5.887  -4.794  24.045  0.00  0.00    +0.192 C 
ENDBRANCH   7   9
ENDBRANCH   6   7
ENDBRANCH   5   6
ENDBRANCH   1   5
BRANCH   1  12
ATOM     12  O   UNL     1      10.083  -0.169  24.199  0.00  0.00    -0.284 OA
BRANCH  12  13
ATOM     13  C   UNL     1      10.148   1.018  23.447  0.00  0.00    +0.206 C 
BRANCH  13  14
ATOM     14  C   UNL     1      10.006   0.944  21.923  0.00  0.00    +0.166 C 
BRANCH  14  15
ATOM     15  O   UNL     1       9.330   2.099  21.440  0.00  0.00    -0.387 OA
ATOM     16  H   UNL     1       9.693   2.310  20.561  0.00  0.00    +0.210 HD
ENDBRANCH  14  15
BRANCH  14  17
ATOM     17  C   UNL     1       9.349  -0.343  21.412  0.00  0.00    +0.189 C 
BRANCH  17  18
ATOM     18  O   UNL     1      10.234  -1.453  21.491  0.00  0.00    -0.392 OA
ATOM     19  H   UNL     1       9.747  -2.249  21.213  0.00  0.00    +0.210 HD
ENDBRANCH  17  18
ENDBRANCH  14  17
ENDBRANCH  13  14
ENDBRANCH  12  13
ENDBRANCH   1  12
TORSDOF 11
ENDMDL
