MODEL 1
REMARK VINA RESULT:      -6.5      0.000      0.000
REMARK  Name = 
REMARK  6 active torsions:
REMARK  status: ('A' for Active; 'I' for Inactive)
REMARK    1  A    between atoms: O5*_1  and  C5*_2
REMARK    2  A    between atoms: C5*_2  and  C4*_3
REMARK    3  A    between atoms: C1*_6  and  N9_14
REMARK    4  A    between atoms: C2*_8  and  O2*_10
REMARK    5  A    between atoms: C3*_11  and  O3*_13
REMARK    6  A    between atoms: C6_18  and  O6_19
REMARK                            x       y       z     vdW  Elec       q    Type
REMARK                         _______ _______ _______ _____ _____    ______ ____
ROOT
ATOM      1  C4*   I A   1       9.132  -4.427  24.850  0.00  0.00    +0.177 C 
ATOM      2  C3*   I A   1       7.873  -4.916  24.141  0.00  0.00    +0.178 C 
ATOM      3  C2*   I A   1       7.163  -3.659  23.662  0.00  0.00    +0.193 C 
ATOM      4  C1*   I A   1       8.048  -2.494  24.142  0.00  0.00    +0.240 C 
ATOM      5  O4*   I A   1       9.335  -3.056  24.454  0.00  0.00    -0.348 OA
ENDROOT
BRANCH   4   6
ATOM      6  N9    I A   1       8.231  -1.514  23.091  0.00  0.00    -0.270 N 
ATOM      7  C4    I A   1       8.703  -0.233  23.448  0.00  0.00    +0.152 A 
ATOM      8  C5    I A   1       9.399   0.299  22.381  0.00  0.00    +0.131 A 
ATOM      9  C6    I A   1       9.819   1.594  22.519  0.00  0.00    +0.239 A 
ATOM     10  N1    I A   1       9.632   2.307  23.636  0.00  0.00    -0.200 NA
ATOM     11  C2    I A   1       8.969   1.672  24.622  0.00  0.00    +0.227 A 
ATOM     12  N7    I A   1       9.518  -0.591  21.287  0.00  0.00    -0.321 N 
ATOM     13  H7    I A   1      10.488  -0.673  20.994  0.00  0.00    +0.148 HD
ATOM     14  N3    I A   1       8.487   0.410  24.600  0.00  0.00    -0.219 NA
ATOM     15  C8    I A   1       9.035  -1.843  21.921  0.00  0.00    +0.214 C 
BRANCH   9  16
ATOM     16  O6    I A   1      10.443   2.233  21.485  0.00  0.00    -0.491 OA
ATOM     17  H6    I A   1      11.382   1.996  21.577  0.00  0.00    +0.294 HD
ENDBRANCH   9  16
ENDBRANCH   4   6
BRANCH   2  18
ATOM     18  O3*   I A   1       8.262  -5.725  23.012  0.00  0.00    -0.386 OA
ATOM     19  H3*   I A   1       8.439  -5.124  22.265  0.00  0.00    +0.210 HD
ENDBRANCH   2  18
BRANCH   3  20
ATOM     20  O2*   I A   1       5.828  -3.568  24.166  0.00  0.00    -0.385 OA
ATOM     21  H2*   I A   1       5.292  -4.097  23.539  0.00  0.00    +0.210 HD
ENDBRANCH   3  20
BRANCH   1  22
ATOM     22  C5*   I A   1       9.032  -4.537  26.376  0.00  0.00    +0.190 C 
BRANCH  22  23
ATOM     23  O5*   I A   1       8.318  -5.704  26.768  0.00  0.00    -0.392 OA
ATOM     24  H5*   I A   1       8.562  -6.413  26.148  0.00  0.00    +0.210 HD
ENDBRANCH  22  23
ENDBRANCH   1  22
TORSDOF 6
ENDMDL
MODEL 2
REMARK VINA RESULT:      -6.4      1.413      1.584
REMARK  Name = 
REMARK  6 active torsions:
REMARK  status: ('A' for Active; 'I' for Inactive)
REMARK    1  A    between atoms: O5*_1  and  C5*_2
REMARK    2  A    between atoms: C5*_2  and  C4*_3
REMARK    3  A    between atoms: C1*_6  and  N9_14
REMARK    4  A    between atoms: C2*_8  and  O2*_10
REMARK    5  A    between atoms: C3*_11  and  O3*_13
REMARK    6  A    between atoms: C6_18  and  O6_19
REMARK                            x       y       z     vdW  Elec       q    Type
REMARK                         _______ _______ _______ _____ _____    ______ ____
ROOT
ATOM      1  C4*   I A   1       8.563  -3.715  25.888  0.00  0.00    +0.177 C 
ATOM      2  C3*   I A   1       8.650  -4.909  24.941  0.00  0.00    +0.178 C 
ATOM      3  C2*   I A   1       8.173  -4.392  23.593  0.00  0.00    +0.193 C 
ATOM      4  C1*   I A   1       7.811  -2.915  23.837  0.00  0.00    +0.240 C 
ATOM      5  O4*   I A   1       8.446  -2.535  25.070  0.00  0.00    -0.348 OA
ENDROOT
BRANCH   4   6
ATOM      6  N9    I A   1       8.337  -2.071  22.784  0.00  0.00    -0.270 N 
ATOM      7  C4    I A   1       7.985  -0.705  22.786  0.00  0.00    +0.152 A 
ATOM      8  C5    I A   1       8.999   0.018  22.190  0.00  0.00    +0.131 A 
ATOM      9  C6    I A   1       8.759   1.352  22.000  0.00  0.00    +0.239 A 
ATOM     10  N1    I A   1       7.639   1.959  22.411  0.00  0.00    -0.200 NA
ATOM     11  C2    I A   1       6.736   1.157  23.008  0.00  0.00    +0.227 A 
ATOM     12  N7    I A   1      10.116  -0.773  21.830  0.00  0.00    -0.321 N 
ATOM     13  H7    I A   1      10.975  -0.371  22.196  0.00  0.00    +0.148 HD
ATOM     14  N3    I A   1       6.845  -0.170  23.234  0.00  0.00    -0.219 NA
ATOM     15  C8    I A   1       9.770  -2.038  22.524  0.00  0.00    +0.214 C 
BRANCH   9  16
ATOM     16  O6    I A   1       9.670   2.131  21.345  0.00  0.00    -0.491 OA
ATOM     17  H6    I A   1       9.135   2.766  20.838  0.00  0.00    +0.294 HD
ENDBRANCH   9  16
ENDBRANCH   4   6
BRANCH   2  18
ATOM     18  O3*   I A   1      10.027  -5.328  24.850  0.00  0.00    -0.386 OA
ATOM     19  H3*   I A   1      10.587  -4.545  25.006  0.00  0.00    +0.210 HD
ENDBRANCH   2  18
BRANCH   3  20
ATOM     20  O2*   I A   1       7.066  -5.144  23.088  0.00  0.00    -0.385 OA
ATOM     21  H2*   I A   1       6.671  -4.568  22.400  0.00  0.00    +0.210 HD
ENDBRANCH   3  20
BRANCH   1  22
ATOM     22  C5*   I A   1       7.382  -3.816  26.860  0.00  0.00    +0.190 C 
BRANCH  22  23
ATOM     23  O5*   I A   1       7.410  -5.039  27.588  0.00  0.00    -0.392 OA
ATOM     24  H5*   I A   1       8.118  -4.963  28.251  0.00  0.00    +0.210 HD
ENDBRANCH  22  23
ENDBRANCH   1  22
TORSDOF 6
ENDMDL
MODEL 3
REMARK VINA RESULT:      -6.3      1.521      2.521
REMARK  Name = 
REMARK  6 active torsions:
REMARK  status: ('A' for Active; 'I' for Inactive)
REMARK    1  A    between atoms: O5*_1  and  C5*_2
REMARK    2  A    between atoms: C5*_2  and  C4*_3
REMARK    3  A    between atoms: C1*_6  and  N9_14
REMARK    4  A    between atoms: C2*_8  and  O2*_10
REMARK    5  A    between atoms: C3*_11  and  O3*_13
REMARK    6  A    between atoms: C6_18  and  O6_19
REMARK                            x       y       z     vdW  Elec       q    Type
REMARK                         _______ _______ _______ _____ _____    ______ ____
ROOT
ATOM      1  C4*   I A   1       8.412  -4.318  26.708  0.00  0.00    +0.177 C 
ATOM      2  C3*   I A   1       9.028  -4.993  25.486  0.00  0.00    +0.178 C 
ATOM      3  C2*   I A   1       9.141  -3.901  24.434  0.00  0.00    +0.193 C 
ATOM      4  C1*   I A   1       8.559  -2.642  25.102  0.00  0.00    +0.240 C 
ATOM      5  O4*   I A   1       8.546  -2.896  26.518  0.00  0.00    -0.348 OA
ENDROOT
BRANCH   4   6
ATOM      6  N9    I A   1       9.404  -1.490  24.862  0.00  0.00    -0.270 N 
ATOM      7  C4    I A   1       9.329  -0.858  23.603  0.00  0.00    +0.152 A 
ATOM      8  C5    I A   1       9.648   0.477  23.755  0.00  0.00    +0.131 A 
ATOM      9  C6    I A   1       9.742   1.209  22.603  0.00  0.00    +0.239 A 
ATOM     10  N1    I A   1       9.488   0.702  21.391  0.00  0.00    -0.200 NA
ATOM     11  C2    I A   1       9.155  -0.604  21.371  0.00  0.00    +0.227 A 
ATOM     12  N7    I A   1       9.871   0.852  25.100  0.00  0.00    -0.321 N 
ATOM     13  H7    I A   1       9.312   1.665  25.345  0.00  0.00    +0.148 HD
ATOM     14  N3    I A   1       9.049  -1.435  22.431  0.00  0.00    -0.219 NA
ATOM     15  C8    I A   1       9.386  -0.368  25.792  0.00  0.00    +0.214 C 
BRANCH   9  16
ATOM     16  O6    I A   1      10.133   2.518  22.646  0.00  0.00    -0.491 OA
ATOM     17  H6    I A   1      11.031   2.522  22.272  0.00  0.00    +0.294 HD
ENDBRANCH   9  16
ENDBRANCH   4   6
BRANCH   2  18
ATOM     18  O3*   I A   1      10.340  -5.479  25.837  0.00  0.00    -0.386 OA
ATOM     19  H3*   I A   1      10.868  -4.716  26.137  0.00  0.00    +0.210 HD
ENDBRANCH   2  18
BRANCH   3  20
ATOM     20  O2*   I A   1       8.451  -4.241  23.228  0.00  0.00    -0.385 OA
ATOM     21  H2*   I A   1       7.919  -5.030  23.463  0.00  0.00    +0.210 HD
ENDBRANCH   3  20
BRANCH   1  22
ATOM     22  C5*   I A   1       6.942  -4.698  26.916  0.00  0.00    +0.190 C 
BRANCH  22  23
ATOM     23  O5*   I A   1       6.689  -6.040  26.514  0.00  0.00    -0.392 OA
ATOM     24  H5*   I A   1       5.921  -6.353  27.024  0.00  0.00    +0.210 HD
ENDBRANCH  22  23
ENDBRANCH   1  22
TORSDOF 6
ENDMDL
MODEL 4
REMARK VINA RESULT:      -6.1      2.396      5.864
REMARK  Name = 
REMARK  6 active torsions:
REMARK  status: ('A' for Active; 'I' for Inactive)
REMARK    1  A    between atoms: O5*_1  and  C5*_2
REMARK    2  A    between atoms: C5*_2  and  C4*_3
REMARK    3  A    between atoms: C1*_6  and  N9_14
REMARK    4  A    between atoms: C2*_8  and  O2*_10
REMARK    5  A    between atoms: C3*_11  and  O3*_13
REMARK    6  A    between atoms: C6_18  and  O6_19
REMARK                            x       y       z     vdW  Elec       q    Type
REMARK                         _______ _______ _______ _____ _____    ______ ____
ROOT
ATOM      1  C4*   I A   1       9.339   0.976  23.314  0.00  0.00    +0.177 C 
ATOM      2  C3*   I A   1       9.723   0.500  21.916  0.00  0.00    +0.178 C 
ATOM      3  C2*   I A   1       9.647  -1.018  21.969  0.00  0.00    +0.193 C 
ATOM      4  C1*   I A   1       9.239  -1.346  23.417  0.00  0.00    +0.240 C 
ATOM      5  O4*   I A   1       8.706  -0.134  23.979  0.00  0.00    -0.348 OA
ENDROOT
BRANCH   4   6
ATOM      6  N9    I A   1       8.195  -2.350  23.448  0.00  0.00    -0.270 N 
ATOM      7  C4    I A   1       8.377  -3.476  24.280  0.00  0.00    +0.152 A 
ATOM      8  C5    I A   1       7.139  -3.940  24.676  0.00  0.00    +0.131 A 
ATOM      9  C6    I A   1       7.133  -5.107  25.391  0.00  0.00    +0.239 A 
ATOM     10  N1    I A   1       8.251  -5.751  25.749  0.00  0.00    -0.200 NA
ATOM     11  C2    I A   1       9.400  -5.185  25.332  0.00  0.00    +0.227 A 
ATOM     12  N7    I A   1       6.065  -3.137  24.226  0.00  0.00    -0.321 N 
ATOM     13  H7    I A   1       5.456  -2.883  24.998  0.00  0.00    +0.148 HD
ATOM     14  N3    I A   1       9.537  -4.053  24.607  0.00  0.00    -0.219 NA
ATOM     15  C8    I A   1       6.818  -1.961  23.721  0.00  0.00    +0.214 C 
BRANCH   9  16
ATOM     16  O6    I A   1       5.951  -5.688  25.756  0.00  0.00    -0.491 OA
ATOM     17  H6    I A   1       6.191  -6.593  26.021  0.00  0.00    +0.294 HD
ENDBRANCH   9  16
ENDBRANCH   4   6
BRANCH   2  18
ATOM     18  O3*   I A   1       8.758   1.010  20.972  0.00  0.00    -0.386 OA
ATOM     19  H3*   I A   1       9.007   0.683  20.088  0.00  0.00    +0.210 HD
ENDBRANCH   2  18
BRANCH   3  20
ATOM     20  O2*   I A   1      10.885  -1.633  21.604  0.00  0.00    -0.385 OA
ATOM     21  H2*   I A   1      11.452  -1.536  22.398  0.00  0.00    +0.210 HD
ENDBRANCH   3  20
BRANCH   1  22
ATOM     22  C5*   I A   1      10.545   1.471  24.122  0.00  0.00    +0.190 C 
BRANCH  22  23
ATOM     23  O5*   I A   1      10.696   0.739  25.332  0.00  0.00    -0.392 OA
ATOM     24  H5*   I A   1       9.859   0.268  25.491  0.00  0.00    +0.210 HD
ENDBRANCH  22  23
ENDBRANCH   1  22
TORSDOF 6
ENDMDL
MODEL 5
REMARK VINA RESULT:      -6.0      2.791      6.121
REMARK  Name = 
REMARK  6 active torsions:
REMARK  status: ('A' for Active; 'I' for Inactive)
REMARK    1  A    between atoms: O5*_1  and  C5*_2
REMARK    2  A    between atoms: C5*_2  and  C4*_3
REMARK    3  A    between atoms: C1*_6  and  N9_14
REMARK    4  A    between atoms: C2*_8  and  O2*_10
REMARK    5  A    between atoms: C3*_11  and  O3*_13
REMARK    6  A    between atoms: C6_18  and  O6_19
REMARK                            x       y       z     vdW  Elec       q    Type
REMARK                         _______ _______ _______ _____ _____    ______ ____
ROOT
ATOM      1  C4*   I A   1      10.209  -1.011  22.793  0.00  0.00    +0.177 C 
ATOM      2  C3*   I A   1       9.865   0.061  23.823  0.00  0.00    +0.178 C 
ATOM      3  C2*   I A   1       8.979  -0.631  24.847  0.00  0.00    +0.193 C 
ATOM      4  C1*   I A   1       8.838  -2.078  24.340  0.00  0.00    +0.240 C 
ATOM      5  O4*   I A   1       9.896  -2.286  23.388  0.00  0.00    -0.348 OA
ENDROOT
BRANCH   4   6
ATOM      6  N9    I A   1       9.015  -3.027  25.420  0.00  0.00    -0.270 N 
ATOM      7  C4    I A   1       7.879  -3.413  26.162  0.00  0.00    +0.152 A 
ATOM      8  C5    I A   1       8.077  -4.691  26.647  0.00  0.00    +0.131 A 
ATOM      9  C6    I A   1       7.115  -5.170  27.495  0.00  0.00    +0.239 A 
ATOM     10  N1    I A   1       6.008  -4.485  27.806  0.00  0.00    -0.200 NA
ATOM     11  C2    I A   1       5.910  -3.264  27.247  0.00  0.00    +0.227 A 
ATOM     12  N7    I A   1       9.288  -5.277  26.211  0.00  0.00    -0.321 N 
ATOM     13  H7    I A   1       9.120  -6.194  25.808  0.00  0.00    +0.148 HD
ATOM     14  N3    I A   1       6.796  -2.672  26.416  0.00  0.00    -0.219 NA
ATOM     15  C8    I A   1       9.690  -4.295  25.173  0.00  0.00    +0.214 C 
BRANCH   9  16
ATOM     16  O6    I A   1       7.264  -6.391  28.090  0.00  0.00    -0.491 OA
ATOM     17  H6    I A   1       7.107  -7.035  27.378  0.00  0.00    +0.294 HD
ENDBRANCH   9  16
ENDBRANCH   4   6
BRANCH   2  18
ATOM     18  O3*   I A   1      11.084   0.510  24.449  0.00  0.00    -0.386 OA
ATOM     19  H3*   I A   1      10.853   0.863  25.328  0.00  0.00    +0.210 HD
ENDBRANCH   2  18
BRANCH   3  20
ATOM     20  O2*   I A   1       7.712   0.017  24.990  0.00  0.00    -0.385 OA
ATOM     21  H2*   I A   1       7.858   0.689  25.689  0.00  0.00    +0.210 HD
ENDBRANCH   3  20
BRANCH   1  22
ATOM     22  C5*   I A   1       9.448  -0.831  21.475  0.00  0.00    +0.190 C 
BRANCH  22  23
ATOM     23  O5*   I A   1       9.321   0.543  21.130  0.00  0.00    -0.392 OA
ATOM     24  H5*   I A   1       8.372   0.725  21.018  0.00  0.00    +0.210 HD
ENDBRANCH  22  23
ENDBRANCH   1  22
TORSDOF 6
ENDMDL
MODEL 6
REMARK VINA RESULT:      -5.9      3.383      6.157
REMARK  Name = 
REMARK  6 active torsions:
REMARK  status: ('A' for Active; 'I' for Inactive)
REMARK    1  A    between atoms: O5*_1  and  C5*_2
REMARK    2  A    between atoms: C5*_2  and  C4*_3
REMARK    3  A    between atoms: C1*_6  and  N9_14
REMARK    4  A    between atoms: C2*_8  and  O2*_10
REMARK    5  A    between atoms: C3*_11  and  O3*_13
REMARK    6  A    between atoms: C6_18  and  O6_19
REMARK                            x       y       z     vdW  Elec       q    Type
REMARK                         _______ _______ _______ _____ _____    ______ ____
ROOT
ATOM      1  C4*   I A   1       9.230  -2.219  24.003  0.00  0.00    +0.177 C 
ATOM      2  C3*   I A   1       7.863  -1.678  24.414  0.00  0.00    +0.178 C 
ATOM      3  C2*   I A   1       6.858  -2.407  23.535  0.00  0.00    +0.193 C 
ATOM      4  C1*   I A   1       7.706  -3.326  22.637  0.00  0.00    +0.240 C 
ATOM      5  O4*   I A   1       8.998  -3.432  23.260  0.00  0.00    -0.348 OA
ENDROOT
BRANCH   4   6
ATOM      6  N9    I A   1       7.133  -4.655  22.566  0.00  0.00    -0.270 N 
ATOM      7  C4    I A   1       6.484  -5.163  23.712  0.00  0.00    +0.152 A 
ATOM      8  C5    I A   1       5.507  -6.053  23.312  0.00  0.00    +0.131 A 
ATOM      9  C6    I A   1       4.864  -6.732  24.311  0.00  0.00    +0.239 A 
ATOM     10  N1    I A   1       5.107  -6.522  25.611  0.00  0.00    -0.200 NA
ATOM     11  C2    I A   1       6.059  -5.608  25.879  0.00  0.00    +0.227 A 
ATOM     12  N7    I A   1       5.370  -6.144  21.907  0.00  0.00    -0.321 N 
ATOM     13  H7    I A   1       4.401  -6.016  21.631  0.00  0.00    +0.148 HD
ATOM     14  N3    I A   1       6.776  -4.890  24.987  0.00  0.00    -0.219 NA
ATOM     15  C8    I A   1       6.209  -4.993  21.491  0.00  0.00    +0.214 C 
BRANCH   9  16
ATOM     16  O6    I A   1       3.941  -7.693  24.011  0.00  0.00    -0.491 OA
ATOM     17  H6    I A   1       3.970  -8.310  24.762  0.00  0.00    +0.294 HD
ENDBRANCH   9  16
ENDBRANCH   4   6
BRANCH   2  18
ATOM     18  O3*   I A   1       7.634  -2.004  25.800  0.00  0.00    -0.386 OA
ATOM     19  H3*   I A   1       8.502  -2.055  26.240  0.00  0.00    +0.210 HD
ENDBRANCH   2  18
BRANCH   3  20
ATOM     20  O2*   I A   1       6.051  -1.502  22.775  0.00  0.00    -0.385 OA
ATOM     21  H2*   I A   1       5.147  -1.877  22.827  0.00  0.00    +0.210 HD
ENDBRANCH   3  20
BRANCH   1  22
ATOM     22  C5*   I A   1      10.034  -1.220  23.165  0.00  0.00    +0.190 C 
BRANCH  22  23
ATOM     23  O5*   I A   1      10.626  -1.846  22.033  0.00  0.00    -0.392 OA
ATOM     24  H5*   I A   1      10.363  -2.783  22.053  0.00  0.00    +0.210 HD
ENDBRANCH  22  23
ENDBRANCH   1  22
TORSDOF 6
ENDMDL
MODEL 7
REMARK VINA RESULT:      -5.9      3.164      6.326
REMARK  Name = 
REMARK  6 active torsions:
REMARK  status: ('A' for Active; 'I' for Inactive)
REMARK    1  A    between atoms: O5*_1  and  C5*_2
REMARK    2  A    between atoms: C5*_2  and  C4*_3
REMARK    3  A    between atoms: C1*_6  and  N9_14
REMARK    4  A    between atoms: C2*_8  and  O2*_10
REMARK    5  A    between atoms: C3*_11  and  O3*_13
REMARK    6  A    between atoms: C6_18  and  O6_19
REMARK                            x       y       z     vdW  Elec       q    Type
REMARK                         _______ _______ _______ _____ _____    ______ ____
ROOT
ATOM      1  C4*   I A   1       8.325  -0.843  22.271  0.00  0.00    +0.177 C 
ATOM      2  C3*   I A   1       9.525  -1.443  22.998  0.00  0.00    +0.178 C 
ATOM      3  C2*   I A   1       8.980  -2.645  23.755  0.00  0.00    +0.193 C 
ATOM      4  C1*   I A   1       7.473  -2.665  23.439  0.00  0.00    +0.240 C 
ATOM      5  O4*   I A   1       7.285  -1.840  22.277  0.00  0.00    -0.348 OA
ENDROOT
BRANCH   4   6
ATOM      6  N9    I A   1       7.029  -4.005  23.114  0.00  0.00    -0.270 N 
ATOM      7  C4    I A   1       6.441  -4.780  24.137  0.00  0.00    +0.152 A 
ATOM      8  C5    I A   1       5.550  -5.668  23.567  0.00  0.00    +0.131 A 
ATOM      9  C6    I A   1       4.983  -6.581  24.413  0.00  0.00    +0.239 A 
ATOM     10  N1    I A   1       5.214  -6.597  25.732  0.00  0.00    -0.200 NA
ATOM     11  C2    I A   1       6.075  -5.662  26.177  0.00  0.00    +0.227 A 
ATOM     12  N7    I A   1       5.412  -5.505  22.168  0.00  0.00    -0.321 N 
ATOM     13  H7    I A   1       4.433  -5.421  21.910  0.00  0.00    +0.148 HD
ATOM     14  N3    I A   1       6.714  -4.724  25.444  0.00  0.00    -0.219 NA
ATOM     15  C8    I A   1       6.134  -4.222  21.985  0.00  0.00    +0.214 C 
BRANCH   9  16
ATOM     16  O6    I A   1       4.153  -7.552  23.928  0.00  0.00    -0.491 OA
ATOM     17  H6    I A   1       4.507  -8.383  24.287  0.00  0.00    +0.294 HD
ENDBRANCH   9  16
ENDBRANCH   4   6
BRANCH   2  18
ATOM     18  O3*   I A   1      10.492  -1.873  22.018  0.00  0.00    -0.386 OA
ATOM     19  H3*   I A   1      11.347  -1.465  22.246  0.00  0.00    +0.210 HD
ENDBRANCH   2  18
BRANCH   3  20
ATOM     20  O2*   I A   1       9.238  -2.560  25.159  0.00  0.00    -0.385 OA
ATOM     21  H2*   I A   1      10.202  -2.393  25.222  0.00  0.00    +0.210 HD
ENDBRANCH   3  20
BRANCH   1  22
ATOM     22  C5*   I A   1       7.829   0.455  22.919  0.00  0.00    +0.190 C 
BRANCH  22  23
ATOM     23  O5*   I A   1       6.448   0.674  22.658  0.00  0.00    -0.392 OA
ATOM     24  H5*   I A   1       6.248   0.258  21.801  0.00  0.00    +0.210 HD
ENDBRANCH  22  23
ENDBRANCH   1  22
TORSDOF 6
ENDMDL
MODEL 8
REMARK VINA RESULT:      -5.8      2.180      6.103
REMARK  Name = 
REMARK  6 active torsions:
REMARK  status: ('A' for Active; 'I' for Inactive)
REMARK    1  A    between atoms: O5*_1  and  C5*_2
REMARK    2  A    between atoms: C5*_2  and  C4*_3
REMARK    3  A    between atoms: C1*_6  and  N9_14
REMARK    4  A    between atoms: C2*_8  and  O2*_10
REMARK    5  A    between atoms: C3*_11  and  O3*_13
REMARK    6  A    between atoms: C6_18  and  O6_19
REMARK                            x       y       z     vdW  Elec       q    Type
REMARK                         _______ _______ _______ _____ _____    ______ ____
ROOT
ATOM      1  C4*   I A   1       7.934   1.681  21.859  0.00  0.00    +0.177 C 
ATOM      2  C3*   I A   1       9.107   2.379  22.540  0.00  0.00    +0.178 C 
ATOM      3  C2*   I A   1       9.323   1.630  23.846  0.00  0.00    +0.193 C 
ATOM      4  C1*   I A   1       8.238   0.537  23.862  0.00  0.00    +0.240 C 
ATOM      5  O4*   I A   1       7.765   0.406  22.510  0.00  0.00    -0.348 OA
ENDROOT
BRANCH   4   6
ATOM      6  N9    I A   1       8.792  -0.739  24.268  0.00  0.00    -0.270 N 
ATOM      7  C4    I A   1       7.941  -1.865  24.269  0.00  0.00    +0.152 A 
ATOM      8  C5    I A   1       8.700  -2.996  24.042  0.00  0.00    +0.131 A 
ATOM      9  C6    I A   1       8.043  -4.192  24.135  0.00  0.00    +0.239 A 
ATOM     10  N1    I A   1       6.729  -4.288  24.372  0.00  0.00    -0.200 NA
ATOM     11  C2    I A   1       6.088  -3.116  24.545  0.00  0.00    +0.227 A 
ATOM     12  N7    I A   1      10.065  -2.717  23.793  0.00  0.00    -0.321 N 
ATOM     13  H7    I A   1      10.376  -3.171  22.939  0.00  0.00    +0.148 HD
ATOM     14  N3    I A   1       6.625  -1.877  24.499  0.00  0.00    -0.219 NA
ATOM     15  C8    I A   1      10.001  -1.243  23.631  0.00  0.00    +0.214 C 
BRANCH   9  16
ATOM     16  O6    I A   1       8.727  -5.369  24.007  0.00  0.00    -0.491 OA
ATOM     17  H6    I A   1       9.322  -5.229  23.251  0.00  0.00    +0.294 HD
ENDBRANCH   9  16
ENDBRANCH   4   6
BRANCH   2  18
ATOM     18  O3*   I A   1      10.273   2.253  21.700  0.00  0.00    -0.386 OA
ATOM     19  H3*   I A   1      10.615   3.150  21.530  0.00  0.00    +0.210 HD
ENDBRANCH   2  18
BRANCH   3  20
ATOM     20  O2*   I A   1       9.239   2.492  24.984  0.00  0.00    -0.385 OA
ATOM     21  H2*   I A   1       8.397   2.242  25.420  0.00  0.00    +0.210 HD
ENDBRANCH   3  20
BRANCH   1  22
ATOM     22  C5*   I A   1       6.638   2.497  21.929  0.00  0.00    +0.190 C 
BRANCH  22  23
ATOM     23  O5*   I A   1       6.902   3.872  22.186  0.00  0.00    -0.392 OA
ATOM     24  H5*   I A   1       7.505   4.184  21.488  0.00  0.00    +0.210 HD
ENDBRANCH  22  23
ENDBRANCH   1  22
TORSDOF 6
ENDMDL
MODEL 9
REMARK VINA RESULT:      -5.7      1.998      2.785
REMARK  Name = 
REMARK  6 active torsions:
REMARK  status: ('A' for Active; 'I' for Inactive)
REMARK    1  A    between atoms: O5*_1  and  C5*_2
REMARK    2  A    between atoms: C5*_2  and  C4*_3
REMARK    3  A    between atoms: C1*_6  and  N9_14
REMARK    4  A    between atoms: C2*_8  and  O2*_10
REMARK    5  A    between atoms: C3*_11  and  O3*_13
REMARK    6  A    between atoms: C6_18  and  O6_19
REMARK                            x       y       z     vdW  Elec       q    Type
REMARK                         _______ _______ _______ _____ _____    ______ ____
ROOT
ATOM      1  C4*   I A   1       7.933  -2.785  22.883  0.00  0.00    +0.177 C 
ATOM      2  C3*   I A   1       6.551  -2.263  23.264  0.00  0.00    +0.178 C 
ATOM      3  C2*   I A   1       6.766  -0.817  23.684  0.00  0.00    +0.193 C 
ATOM      4  C1*   I A   1       8.282  -0.582  23.541  0.00  0.00    +0.240 C 
ATOM      5  O4*   I A   1       8.785  -1.637  22.704  0.00  0.00    -0.348 OA
ENDROOT
BRANCH   4   6
ATOM      6  N9    I A   1       8.552   0.680  22.882  0.00  0.00    -0.270 N 
ATOM      7  C4    I A   1       8.624   1.845  23.675  0.00  0.00    +0.152 A 
ATOM      8  C5    I A   1       9.470   2.748  23.064  0.00  0.00    +0.131 A 
ATOM      9  C6    I A   1       9.554   3.985  23.644  0.00  0.00    +0.239 A 
ATOM     10  N1    I A   1       8.910   4.308  24.772  0.00  0.00    -0.200 NA
ATOM     11  C2    I A   1       8.138   3.335  25.294  0.00  0.00    +0.227 A 
ATOM     12  N7    I A   1      10.082   2.242  21.893  0.00  0.00    -0.321 N 
ATOM     13  H7    I A   1      11.090   2.367  21.930  0.00  0.00    +0.148 HD
ATOM     14  N3    I A   1       7.956   2.088  24.807  0.00  0.00    -0.219 NA
ATOM     15  C8    I A   1       9.708   0.810  22.006  0.00  0.00    +0.214 C 
BRANCH   9  16
ATOM     16  O6    I A   1      10.302   4.971  23.065  0.00  0.00    -0.491 OA
ATOM     17  H6    I A   1      11.202   4.833  23.407  0.00  0.00    +0.294 HD
ENDBRANCH   9  16
ENDBRANCH   4   6
BRANCH   2  18
ATOM     18  O3*   I A   1       5.698  -2.318  22.102  0.00  0.00    -0.386 OA
ATOM     19  H3*   I A   1       5.960  -1.591  21.508  0.00  0.00    +0.210 HD
ENDBRANCH   2  18
BRANCH   3  20
ATOM     20  O2*   I A   1       6.302  -0.565  25.013  0.00  0.00    -0.385 OA
ATOM     21  H2*   I A   1       5.965   0.355  24.986  0.00  0.00    +0.210 HD
ENDBRANCH   3  20
BRANCH   1  22
ATOM     22  C5*   I A   1       8.519  -3.731  23.938  0.00  0.00    +0.190 C 
BRANCH  22  23
ATOM     23  O5*   I A   1       9.913  -3.511  24.118  0.00  0.00    -0.392 OA
ATOM     24  H5*   I A   1      10.221  -2.982  23.361  0.00  0.00    +0.210 HD
ENDBRANCH  22  23
ENDBRANCH   1  22
TORSDOF 6
ENDMDL
