MODEL 1
REMARK VINA RESULT:      -5.1      0.000      0.000
REMARK  Name = 
REMARK  8 active torsions:
REMARK  status: ('A' for Active; 'I' for Inactive)
REMARK    1  A    between atoms: C_1  and  C_2
REMARK    2  A    between atoms: C_2  and  C_3
REMARK    3  A    between atoms: C_3  and  C_4
REMARK    4  A    between atoms: C_4  and  C_5
REMARK    5  A    between atoms: C_5  and  C_6
REMARK    6  A    between atoms: C_6  and  C_7
REMARK    7  A    between atoms: C_10  and  C_13
REMARK    8  A    between atoms: C_13  and  C_15
REMARK                            x       y       z     vdW  Elec       q    Type
REMARK                         _______ _______ _______ _____ _____    ______ ____
ROOT
ATOM      1  C   UNL     1       8.884  -0.914  24.254  0.00  0.00    -0.047 A 
ATOM      2  C   UNL     1       9.500  -1.757  23.320  0.00  0.00    +0.004 A 
ATOM      3  C   UNL     1       8.736  -2.643  22.553  0.00  0.00    +0.012 A 
ATOM      4  C   UNL     1       7.348  -2.701  22.725  0.00  0.00    +0.022 A 
ATOM      5  C   UNL     1       6.724  -1.806  23.598  0.00  0.00    +0.012 A 
ATOM      6  C   UNL     1       7.486  -0.915  24.353  0.00  0.00    +0.004 A 
ENDROOT
BRANCH   4   7
ATOM      7  C   UNL     1       6.486  -3.698  22.035  0.00  0.00    +0.186 C 
ATOM      8  O   UNL     1       5.341  -3.403  21.709  0.00  0.00    -0.287 OA
BRANCH   7   9
ATOM      9  C   UNL     1       7.031  -5.071  21.838  0.00  0.00    +0.044 C 
ATOM     10  C   UNL     1       6.297  -6.138  22.186  0.00  0.00    +0.012 C 
ENDBRANCH   7   9
ENDBRANCH   4   7
BRANCH   1  11
ATOM     11  C   UNL     1       9.705  -0.081  25.211  0.00  0.00    +0.035 C 
BRANCH  11  12
ATOM     12  C   UNL     1      10.618   0.862  24.419  0.00  0.00    +0.005 C 
BRANCH  12  13
ATOM     13  C   UNL     1       9.852   1.937  23.654  0.00  0.00    +0.000 C 
BRANCH  13  14
ATOM     14  C   UNL     1      10.122   1.796  22.153  0.00  0.00    -0.000 C 
BRANCH  14  16
ATOM     15  C   UNL     1       7.623   1.931  21.941  0.00  0.00    +0.004 C 
ATOM     16  C   UNL     1       8.894   1.301  21.395  0.00  0.00    -0.003 C 
ENDBRANCH  14  16
ENDBRANCH  13  14
ENDBRANCH  12  13
ENDBRANCH  11  12
ENDBRANCH   1  11
TORSDOF 7
ENDMDL
MODEL 2
REMARK VINA RESULT:      -5.0      2.837      6.829
REMARK  Name = 
REMARK  8 active torsions:
REMARK  status: ('A' for Active; 'I' for Inactive)
REMARK    1  A    between atoms: C_1  and  C_2
REMARK    2  A    between atoms: C_2  and  C_3
REMARK    3  A    between atoms: C_3  and  C_4
REMARK    4  A    between atoms: C_4  and  C_5
REMARK    5  A    between atoms: C_5  and  C_6
REMARK    6  A    between atoms: C_6  and  C_7
REMARK    7  A    between atoms: C_10  and  C_13
REMARK    8  A    between atoms: C_13  and  C_15
REMARK                            x       y       z     vdW  Elec       q    Type
REMARK                         _______ _______ _______ _____ _____    ______ ____
ROOT
ATOM      1  C   UNL     1       9.823  -0.538  22.795  0.00  0.00    -0.047 A 
ATOM      2  C   UNL     1       9.657   0.400  21.769  0.00  0.00    +0.004 A 
ATOM      3  C   UNL     1       9.933   1.753  21.996  0.00  0.00    +0.012 A 
ATOM      4  C   UNL     1      10.366   2.179  23.258  0.00  0.00    +0.022 A 
ATOM      5  C   UNL     1      10.608   1.233  24.258  0.00  0.00    +0.012 A 
ATOM      6  C   UNL     1      10.344  -0.116  24.027  0.00  0.00    +0.004 A 
ENDROOT
BRANCH   4   7
ATOM      7  C   UNL     1      10.562   3.611  23.607  0.00  0.00    +0.186 C 
ATOM      8  O   UNL     1       9.643   4.256  24.102  0.00  0.00    -0.287 OA
BRANCH   7   9
ATOM      9  C   UNL     1      11.866   4.242  23.258  0.00  0.00    +0.044 C 
ATOM     10  C   UNL     1      12.121   5.503  23.632  0.00  0.00    +0.012 C 
ENDBRANCH   7   9
ENDBRANCH   4   7
BRANCH   1  11
ATOM     11  C   UNL     1       9.365  -1.968  22.623  0.00  0.00    +0.035 C 
BRANCH  11  12
ATOM     12  C   UNL     1       9.624  -2.750  23.915  0.00  0.00    +0.005 C 
BRANCH  12  13
ATOM     13  C   UNL     1       8.484  -3.694  24.286  0.00  0.00    +0.000 C 
BRANCH  13  14
ATOM     14  C   UNL     1       7.628  -3.982  23.049  0.00  0.00    -0.000 C 
BRANCH  14  16
ATOM     15  C   UNL     1       6.662  -5.741  21.539  0.00  0.00    +0.004 C 
ATOM     16  C   UNL     1       7.475  -5.479  22.796  0.00  0.00    -0.003 C 
ENDBRANCH  14  16
ENDBRANCH  13  14
ENDBRANCH  12  13
ENDBRANCH  11  12
ENDBRANCH   1  11
TORSDOF 7
ENDMDL
MODEL 3
REMARK VINA RESULT:      -5.0      2.073      3.629
REMARK  Name = 
REMARK  8 active torsions:
REMARK  status: ('A' for Active; 'I' for Inactive)
REMARK    1  A    between atoms: C_1  and  C_2
REMARK    2  A    between atoms: C_2  and  C_3
REMARK    3  A    between atoms: C_3  and  C_4
REMARK    4  A    between atoms: C_4  and  C_5
REMARK    5  A    between atoms: C_5  and  C_6
REMARK    6  A    between atoms: C_6  and  C_7
REMARK    7  A    between atoms: C_10  and  C_13
REMARK    8  A    between atoms: C_13  and  C_15
REMARK                            x       y       z     vdW  Elec       q    Type
REMARK                         _______ _______ _______ _____ _____    ______ ____
ROOT
ATOM      1  C   UNL     1      10.411   2.035  23.316  0.00  0.00    -0.047 A 
ATOM      2  C   UNL     1      10.491   1.282  24.494  0.00  0.00    +0.004 A 
ATOM      3  C   UNL     1      10.217  -0.090  24.478  0.00  0.00    +0.012 A 
ATOM      4  C   UNL     1       9.848  -0.717  23.282  0.00  0.00    +0.022 A 
ATOM      5  C   UNL     1       9.845   0.017  22.092  0.00  0.00    +0.012 A 
ATOM      6  C   UNL     1      10.131   1.382  22.108  0.00  0.00    +0.004 A 
ENDROOT
BRANCH   4   7
ATOM      7  C   UNL     1       9.426  -2.141  23.210  0.00  0.00    +0.186 C 
ATOM      8  O   UNL     1      10.114  -3.015  23.728  0.00  0.00    -0.287 OA
BRANCH   7   9
ATOM      9  C   UNL     1       8.204  -2.467  22.422  0.00  0.00    +0.044 C 
ATOM     10  C   UNL     1       6.997  -2.108  22.881  0.00  0.00    +0.012 C 
ENDBRANCH   7   9
ENDBRANCH   4   7
BRANCH   1  11
ATOM     11  C   UNL     1      10.530   3.541  23.346  0.00  0.00    +0.035 C 
BRANCH  11  12
ATOM     12  C   UNL     1       9.386   4.132  24.178  0.00  0.00    +0.005 C 
BRANCH  12  13
ATOM     13  C   UNL     1       8.012   3.908  23.554  0.00  0.00    +0.000 C 
BRANCH  13  14
ATOM     14  C   UNL     1       7.116   3.148  24.536  0.00  0.00    -0.000 C 
BRANCH  14  16
ATOM     15  C   UNL     1       6.559   1.728  22.541  0.00  0.00    +0.004 C 
ATOM     16  C   UNL     1       6.791   1.741  24.042  0.00  0.00    -0.003 C 
ENDBRANCH  14  16
ENDBRANCH  13  14
ENDBRANCH  12  13
ENDBRANCH  11  12
ENDBRANCH   1  11
TORSDOF 7
ENDMDL
MODEL 4
REMARK VINA RESULT:      -5.0      2.354      3.269
REMARK  Name = 
REMARK  8 active torsions:
REMARK  status: ('A' for Active; 'I' for Inactive)
REMARK    1  A    between atoms: C_1  and  C_2
REMARK    2  A    between atoms: C_2  and  C_3
REMARK    3  A    between atoms: C_3  and  C_4
REMARK    4  A    between atoms: C_4  and  C_5
REMARK    5  A    between atoms: C_5  and  C_6
REMARK    6  A    between atoms: C_6  and  C_7
REMARK    7  A    between atoms: C_10  and  C_13
REMARK    8  A    between atoms: C_13  and  C_15
REMARK                            x       y       z     vdW  Elec       q    Type
REMARK                         _______ _______ _______ _____ _____    ______ ____
ROOT
ATOM      1  C   UNL     1       9.102  -1.146  22.276  0.00  0.00    -0.047 A 
ATOM      2  C   UNL     1       7.822  -1.684  22.459  0.00  0.00    +0.004 A 
ATOM      3  C   UNL     1       7.630  -2.782  23.303  0.00  0.00    +0.012 A 
ATOM      4  C   UNL     1       8.721  -3.359  23.964  0.00  0.00    +0.022 A 
ATOM      5  C   UNL     1       9.985  -2.775  23.846  0.00  0.00    +0.012 A 
ATOM      6  C   UNL     1      10.173  -1.672  23.013  0.00  0.00    +0.004 A 
ENDROOT
BRANCH   4   7
ATOM      7  C   UNL     1       8.613  -4.598  24.780  0.00  0.00    +0.186 C 
ATOM      8  O   UNL     1       9.485  -5.458  24.712  0.00  0.00    -0.287 OA
BRANCH   7   9
ATOM      9  C   UNL     1       7.382  -4.788  25.599  0.00  0.00    +0.044 C 
ATOM     10  C   UNL     1       7.482  -4.985  26.921  0.00  0.00    +0.012 C 
ENDBRANCH   7   9
ENDBRANCH   4   7
BRANCH   1  11
ATOM     11  C   UNL     1       9.357  -0.078  21.238  0.00  0.00    +0.035 C 
BRANCH  11  12
ATOM     12  C   UNL     1       9.011   1.297  21.820  0.00  0.00    +0.005 C 
BRANCH  12  13
ATOM     13  C   UNL     1      10.203   1.992  22.471  0.00  0.00    +0.000 C 
BRANCH  13  14
ATOM     14  C   UNL     1       9.933   2.192  23.965  0.00  0.00    -0.000 C 
BRANCH  14  16
ATOM     15  C   UNL     1       8.489   0.728  25.407  0.00  0.00    +0.004 C 
ATOM     16  C   UNL     1       8.504   1.812  24.343  0.00  0.00    -0.003 C 
ENDBRANCH  14  16
ENDBRANCH  13  14
ENDBRANCH  12  13
ENDBRANCH  11  12
ENDBRANCH   1  11
TORSDOF 7
ENDMDL
MODEL 5
REMARK VINA RESULT:      -4.9      1.861      2.937
REMARK  Name = 
REMARK  8 active torsions:
REMARK  status: ('A' for Active; 'I' for Inactive)
REMARK    1  A    between atoms: C_1  and  C_2
REMARK    2  A    between atoms: C_2  and  C_3
REMARK    3  A    between atoms: C_3  and  C_4
REMARK    4  A    between atoms: C_4  and  C_5
REMARK    5  A    between atoms: C_5  and  C_6
REMARK    6  A    between atoms: C_6  and  C_7
REMARK    7  A    between atoms: C_10  and  C_13
REMARK    8  A    between atoms: C_13  and  C_15
REMARK                            x       y       z     vdW  Elec       q    Type
REMARK                         _______ _______ _______ _____ _____    ______ ____
ROOT
ATOM      1  C   UNL     1      10.273   0.345  24.004  0.00  0.00    -0.047 A 
ATOM      2  C   UNL     1       9.739  -0.116  25.213  0.00  0.00    +0.004 A 
ATOM      3  C   UNL     1       9.366  -1.457  25.356  0.00  0.00    +0.012 A 
ATOM      4  C   UNL     1       9.515  -2.345  24.285  0.00  0.00    +0.022 A 
ATOM      5  C   UNL     1      10.122  -1.904  23.105  0.00  0.00    +0.012 A 
ATOM      6  C   UNL     1      10.504  -0.570  22.968  0.00  0.00    +0.004 A 
ENDROOT
BRANCH   4   7
ATOM      7  C   UNL     1       9.031  -3.751  24.323  0.00  0.00    +0.186 C 
ATOM      8  O   UNL     1       9.769  -4.646  24.722  0.00  0.00    -0.287 OA
BRANCH   7   9
ATOM      9  C   UNL     1       7.671  -4.035  23.783  0.00  0.00    +0.044 C 
ATOM     10  C   UNL     1       7.455  -5.146  23.066  0.00  0.00    +0.012 C 
ENDBRANCH   7   9
ENDBRANCH   4   7
BRANCH   1  11
ATOM     11  C   UNL     1      10.516   1.819  23.773  0.00  0.00    +0.035 C 
BRANCH  11  12
ATOM     12  C   UNL     1       9.997   2.214  22.386  0.00  0.00    +0.005 C 
BRANCH  12  13
ATOM     13  C   UNL     1       8.567   2.746  22.409  0.00  0.00    +0.000 C 
BRANCH  13  14
ATOM     14  C   UNL     1       7.602   1.658  21.927  0.00  0.00    -0.000 C 
BRANCH  14  16
ATOM     15  C   UNL     1       6.704  -0.406  23.040  0.00  0.00    +0.004 C 
ATOM     16  C   UNL     1       6.742   1.113  23.063  0.00  0.00    -0.003 C 
ENDBRANCH  14  16
ENDBRANCH  13  14
ENDBRANCH  12  13
ENDBRANCH  11  12
ENDBRANCH   1  11
TORSDOF 7
ENDMDL
MODEL 6
REMARK VINA RESULT:      -4.9      2.914      6.341
REMARK  Name = 
REMARK  8 active torsions:
REMARK  status: ('A' for Active; 'I' for Inactive)
REMARK    1  A    between atoms: C_1  and  C_2
REMARK    2  A    between atoms: C_2  and  C_3
REMARK    3  A    between atoms: C_3  and  C_4
REMARK    4  A    between atoms: C_4  and  C_5
REMARK    5  A    between atoms: C_5  and  C_6
REMARK    6  A    between atoms: C_6  and  C_7
REMARK    7  A    between atoms: C_10  and  C_13
REMARK    8  A    between atoms: C_13  and  C_15
REMARK                            x       y       z     vdW  Elec       q    Type
REMARK                         _______ _______ _______ _____ _____    ______ ____
ROOT
ATOM      1  C   UNL     1       9.869  -0.452  22.587  0.00  0.00    -0.047 A 
ATOM      2  C   UNL     1       9.506   0.536  21.663  0.00  0.00    +0.004 A 
ATOM      3  C   UNL     1       9.750   1.886  21.938  0.00  0.00    +0.012 A 
ATOM      4  C   UNL     1      10.349   2.259  23.146  0.00  0.00    +0.022 A 
ATOM      5  C   UNL     1      10.784   1.270  24.033  0.00  0.00    +0.012 A 
ATOM      6  C   UNL     1      10.551  -0.076  23.753  0.00  0.00    +0.004 A 
ENDROOT
BRANCH   4   7
ATOM      7  C   UNL     1      10.530   3.676  23.559  0.00  0.00    +0.186 C 
ATOM      8  O   UNL     1       9.581   4.314  24.004  0.00  0.00    -0.287 OA
BRANCH   7   9
ATOM      9  C   UNL     1      11.862   4.304  23.331  0.00  0.00    +0.044 C 
ATOM     10  C   UNL     1      12.030   5.615  23.555  0.00  0.00    +0.012 C 
ENDBRANCH   7   9
ENDBRANCH   4   7
BRANCH   1  11
ATOM     11  C   UNL     1       9.456  -1.892  22.389  0.00  0.00    +0.035 C 
BRANCH  11  12
ATOM     12  C   UNL     1       7.930  -2.007  22.472  0.00  0.00    +0.005 C 
BRANCH  12  13
ATOM     13  C   UNL     1       7.399  -1.930  23.900  0.00  0.00    +0.000 C 
BRANCH  13  14
ATOM     14  C   UNL     1       6.406  -0.770  24.021  0.00  0.00    -0.000 C 
BRANCH  14  16
ATOM     15  C   UNL     1       6.735   1.718  24.083  0.00  0.00    +0.004 C 
ATOM     16  C   UNL     1       6.990   0.404  24.801  0.00  0.00    -0.003 C 
ENDBRANCH  14  16
ENDBRANCH  13  14
ENDBRANCH  12  13
ENDBRANCH  11  12
ENDBRANCH   1  11
TORSDOF 7
ENDMDL
MODEL 7
REMARK VINA RESULT:      -4.8      2.842      5.365
REMARK  Name = 
REMARK  8 active torsions:
REMARK  status: ('A' for Active; 'I' for Inactive)
REMARK    1  A    between atoms: C_1  and  C_2
REMARK    2  A    between atoms: C_2  and  C_3
REMARK    3  A    between atoms: C_3  and  C_4
REMARK    4  A    between atoms: C_4  and  C_5
REMARK    5  A    between atoms: C_5  and  C_6
REMARK    6  A    between atoms: C_6  and  C_7
REMARK    7  A    between atoms: C_10  and  C_13
REMARK    8  A    between atoms: C_13  and  C_15
REMARK                            x       y       z     vdW  Elec       q    Type
REMARK                         _______ _______ _______ _____ _____    ______ ____
ROOT
ATOM      1  C   UNL     1       8.597  -3.257  25.824  0.00  0.00    -0.047 A 
ATOM      2  C   UNL     1       9.336  -3.584  24.680  0.00  0.00    +0.004 A 
ATOM      3  C   UNL     1       9.908  -2.577  23.896  0.00  0.00    +0.012 A 
ATOM      4  C   UNL     1       9.735  -1.232  24.244  0.00  0.00    +0.022 A 
ATOM      5  C   UNL     1       9.067  -0.909  25.428  0.00  0.00    +0.012 A 
ATOM      6  C   UNL     1       8.507  -1.914  26.216  0.00  0.00    +0.004 A 
ENDROOT
BRANCH   4   7
ATOM      7  C   UNL     1      10.210  -0.107  23.396  0.00  0.00    +0.186 C 
ATOM      8  O   UNL     1      10.806   0.838  23.903  0.00  0.00    -0.287 OA
BRANCH   7   9
ATOM      9  C   UNL     1       9.862  -0.131  21.947  0.00  0.00    +0.044 C 
ATOM     10  C   UNL     1       8.995   0.762  21.452  0.00  0.00    +0.012 C 
ENDBRANCH   7   9
ENDBRANCH   4   7
BRANCH   1  11
ATOM     11  C   UNL     1       7.827  -4.314  26.582  0.00  0.00    +0.035 C 
BRANCH  11  12
ATOM     12  C   UNL     1       7.060  -5.200  25.593  0.00  0.00    +0.005 C 
BRANCH  12  13
ATOM     13  C   UNL     1       5.640  -4.710  25.323  0.00  0.00    +0.000 C 
BRANCH  13  14
ATOM     14  C   UNL     1       5.544  -4.160  23.897  0.00  0.00    -0.000 C 
BRANCH  14  16
ATOM     15  C   UNL     1       6.418  -2.094  22.769  0.00  0.00    +0.004 C 
ATOM     16  C   UNL     1       5.525  -2.634  23.873  0.00  0.00    -0.003 C 
ENDBRANCH  14  16
ENDBRANCH  13  14
ENDBRANCH  12  13
ENDBRANCH  11  12
ENDBRANCH   1  11
TORSDOF 7
ENDMDL
MODEL 8
REMARK VINA RESULT:      -4.7      1.728      2.291
REMARK  Name = 
REMARK  8 active torsions:
REMARK  status: ('A' for Active; 'I' for Inactive)
REMARK    1  A    between atoms: C_1  and  C_2
REMARK    2  A    between atoms: C_2  and  C_3
REMARK    3  A    between atoms: C_3  and  C_4
REMARK    4  A    between atoms: C_4  and  C_5
REMARK    5  A    between atoms: C_5  and  C_6
REMARK    6  A    between atoms: C_6  and  C_7
REMARK    7  A    between atoms: C_10  and  C_13
REMARK    8  A    between atoms: C_13  and  C_15
REMARK                            x       y       z     vdW  Elec       q    Type
REMARK                         _______ _______ _______ _____ _____    ______ ____
ROOT
ATOM      1  C   UNL     1       9.479  -1.517  23.192  0.00  0.00    -0.047 A 
ATOM      2  C   UNL     1       8.414  -1.619  22.289  0.00  0.00    +0.004 A 
ATOM      3  C   UNL     1       7.583  -2.745  22.299  0.00  0.00    +0.012 A 
ATOM      4  C   UNL     1       7.818  -3.783  23.208  0.00  0.00    +0.022 A 
ATOM      5  C   UNL     1       8.830  -3.646  24.162  0.00  0.00    +0.012 A 
ATOM      6  C   UNL     1       9.651  -2.519  24.158  0.00  0.00    +0.004 A 
ENDROOT
BRANCH   4   7
ATOM      7  C   UNL     1       7.054  -5.059  23.197  0.00  0.00    +0.186 C 
ATOM      8  O   UNL     1       6.452  -5.424  24.202  0.00  0.00    -0.287 OA
BRANCH   7   9
ATOM      9  C   UNL     1       7.121  -5.902  21.970  0.00  0.00    +0.044 C 
ATOM     10  C   UNL     1       6.117  -5.873  21.083  0.00  0.00    +0.012 C 
ENDBRANCH   7   9
ENDBRANCH   4   7
BRANCH   1  11
ATOM     11  C   UNL     1      10.489  -0.399  23.081  0.00  0.00    +0.035 C 
BRANCH  11  12
ATOM     12  C   UNL     1      10.503   0.413  24.381  0.00  0.00    +0.005 C 
BRANCH  12  13
ATOM     13  C   UNL     1      10.116   1.875  24.179  0.00  0.00    +0.000 C 
BRANCH  13  14
ATOM     14  C   UNL     1       8.692   2.110  24.691  0.00  0.00    -0.000 C 
BRANCH  14  16
ATOM     15  C   UNL     1       6.853   0.428  25.003  0.00  0.00    +0.004 C 
ATOM     16  C   UNL     1       8.185   0.938  25.527  0.00  0.00    -0.003 C 
ENDBRANCH  14  16
ENDBRANCH  13  14
ENDBRANCH  12  13
ENDBRANCH  11  12
ENDBRANCH   1  11
TORSDOF 7
ENDMDL
MODEL 9
REMARK VINA RESULT:      -4.6      2.715      5.911
REMARK  Name = 
REMARK  8 active torsions:
REMARK  status: ('A' for Active; 'I' for Inactive)
REMARK    1  A    between atoms: C_1  and  C_2
REMARK    2  A    between atoms: C_2  and  C_3
REMARK    3  A    between atoms: C_3  and  C_4
REMARK    4  A    between atoms: C_4  and  C_5
REMARK    5  A    between atoms: C_5  and  C_6
REMARK    6  A    between atoms: C_6  and  C_7
REMARK    7  A    between atoms: C_10  and  C_13
REMARK    8  A    between atoms: C_13  and  C_15
REMARK                            x       y       z     vdW  Elec       q    Type
REMARK                         _______ _______ _______ _____ _____    ______ ____
ROOT
ATOM      1  C   UNL     1       7.161  -4.624  25.575  0.00  0.00    -0.047 A 
ATOM      2  C   UNL     1       8.450  -4.961  25.145  0.00  0.00    +0.004 A 
ATOM      3  C   UNL     1       9.282  -3.990  24.576  0.00  0.00    +0.012 A 
ATOM      4  C   UNL     1       8.825  -2.676  24.423  0.00  0.00    +0.022 A 
ATOM      5  C   UNL     1       7.569  -2.322  24.924  0.00  0.00    +0.012 A 
ATOM      6  C   UNL     1       6.746  -3.287  25.502  0.00  0.00    +0.004 A 
ENDROOT
BRANCH   4   7
ATOM      7  C   UNL     1       9.604  -1.623  23.719  0.00  0.00    +0.186 C 
ATOM      8  O   UNL     1      10.224  -0.782  24.363  0.00  0.00    -0.287 OA
BRANCH   7   9
ATOM      9  C   UNL     1       9.532  -1.578  22.232  0.00  0.00    +0.044 C 
ATOM     10  C   UNL     1       9.570  -0.399  21.595  0.00  0.00    +0.012 C 
ENDBRANCH   7   9
ENDBRANCH   4   7
BRANCH   1  11
ATOM     11  C   UNL     1       6.189  -5.689  26.027  0.00  0.00    +0.035 C 
BRANCH  11  12
ATOM     12  C   UNL     1       4.928  -5.639  25.157  0.00  0.00    +0.005 C 
BRANCH  12  13
ATOM     13  C   UNL     1       5.145  -6.194  23.753  0.00  0.00    +0.000 C 
BRANCH  13  14
ATOM     14  C   UNL     1       4.916  -5.090  22.717  0.00  0.00    -0.000 C 
BRANCH  14  16
ATOM     15  C   UNL     1       7.127  -5.868  21.814  0.00  0.00    +0.004 C 
ATOM     16  C   UNL     1       6.213  -4.673  22.030  0.00  0.00    -0.003 C 
ENDBRANCH  14  16
ENDBRANCH  13  14
ENDBRANCH  12  13
ENDBRANCH  11  12
ENDBRANCH   1  11
TORSDOF 7
ENDMDL
