MODEL 1
REMARK VINA RESULT:      -4.1      0.000      0.000
REMARK  Name = 
REMARK  8 active torsions:
REMARK  status: ('A' for Active; 'I' for Inactive)
REMARK    1  A    between atoms: C_1  and  C_2
REMARK    2  A    between atoms: C_2  and  C_3
REMARK    3  A    between atoms: C_2  and  C_4
REMARK    4  A    between atoms: C_4  and  C_5
REMARK    5  A    between atoms: C_5  and  N_7
REMARK    6  A    between atoms: C_5  and  P_8
REMARK    7  A    between atoms: P_8  and  O_9
REMARK    8  A    between atoms: P_8  and  O_10
REMARK                            x       y       z     vdW  Elec       q    Type
REMARK                         _______ _______ _______ _____ _____    ______ ____
ROOT
ATOM      1  C   UNL     1       8.712  -4.692  24.814  0.00  0.00    +0.166 C 
ENDROOT
BRANCH   1   2
ATOM      2  N   UNL     1      10.151  -5.101  24.864  0.00  0.00    -0.318 NA
ATOM      3  H   UNL     1      10.405  -5.555  23.989  0.00  0.00    +0.119 HD
ATOM      4  H   UNL     1      10.740  -4.264  24.938  0.00  0.00    +0.119 HD
ENDBRANCH   1   2
BRANCH   1   5
ATOM      5  P   UNL     1       7.911  -4.980  26.434  0.00  0.00    +0.344 P 
ATOM      6  O   UNL     1       7.233  -5.223  27.805  0.00  0.00    -0.257 OA
BRANCH   5   7
ATOM      7  O   UNL     1       7.582  -3.348  26.458  0.00  0.00    -0.323 OA
ATOM      8  H   UNL     1       6.647  -3.085  26.459  0.00  0.00    +0.220 HD
ENDBRANCH   5   7
BRANCH   5   9
ATOM      9  O   UNL     1       9.432  -4.858  27.087  0.00  0.00    -0.323 OA
ATOM     10  H   UNL     1      10.085  -4.538  26.418  0.00  0.00    +0.220 HD
ENDBRANCH   5   9
ENDBRANCH   1   5
BRANCH   1  11
ATOM     11  C   UNL     1       8.012  -5.443  23.663  0.00  0.00    +0.034 C 
BRANCH  11  13
ATOM     12  C   UNL     1       7.634  -3.214  22.455  0.00  0.00    +0.007 C 
ATOM     13  C   UNL     1       7.050  -4.587  22.821  0.00  0.00    -0.015 C 
ATOM     14  C   UNL     1       6.670  -5.339  21.540  0.00  0.00    +0.007 C 
ENDBRANCH  11  13
ENDBRANCH   1  11
TORSDOF 6
ENDMDL
MODEL 2
REMARK VINA RESULT:      -4.0      2.770      3.177
REMARK  Name = 
REMARK  8 active torsions:
REMARK  status: ('A' for Active; 'I' for Inactive)
REMARK    1  A    between atoms: C_1  and  C_2
REMARK    2  A    between atoms: C_2  and  C_3
REMARK    3  A    between atoms: C_2  and  C_4
REMARK    4  A    between atoms: C_4  and  C_5
REMARK    5  A    between atoms: C_5  and  N_7
REMARK    6  A    between atoms: C_5  and  P_8
REMARK    7  A    between atoms: P_8  and  O_9
REMARK    8  A    between atoms: P_8  and  O_10
REMARK                            x       y       z     vdW  Elec       q    Type
REMARK                         _______ _______ _______ _____ _____    ______ ____
ROOT
ATOM      1  C   UNL     1       7.499  -5.322  25.978  0.00  0.00    +0.166 C 
ENDROOT
BRANCH   1   2
ATOM      2  N   UNL     1       7.916  -5.783  27.339  0.00  0.00    -0.318 NA
ATOM      3  H   UNL     1       7.171  -5.588  28.006  0.00  0.00    +0.119 HD
ATOM      4  H   UNL     1       8.039  -6.801  27.330  0.00  0.00    +0.119 HD
ENDBRANCH   1   2
BRANCH   1   5
ATOM      5  P   UNL     1       8.912  -4.554  25.103  0.00  0.00    +0.344 P 
ATOM      6  O   UNL     1      10.108  -3.905  24.364  0.00  0.00    -0.257 OA
BRANCH   5   7
ATOM      7  O   UNL     1       8.364  -5.322  23.733  0.00  0.00    -0.323 OA
ATOM      8  H   UNL     1       7.472  -5.708  23.767  0.00  0.00    +0.220 HD
ENDBRANCH   5   7
BRANCH   5   9
ATOM      9  O   UNL     1       9.813  -5.830  25.666  0.00  0.00    -0.323 OA
ATOM     10  H   UNL     1       9.475  -6.152  26.536  0.00  0.00    +0.220 HD
ENDBRANCH   5   9
ENDBRANCH   1   5
BRANCH   1  11
ATOM     11  C   UNL     1       6.295  -4.368  26.113  0.00  0.00    +0.034 C 
BRANCH  11  13
ATOM     12  C   UNL     1       4.980  -4.064  23.933  0.00  0.00    +0.007 C 
ATOM     13  C   UNL     1       5.055  -4.769  25.295  0.00  0.00    -0.015 C 
ATOM     14  C   UNL     1       5.041  -6.288  25.084  0.00  0.00    +0.007 C 
ENDBRANCH  11  13
ENDBRANCH   1  11
TORSDOF 6
ENDMDL
MODEL 3
REMARK VINA RESULT:      -4.0      5.949      6.935
REMARK  Name = 
REMARK  8 active torsions:
REMARK  status: ('A' for Active; 'I' for Inactive)
REMARK    1  A    between atoms: C_1  and  C_2
REMARK    2  A    between atoms: C_2  and  C_3
REMARK    3  A    between atoms: C_2  and  C_4
REMARK    4  A    between atoms: C_4  and  C_5
REMARK    5  A    between atoms: C_5  and  N_7
REMARK    6  A    between atoms: C_5  and  P_8
REMARK    7  A    between atoms: P_8  and  O_9
REMARK    8  A    between atoms: P_8  and  O_10
REMARK                            x       y       z     vdW  Elec       q    Type
REMARK                         _______ _______ _______ _____ _____    ______ ____
ROOT
ATOM      1  C   UNL     1       9.802   0.536  21.852  0.00  0.00    +0.166 C 
ENDROOT
BRANCH   1   2
ATOM      2  N   UNL     1       8.864   1.451  21.130  0.00  0.00    -0.318 NA
ATOM      3  H   UNL     1       7.945   1.407  21.566  0.00  0.00    +0.119 HD
ATOM      4  H   UNL     1       9.188   2.419  21.232  0.00  0.00    +0.119 HD
ENDBRANCH   1   2
BRANCH   1   5
ATOM      5  P   UNL     1       9.027  -1.103  22.105  0.00  0.00    +0.344 P 
ATOM      6  O   UNL     1       8.372  -2.489  22.317  0.00  0.00    -0.257 OA
BRANCH   5   7
ATOM      7  O   UNL     1       9.250  -0.857  23.735  0.00  0.00    -0.323 OA
ATOM      8  H   UNL     1       9.371  -1.645  24.290  0.00  0.00    +0.220 HD
ENDBRANCH   5   7
BRANCH   5   9
ATOM      9  O   UNL     1      10.534  -1.739  21.819  0.00  0.00    -0.323 OA
ATOM     10  H   UNL     1      11.233  -1.235  22.301  0.00  0.00    +0.220 HD
ENDBRANCH   5   9
ENDBRANCH   1   5
BRANCH   1  11
ATOM     11  C   UNL     1      10.237   1.198  23.176  0.00  0.00    +0.034 C 
BRANCH  11  13
ATOM     12  C   UNL     1       8.956   2.939  24.554  0.00  0.00    +0.007 C 
ATOM     13  C   UNL     1       9.836   2.676  23.323  0.00  0.00    -0.015 C 
ATOM     14  C   UNL     1      11.093   3.551  23.397  0.00  0.00    +0.007 C 
ENDBRANCH  11  13
ENDBRANCH   1  11
TORSDOF 6
ENDMDL
MODEL 4
REMARK VINA RESULT:      -4.0      1.938      2.644
REMARK  Name = 
REMARK  8 active torsions:
REMARK  status: ('A' for Active; 'I' for Inactive)
REMARK    1  A    between atoms: C_1  and  C_2
REMARK    2  A    between atoms: C_2  and  C_3
REMARK    3  A    between atoms: C_2  and  C_4
REMARK    4  A    between atoms: C_4  and  C_5
REMARK    5  A    between atoms: C_5  and  N_7
REMARK    6  A    between atoms: C_5  and  P_8
REMARK    7  A    between atoms: P_8  and  O_9
REMARK    8  A    between atoms: P_8  and  O_10
REMARK                            x       y       z     vdW  Elec       q    Type
REMARK                         _______ _______ _______ _____ _____    ______ ____
ROOT
ATOM      1  C   UNL     1       9.089  -4.463  25.516  0.00  0.00    +0.166 C 
ENDROOT
BRANCH   1   2
ATOM      2  N   UNL     1      10.200  -5.453  25.354  0.00  0.00    -0.318 NA
ATOM      3  H   UNL     1       9.858  -6.386  25.578  0.00  0.00    +0.119 HD
ATOM      4  H   UNL     1      10.492  -5.478  24.371  0.00  0.00    +0.119 HD
ENDBRANCH   1   2
BRANCH   1   5
ATOM      5  P   UNL     1       7.532  -5.317  25.955  0.00  0.00    +0.344 P 
ATOM      6  O   UNL     1       6.214  -6.041  26.326  0.00  0.00    -0.257 OA
BRANCH   5   7
ATOM      7  O   UNL     1       6.988  -3.847  26.514  0.00  0.00    -0.323 OA
ATOM      8  H   UNL     1       6.102  -3.566  26.233  0.00  0.00    +0.220 HD
ENDBRANCH   5   7
BRANCH   5   9
ATOM      9  O   UNL     1       8.297  -5.763  27.359  0.00  0.00    -0.323 OA
ATOM     10  H   UNL     1       7.654  -5.863  28.102  0.00  0.00    +0.220 HD
ENDBRANCH   5   9
ENDBRANCH   1   5
BRANCH   1  11
ATOM     11  C   UNL     1       8.965  -3.625  24.227  0.00  0.00    +0.034 C 
BRANCH  11  13
ATOM     12  C   UNL     1      10.082  -1.809  22.803  0.00  0.00    +0.007 C 
ATOM     13  C   UNL     1       9.784  -2.323  24.220  0.00  0.00    -0.015 C 
ATOM     14  C   UNL     1       9.043  -1.238  25.010  0.00  0.00    +0.007 C 
ENDBRANCH  11  13
ENDBRANCH   1  11
TORSDOF 6
ENDMDL
MODEL 5
REMARK VINA RESULT:      -4.0      9.593     10.516
REMARK  Name = 
REMARK  8 active torsions:
REMARK  status: ('A' for Active; 'I' for Inactive)
REMARK    1  A    between atoms: C_1  and  C_2
REMARK    2  A    between atoms: C_2  and  C_3
REMARK    3  A    between atoms: C_2  and  C_4
REMARK    4  A    between atoms: C_4  and  C_5
REMARK    5  A    between atoms: C_5  and  N_7
REMARK    6  A    between atoms: C_5  and  P_8
REMARK    7  A    between atoms: P_8  and  O_9
REMARK    8  A    between atoms: P_8  and  O_10
REMARK                            x       y       z     vdW  Elec       q    Type
REMARK                         _______ _______ _______ _____ _____    ______ ____
ROOT
ATOM      1  C   UNL     1      11.555   4.840  23.579  0.00  0.00    +0.166 C 
ENDROOT
BRANCH   1   2
ATOM      2  N   UNL     1      10.243   5.468  23.227  0.00  0.00    -0.318 NA
ATOM      3  H   UNL     1       9.571   5.287  23.971  0.00  0.00    +0.119 HD
ATOM      4  H   UNL     1      10.356   6.487  23.179  0.00  0.00    +0.119 HD
ENDBRANCH   1   2
BRANCH   1   5
ATOM      5  P   UNL     1      12.907   5.602  22.609  0.00  0.00    +0.344 P 
ATOM      6  O   UNL     1      14.051   6.248  21.788  0.00  0.00    -0.257 OA
BRANCH   5   7
ATOM      7  O   UNL     1      13.933   4.539  23.374  0.00  0.00    -0.323 OA
ATOM      8  H   UNL     1      13.968   4.577  24.345  0.00  0.00    +0.220 HD
ENDBRANCH   5   7
BRANCH   5   9
ATOM      9  O   UNL     1      12.953   6.767  23.791  0.00  0.00    -0.323 OA
ATOM     10  H   UNL     1      12.119   7.295  23.808  0.00  0.00    +0.220 HD
ENDBRANCH   5   9
ENDBRANCH   1   5
BRANCH   1  11
ATOM     11  C   UNL     1      11.460   3.315  23.369  0.00  0.00    +0.034 C 
BRANCH  11  13
ATOM     12  C   UNL     1       9.947   1.758  22.005  0.00  0.00    +0.007 C 
ATOM     13  C   UNL     1      10.034   2.780  23.148  0.00  0.00    -0.015 C 
ATOM     14  C   UNL     1       9.511   2.145  24.442  0.00  0.00    +0.007 C 
ENDBRANCH  11  13
ENDBRANCH   1  11
TORSDOF 6
ENDMDL
MODEL 6
REMARK VINA RESULT:      -3.9      4.880      5.937
REMARK  Name = 
REMARK  8 active torsions:
REMARK  status: ('A' for Active; 'I' for Inactive)
REMARK    1  A    between atoms: C_1  and  C_2
REMARK    2  A    between atoms: C_2  and  C_3
REMARK    3  A    between atoms: C_2  and  C_4
REMARK    4  A    between atoms: C_4  and  C_5
REMARK    5  A    between atoms: C_5  and  N_7
REMARK    6  A    between atoms: C_5  and  P_8
REMARK    7  A    between atoms: P_8  and  O_9
REMARK    8  A    between atoms: P_8  and  O_10
REMARK                            x       y       z     vdW  Elec       q    Type
REMARK                         _______ _______ _______ _____ _____    ______ ____
ROOT
ATOM      1  C   UNL     1       9.273  -0.328  23.374  0.00  0.00    +0.166 C 
ENDROOT
BRANCH   1   2
ATOM      2  N   UNL     1      10.029  -0.559  24.645  0.00  0.00    -0.318 NA
ATOM      3  H   UNL     1      10.697  -1.316  24.510  0.00  0.00    +0.119 HD
ATOM      4  H   UNL     1      10.580   0.277  24.869  0.00  0.00    +0.119 HD
ENDBRANCH   1   2
BRANCH   1   5
ATOM      5  P   UNL     1       8.554  -1.898  22.766  0.00  0.00    +0.344 P 
ATOM      6  O   UNL     1       7.946  -3.225  22.251  0.00  0.00    -0.257 OA
BRANCH   5   7
ATOM      7  O   UNL     1       9.580  -2.672  23.822  0.00  0.00    -0.323 OA
ATOM      8  H   UNL     1      10.150  -2.113  24.377  0.00  0.00    +0.220 HD
ENDBRANCH   5   7
BRANCH   5   9
ATOM      9  O   UNL     1       9.643  -1.788  21.518  0.00  0.00    -0.323 OA
ATOM     10  H   UNL     1       9.210  -1.962  20.647  0.00  0.00    +0.220 HD
ENDBRANCH   5   9
ENDBRANCH   1   5
BRANCH   1  11
ATOM     11  C   UNL     1      10.207   0.337  22.342  0.00  0.00    +0.034 C 
BRANCH  11  13
ATOM     12  C   UNL     1       8.398   2.074  21.811  0.00  0.00    +0.007 C 
ATOM     13  C   UNL     1       9.893   1.813  22.042  0.00  0.00    -0.015 C 
ATOM     14  C   UNL     1      10.394   2.695  23.191  0.00  0.00    +0.007 C 
ENDBRANCH  11  13
ENDBRANCH   1  11
TORSDOF 6
ENDMDL
MODEL 7
REMARK VINA RESULT:      -3.9      6.412      6.989
REMARK  Name = 
REMARK  8 active torsions:
REMARK  status: ('A' for Active; 'I' for Inactive)
REMARK    1  A    between atoms: C_1  and  C_2
REMARK    2  A    between atoms: C_2  and  C_3
REMARK    3  A    between atoms: C_2  and  C_4
REMARK    4  A    between atoms: C_4  and  C_5
REMARK    5  A    between atoms: C_5  and  N_7
REMARK    6  A    between atoms: C_5  and  P_8
REMARK    7  A    between atoms: P_8  and  O_9
REMARK    8  A    between atoms: P_8  and  O_10
REMARK                            x       y       z     vdW  Elec       q    Type
REMARK                         _______ _______ _______ _____ _____    ______ ____
ROOT
ATOM      1  C   UNL     1      10.072   1.457  23.813  0.00  0.00    +0.166 C 
ENDROOT
BRANCH   1   2
ATOM      2  N   UNL     1       9.512   1.241  25.184  0.00  0.00    -0.318 NA
ATOM      3  H   UNL     1       8.781   1.926  25.364  0.00  0.00    +0.119 HD
ATOM      4  H   UNL     1       9.063   0.319  25.226  0.00  0.00    +0.119 HD
ENDBRANCH   1   2
BRANCH   1   5
ATOM      5  P   UNL     1       8.851   2.316  22.753  0.00  0.00    +0.344 P 
ATOM      6  O   UNL     1       7.818   3.043  21.858  0.00  0.00    -0.257 OA
BRANCH   5   7
ATOM      7  O   UNL     1       9.900   2.054  21.488  0.00  0.00    -0.323 OA
ATOM      8  H   UNL     1      10.849   2.047  21.694  0.00  0.00    +0.220 HD
ENDBRANCH   5   7
BRANCH   5   9
ATOM      9  O   UNL     1       9.555   3.727  23.271  0.00  0.00    -0.323 OA
ATOM     10  H   UNL     1       9.055   4.122  24.026  0.00  0.00    +0.220 HD
ENDBRANCH   5   9
ENDBRANCH   1   5
BRANCH   1  11
ATOM     11  C   UNL     1      10.517   0.101  23.227  0.00  0.00    +0.034 C 
BRANCH  11  13
ATOM     12  C   UNL     1       9.084  -1.414  21.736  0.00  0.00    +0.007 C 
ATOM     13  C   UNL     1       9.416  -0.972  23.169  0.00  0.00    -0.015 C 
ATOM     14  C   UNL     1       9.836  -2.193  23.995  0.00  0.00    +0.007 C 
ENDBRANCH  11  13
ENDBRANCH   1  11
TORSDOF 6
ENDMDL
MODEL 8
REMARK VINA RESULT:      -3.8      4.150      5.100
REMARK  Name = 
REMARK  8 active torsions:
REMARK  status: ('A' for Active; 'I' for Inactive)
REMARK    1  A    between atoms: C_1  and  C_2
REMARK    2  A    between atoms: C_2  and  C_3
REMARK    3  A    between atoms: C_2  and  C_4
REMARK    4  A    between atoms: C_4  and  C_5
REMARK    5  A    between atoms: C_5  and  N_7
REMARK    6  A    between atoms: C_5  and  P_8
REMARK    7  A    between atoms: P_8  and  O_9
REMARK    8  A    between atoms: P_8  and  O_10
REMARK                            x       y       z     vdW  Elec       q    Type
REMARK                         _______ _______ _______ _____ _____    ______ ____
ROOT
ATOM      1  C   UNL     1       9.997  -1.335  22.997  0.00  0.00    +0.166 C 
ENDROOT
BRANCH   1   2
ATOM      2  N   UNL     1      10.162  -1.507  21.520  0.00  0.00    -0.318 NA
ATOM      3  H   UNL     1      11.039  -1.988  21.330  0.00  0.00    +0.119 HD
ATOM      4  H   UNL     1       9.415  -2.114  21.163  0.00  0.00    +0.119 HD
ENDBRANCH   1   2
BRANCH   1   5
ATOM      5  P   UNL     1       8.832  -2.581  23.659  0.00  0.00    +0.344 P 
ATOM      6  O   UNL     1       7.846  -3.636  24.219  0.00  0.00    -0.257 OA
BRANCH   5   7
ATOM      7  O   UNL     1       8.759  -1.649  25.036  0.00  0.00    -0.323 OA
ATOM      8  H   UNL     1       9.603  -1.396  25.445  0.00  0.00    +0.220 HD
ENDBRANCH   5   7
BRANCH   5   9
ATOM      9  O   UNL     1      10.178  -3.444  24.107  0.00  0.00    -0.323 OA
ATOM     10  H   UNL     1      10.799  -3.560  23.348  0.00  0.00    +0.220 HD
ENDBRANCH   5   9
ENDBRANCH   1   5
BRANCH   1  11
ATOM     11  C   UNL     1       9.551   0.112  23.292  0.00  0.00    +0.034 C 
BRANCH  11  13
ATOM     12  C   UNL     1       8.401   1.525  21.488  0.00  0.00    +0.007 C 
ATOM     13  C   UNL     1       9.732   1.096  22.123  0.00  0.00    -0.015 C 
ATOM     14  C   UNL     1      10.492   2.338  22.603  0.00  0.00    +0.007 C 
ENDBRANCH  11  13
ENDBRANCH   1  11
TORSDOF 6
ENDMDL
MODEL 9
REMARK VINA RESULT:      -3.8      5.384      6.175
REMARK  Name = 
REMARK  8 active torsions:
REMARK  status: ('A' for Active; 'I' for Inactive)
REMARK    1  A    between atoms: C_1  and  C_2
REMARK    2  A    between atoms: C_2  and  C_3
REMARK    3  A    between atoms: C_2  and  C_4
REMARK    4  A    between atoms: C_4  and  C_5
REMARK    5  A    between atoms: C_5  and  N_7
REMARK    6  A    between atoms: C_5  and  P_8
REMARK    7  A    between atoms: P_8  and  O_9
REMARK    8  A    between atoms: P_8  and  O_10
REMARK                            x       y       z     vdW  Elec       q    Type
REMARK                         _______ _______ _______ _____ _____    ______ ____
ROOT
ATOM      1  C   UNL     1       9.499   1.100  22.742  0.00  0.00    +0.166 C 
ENDROOT
BRANCH   1   2
ATOM      2  N   UNL     1      10.119   2.068  21.783  0.00  0.00    -0.318 NA
ATOM      3  H   UNL     1       9.599   2.057  20.907  0.00  0.00    +0.119 HD
ATOM      4  H   UNL     1      10.036   3.019  22.158  0.00  0.00    +0.119 HD
ENDBRANCH   1   2
BRANCH   1   5
ATOM      5  P   UNL     1       8.810   1.987  24.187  0.00  0.00    +0.344 P 
ATOM      6  O   UNL     1       8.225   2.738  25.408  0.00  0.00    -0.257 OA
BRANCH   5   7
ATOM      7  O   UNL     1       9.949   1.193  25.104  0.00  0.00    -0.323 OA
ATOM      8  H   UNL     1       9.909   0.222  25.117  0.00  0.00    +0.220 HD
ENDBRANCH   5   7
BRANCH   5   9
ATOM      9  O   UNL     1       7.670   0.782  24.247  0.00  0.00    -0.323 OA
ATOM     10  H   UNL     1       6.787   1.135  24.514  0.00  0.00    +0.220 HD
ENDBRANCH   5   9
ENDBRANCH   1   5
BRANCH   1  11
ATOM     11  C   UNL     1      10.547   0.040  23.140  0.00  0.00    +0.034 C 
BRANCH  11  13
ATOM     12  C   UNL     1       9.907  -2.346  23.824  0.00  0.00    +0.007 C 
ATOM     13  C   UNL     1      10.233  -1.390  22.667  0.00  0.00    -0.015 C 
ATOM     14  C   UNL     1       9.061  -1.366  21.680  0.00  0.00    +0.007 C 
ENDBRANCH  11  13
ENDBRANCH   1  11
TORSDOF 6
ENDMDL
