MODEL 1
REMARK VINA RESULT:      -7.8      0.000      0.000
REMARK  Name = 
REMARK  8 active torsions:
REMARK  status: ('A' for Active; 'I' for Inactive)
REMARK    1  A    between atoms: C_1  and  C_2
REMARK    2  A    between atoms: C_4  and  N_5
REMARK    3  A    between atoms: C_9  and  C_11
REMARK    4  A    between atoms: N_13  and  C_14
REMARK    5  A    between atoms: C_15  and  C_16
REMARK    6  A    between atoms: N_28  and  C_29
REMARK    7  A    between atoms: C_29  and  C_30
REMARK    8  A    between atoms: C_30  and  O_31
REMARK                            x       y       z     vdW  Elec       q    Type
REMARK                         _______ _______ _______ _____ _____    ______ ____
ROOT
ATOM      1  N   UNL     1      10.560   1.581  22.851  0.00  0.00    -0.279 N 
ATOM      2  H   UNL     1      10.544   1.534  21.840  0.00  0.00    +0.155 HD
ATOM      3  C   UNL     1      10.317   0.455  23.559  0.00  0.00    +0.164 A 
ATOM      4  S   UNL     1      10.094  -1.030  22.717  0.00  0.00    -0.047 S 
ATOM      5  C   UNL     1       9.498  -1.750  24.154  0.00  0.00    +0.095 A 
ATOM      6  C   UNL     1       9.716  -0.902  25.211  0.00  0.00    +0.133 A 
ATOM      7  N   UNL     1      10.197   0.341  24.866  0.00  0.00    -0.232 NA
ENDROOT
BRANCH   1  19
ATOM      8  C   UNL     1      12.138   5.928  24.010  0.00  0.00    +0.088 C 
ATOM      9  C   UNL     1      10.996   5.007  23.705  0.00  0.00    +0.130 A 
ATOM     10  N   UNL     1       9.751   5.505  23.842  0.00  0.00    -0.218 NA
ATOM     11  C   UNL     1       8.729   4.648  23.707  0.00  0.00    +0.127 A 
ATOM     12  N   UNL     1       7.400   5.083  23.798  0.00  0.00    -0.313 N 
ATOM     13  C   UNL     1       7.203   6.521  24.034  0.00  0.00    +0.122 C 
ATOM     14  C   UNL     1       5.711   6.783  24.388  0.00  0.00    +0.103 C 
ATOM     15  N   UNL     1       4.704   6.247  23.424  0.00  0.00    -0.297 NA
ATOM     16  C   UNL     1       5.022   4.820  23.187  0.00  0.00    +0.103 C 
ATOM     17  C   UNL     1       6.481   4.538  22.776  0.00  0.00    +0.122 C 
ATOM     18  C   UNL     1       8.979   3.307  23.515  0.00  0.00    +0.087 A 
ATOM     19  C   UNL     1      10.262   2.890  23.255  0.00  0.00    +0.130 A 
ATOM     20  N   UNL     1      11.294   3.738  23.365  0.00  0.00    -0.217 NA
BRANCH  15  21
ATOM     21  C   UNL     1       4.691   7.053  22.185  0.00  0.00    +0.112 C 
BRANCH  21  22
ATOM     22  C   UNL     1       3.317   7.108  21.493  0.00  0.00    +0.171 C 
BRANCH  22  23
ATOM     23  O   UNL     1       3.462   7.096  20.076  0.00  0.00    -0.394 OA
ATOM     24  H   UNL     1       2.741   6.525  19.745  0.00  0.00    +0.209 HD
ENDBRANCH  22  23
ENDBRANCH  21  22
ENDBRANCH  15  21
ENDBRANCH   1  19
BRANCH   5  25
ATOM     25  C   UNL     1       8.820  -3.032  24.166  0.00  0.00    +0.256 C 
ATOM     26  N   UNL     1       7.443  -2.931  24.148  0.00  0.00    -0.280 N 
ATOM     27  H   UNL     1       7.072  -2.097  23.707  0.00  0.00    +0.155 HD
ATOM     28  O   UNL     1       9.439  -4.095  24.160  0.00  0.00    -0.269 OA
BRANCH  26  29
ATOM     29  C   UNL     1       6.601  -4.049  24.263  0.00  0.00    +0.055 A 
ATOM     30  C   UNL     1       6.360  -4.653  25.517  0.00  0.00    +0.062 A 
ATOM     31 CL   UNL     1       6.898  -3.946  27.007  0.00  0.00    -0.082 Cl
ATOM     32  C   UNL     1       5.533  -5.772  25.610  0.00  0.00    +0.022 A 
ATOM     33  C   UNL     1       4.933  -6.286  24.464  0.00  0.00    +0.002 A 
ATOM     34  C   UNL     1       5.127  -5.662  23.232  0.00  0.00    +0.005 A 
ATOM     35  C   UNL     1       5.950  -4.532  23.112  0.00  0.00    -0.028 A 
ATOM     36  C   UNL     1       6.108  -3.920  21.745  0.00  0.00    +0.046 C 
ENDBRANCH  26  29
ENDBRANCH   5  25
TORSDOF 6
ENDMDL
MODEL 2
REMARK VINA RESULT:      -7.6      3.446     10.016
REMARK  Name = 
REMARK  8 active torsions:
REMARK  status: ('A' for Active; 'I' for Inactive)
REMARK    1  A    between atoms: C_1  and  C_2
REMARK    2  A    between atoms: C_4  and  N_5
REMARK    3  A    between atoms: C_9  and  C_11
REMARK    4  A    between atoms: N_13  and  C_14
REMARK    5  A    between atoms: C_15  and  C_16
REMARK    6  A    between atoms: N_28  and  C_29
REMARK    7  A    between atoms: C_29  and  C_30
REMARK    8  A    between atoms: C_30  and  O_31
REMARK                            x       y       z     vdW  Elec       q    Type
REMARK                         _______ _______ _______ _____ _____    ______ ____
ROOT
ATOM      1  N   UNL     1       8.624  -2.090  22.311  0.00  0.00    -0.279 N 
ATOM      2  H   UNL     1       9.570  -2.199  21.968  0.00  0.00    +0.155 HD
ATOM      3  C   UNL     1       8.111  -0.845  22.423  0.00  0.00    +0.164 A 
ATOM      4  S   UNL     1       9.045   0.496  21.879  0.00  0.00    -0.047 S 
ATOM      5  C   UNL     1       7.967   1.563  22.677  0.00  0.00    +0.095 A 
ATOM      6  C   UNL     1       6.865   0.864  23.103  0.00  0.00    +0.133 A 
ATOM      7  N   UNL     1       6.948  -0.501  22.939  0.00  0.00    -0.232 NA
ENDROOT
BRANCH   1  19
ATOM      8  C   UNL     1       9.916  -5.130  25.750  0.00  0.00    +0.088 C 
ATOM      9  C   UNL     1       8.860  -4.585  24.837  0.00  0.00    +0.130 A 
ATOM     10  N   UNL     1       7.660  -5.199  24.850  0.00  0.00    -0.218 NA
ATOM     11  C   UNL     1       6.761  -4.806  23.937  0.00  0.00    +0.127 A 
ATOM     12  N   UNL     1       5.474  -5.362  23.899  0.00  0.00    -0.313 N 
ATOM     13  C   UNL     1       5.177  -6.380  24.918  0.00  0.00    +0.122 C 
ATOM     14  C   UNL     1       3.838  -7.085  24.564  0.00  0.00    +0.103 C 
ATOM     15  N   UNL     1       2.665  -6.190  24.331  0.00  0.00    -0.297 NA
ATOM     16  C   UNL     1       3.075  -5.155  23.354  0.00  0.00    +0.103 C 
ATOM     17  C   UNL     1       4.369  -4.398  23.711  0.00  0.00    +0.122 C 
ATOM     18  C   UNL     1       7.108  -3.868  22.990  0.00  0.00    +0.087 A 
ATOM     19  C   UNL     1       8.298  -3.192  23.115  0.00  0.00    +0.130 A 
ATOM     20  N   UNL     1       9.201  -3.558  24.035  0.00  0.00    -0.217 NA
BRANCH  15  21
ATOM     21  C   UNL     1       2.183  -5.622  25.609  0.00  0.00    +0.112 C 
BRANCH  21  22
ATOM     22  C   UNL     1       1.915  -6.679  26.697  0.00  0.00    +0.171 C 
BRANCH  22  23
ATOM     23  O   UNL     1       2.719  -6.438  27.847  0.00  0.00    -0.394 OA
ATOM     24  H   UNL     1       2.229  -6.832  28.595  0.00  0.00    +0.209 HD
ENDBRANCH  22  23
ENDBRANCH  21  22
ENDBRANCH  15  21
ENDBRANCH   1  19
BRANCH   5  25
ATOM     25  C   UNL     1       8.267   2.966  22.891  0.00  0.00    +0.256 C 
ATOM     26  N   UNL     1       9.151   3.192  23.929  0.00  0.00    -0.280 N 
ATOM     27  H   UNL     1       9.799   2.437  24.122  0.00  0.00    +0.155 HD
ATOM     28  O   UNL     1       7.790   3.850  22.180  0.00  0.00    -0.269 OA
BRANCH  26  29
ATOM     29  C   UNL     1       9.489   4.483  24.367  0.00  0.00    +0.055 A 
ATOM     30  C   UNL     1       8.629   5.210  25.219  0.00  0.00    +0.062 A 
ATOM     31 CL   UNL     1       7.225   4.499  25.948  0.00  0.00    -0.082 Cl
ATOM     32  C   UNL     1       8.974   6.497  25.632  0.00  0.00    +0.022 A 
ATOM     33  C   UNL     1      10.177   7.059  25.214  0.00  0.00    +0.002 A 
ATOM     34  C   UNL     1      11.052   6.325  24.414  0.00  0.00    +0.005 A 
ATOM     35  C   UNL     1      10.731   5.026  23.988  0.00  0.00    -0.028 A 
ATOM     36  C   UNL     1      11.731   4.303  23.126  0.00  0.00    +0.046 C 
ENDBRANCH  26  29
ENDBRANCH   5  25
TORSDOF 6
ENDMDL
MODEL 3
REMARK VINA RESULT:      -7.5      1.415      1.877
REMARK  Name = 
REMARK  8 active torsions:
REMARK  status: ('A' for Active; 'I' for Inactive)
REMARK    1  A    between atoms: C_1  and  C_2
REMARK    2  A    between atoms: C_4  and  N_5
REMARK    3  A    between atoms: C_9  and  C_11
REMARK    4  A    between atoms: N_13  and  C_14
REMARK    5  A    between atoms: C_15  and  C_16
REMARK    6  A    between atoms: N_28  and  C_29
REMARK    7  A    between atoms: C_29  and  C_30
REMARK    8  A    between atoms: C_30  and  O_31
REMARK                            x       y       z     vdW  Elec       q    Type
REMARK                         _______ _______ _______ _____ _____    ______ ____
ROOT
ATOM      1  N   UNL     1      10.564   0.829  23.265  0.00  0.00    -0.279 N 
ATOM      2  H   UNL     1      10.749   0.742  22.273  0.00  0.00    +0.155 HD
ATOM      3  C   UNL     1      10.153  -0.262  23.950  0.00  0.00    +0.164 A 
ATOM      4  S   UNL     1      10.061  -1.775  23.133  0.00  0.00    -0.047 S 
ATOM      5  C   UNL     1       9.170  -2.424  24.446  0.00  0.00    +0.095 A 
ATOM      6  C   UNL     1       9.196  -1.538  25.495  0.00  0.00    +0.133 A 
ATOM      7  N   UNL     1       9.771  -0.320  25.209  0.00  0.00    -0.232 NA
ENDROOT
BRANCH   1  19
ATOM      8  C   UNL     1      11.935   5.385  23.569  0.00  0.00    +0.088 C 
ATOM      9  C   UNL     1      10.842   4.360  23.597  0.00  0.00    +0.130 A 
ATOM     10  N   UNL     1       9.603   4.792  23.902  0.00  0.00    -0.218 NA
ATOM     11  C   UNL     1       8.652   3.861  24.066  0.00  0.00    +0.127 A 
ATOM     12  N   UNL     1       7.326   4.219  24.349  0.00  0.00    -0.313 N 
ATOM     13  C   UNL     1       7.049   5.660  24.440  0.00  0.00    +0.122 C 
ATOM     14  C   UNL     1       5.626   5.872  25.031  0.00  0.00    +0.103 C 
ATOM     15  N   UNL     1       4.515   5.147  24.345  0.00  0.00    -0.297 NA
ATOM     16  C   UNL     1       4.910   3.724  24.228  0.00  0.00    +0.103 C 
ATOM     17  C   UNL     1       6.293   3.482  23.591  0.00  0.00    +0.122 C 
ATOM     18  C   UNL     1       8.980   2.525  23.996  0.00  0.00    +0.087 A 
ATOM     19  C   UNL     1      10.229   2.159  23.555  0.00  0.00    +0.130 A 
ATOM     20  N   UNL     1      11.185   3.078  23.366  0.00  0.00    -0.217 NA
BRANCH  15  21
ATOM     21  C   UNL     1       4.213   5.774  23.040  0.00  0.00    +0.112 C 
BRANCH  21  22
ATOM     22  C   UNL     1       3.036   5.121  22.294  0.00  0.00    +0.171 C 
BRANCH  22  23
ATOM     23  O   UNL     1       3.067   5.452  20.909  0.00  0.00    -0.394 OA
ATOM     24  H   UNL     1       2.597   6.305  20.834  0.00  0.00    +0.209 HD
ENDBRANCH  22  23
ENDBRANCH  21  22
ENDBRANCH  15  21
ENDBRANCH   1  19
BRANCH   5  25
ATOM     25  C   UNL     1       8.467  -3.690  24.368  0.00  0.00    +0.256 C 
ATOM     26  N   UNL     1       7.105  -3.582  24.572  0.00  0.00    -0.280 N 
ATOM     27  H   UNL     1       6.696  -2.689  24.320  0.00  0.00    +0.155 HD
ATOM     28  O   UNL     1       9.050  -4.743  24.110  0.00  0.00    -0.269 OA
BRANCH  26  29
ATOM     29  C   UNL     1       6.260  -4.701  24.642  0.00  0.00    +0.055 A 
ATOM     30  C   UNL     1       5.708  -5.271  23.473  0.00  0.00    +0.062 A 
ATOM     31 CL   UNL     1       6.192  -4.778  21.882  0.00  0.00    -0.082 Cl
ATOM     32  C   UNL     1       4.858  -6.373  23.564  0.00  0.00    +0.022 A 
ATOM     33  C   UNL     1       4.566  -6.921  24.809  0.00  0.00    +0.002 A 
ATOM     34  C   UNL     1       5.149  -6.394  25.961  0.00  0.00    +0.005 A 
ATOM     35  C   UNL     1       6.011  -5.288  25.898  0.00  0.00    -0.028 A 
ATOM     36  C   UNL     1       6.597  -4.779  27.188  0.00  0.00    +0.046 C 
ENDBRANCH  26  29
ENDBRANCH   5  25
TORSDOF 6
ENDMDL
MODEL 4
REMARK VINA RESULT:      -7.2      3.428     10.384
REMARK  Name = 
REMARK  8 active torsions:
REMARK  status: ('A' for Active; 'I' for Inactive)
REMARK    1  A    between atoms: C_1  and  C_2
REMARK    2  A    between atoms: C_4  and  N_5
REMARK    3  A    between atoms: C_9  and  C_11
REMARK    4  A    between atoms: N_13  and  C_14
REMARK    5  A    between atoms: C_15  and  C_16
REMARK    6  A    between atoms: N_28  and  C_29
REMARK    7  A    between atoms: C_29  and  C_30
REMARK    8  A    between atoms: C_30  and  O_31
REMARK                            x       y       z     vdW  Elec       q    Type
REMARK                         _______ _______ _______ _____ _____    ______ ____
ROOT
ATOM      1  N   UNL     1       8.957  -2.432  24.077  0.00  0.00    -0.279 N 
ATOM      2  H   UNL     1       9.447  -2.462  24.963  0.00  0.00    +0.155 HD
ATOM      3  C   UNL     1       8.908  -1.263  23.399  0.00  0.00    +0.164 A 
ATOM      4  S   UNL     1       9.767   0.096  24.014  0.00  0.00    -0.047 S 
ATOM      5  C   UNL     1       8.926   1.115  22.921  0.00  0.00    +0.095 A 
ATOM      6  C   UNL     1       8.230   0.344  22.024  0.00  0.00    +0.133 A 
ATOM      7  N   UNL     1       8.239  -1.007  22.293  0.00  0.00    -0.232 NA
ENDROOT
BRANCH   1  19
ATOM      8  C   UNL     1       7.139  -6.283  21.934  0.00  0.00    +0.088 C 
ATOM      9  C   UNL     1       7.167  -5.349  23.105  0.00  0.00    +0.130 A 
ATOM     10  N   UNL     1       6.243  -5.542  24.067  0.00  0.00    -0.218 NA
ATOM     11  C   UNL     1       6.175  -4.626  25.044  0.00  0.00    +0.127 A 
ATOM     12  N   UNL     1       5.269  -4.764  26.105  0.00  0.00    -0.313 N 
ATOM     13  C   UNL     1       4.422  -5.965  26.084  0.00  0.00    +0.122 C 
ATOM     14  C   UNL     1       3.302  -5.822  27.152  0.00  0.00    +0.103 C 
ATOM     15  N   UNL     1       3.753  -5.499  28.539  0.00  0.00    -0.297 NA
ATOM     16  C   UNL     1       4.657  -4.328  28.458  0.00  0.00    +0.103 C 
ATOM     17  C   UNL     1       5.814  -4.468  27.448  0.00  0.00    +0.122 C 
ATOM     18  C   UNL     1       6.976  -3.506  24.993  0.00  0.00    +0.087 A 
ATOM     19  C   UNL     1       7.981  -3.438  24.059  0.00  0.00    +0.130 A 
ATOM     20  N   UNL     1       8.078  -4.356  23.088  0.00  0.00    -0.217 NA
BRANCH  15  21
ATOM     21  C   UNL     1       4.386  -6.679  29.167  0.00  0.00    +0.112 C 
BRANCH  21  22
ATOM     22  C   UNL     1       5.118  -6.364  30.485  0.00  0.00    +0.171 C 
BRANCH  22  23
ATOM     23  O   UNL     1       6.455  -6.851  30.451  0.00  0.00    -0.394 OA
ATOM     24  H   UNL     1       6.906  -6.328  29.759  0.00  0.00    +0.209 HD
ENDBRANCH  22  23
ENDBRANCH  21  22
ENDBRANCH  15  21
ENDBRANCH   1  19
BRANCH   5  25
ATOM     25  C   UNL     1       8.941   2.562  23.028  0.00  0.00    +0.256 C 
ATOM     26  N   UNL     1       9.665   3.030  24.108  0.00  0.00    -0.280 N 
ATOM     27  H   UNL     1      10.420   2.430  24.420  0.00  0.00    +0.155 HD
ATOM     28  O   UNL     1       8.379   3.280  22.203  0.00  0.00    -0.269 OA
BRANCH  26  29
ATOM     29  C   UNL     1       9.715   4.392  24.450  0.00  0.00    +0.055 A 
ATOM     30  C   UNL     1       8.686   4.988  25.213  0.00  0.00    +0.062 A 
ATOM     31 CL   UNL     1       7.421   4.060  25.952  0.00  0.00    -0.082 Cl
ATOM     32  C   UNL     1       8.746   6.344  25.531  0.00  0.00    +0.022 A 
ATOM     33  C   UNL     1       9.829   7.108  25.107  0.00  0.00    +0.002 A 
ATOM     34  C   UNL     1      10.872   6.512  24.398  0.00  0.00    +0.005 A 
ATOM     35  C   UNL     1      10.839   5.148  24.069  0.00  0.00    -0.028 A 
ATOM     36  C   UNL     1      12.003   4.583  23.300  0.00  0.00    +0.046 C 
ENDBRANCH  26  29
ENDBRANCH   5  25
TORSDOF 6
ENDMDL
MODEL 5
REMARK VINA RESULT:      -6.9      3.631     10.644
REMARK  Name = 
REMARK  8 active torsions:
REMARK  status: ('A' for Active; 'I' for Inactive)
REMARK    1  A    between atoms: C_1  and  C_2
REMARK    2  A    between atoms: C_4  and  N_5
REMARK    3  A    between atoms: C_9  and  C_11
REMARK    4  A    between atoms: N_13  and  C_14
REMARK    5  A    between atoms: C_15  and  C_16
REMARK    6  A    between atoms: N_28  and  C_29
REMARK    7  A    between atoms: C_29  and  C_30
REMARK    8  A    between atoms: C_30  and  O_31
REMARK                            x       y       z     vdW  Elec       q    Type
REMARK                         _______ _______ _______ _____ _____    ______ ____
ROOT
ATOM      1  N   UNL     1       7.217  -2.512  24.681  0.00  0.00    -0.279 N 
ATOM      2  H   UNL     1       6.866  -2.386  25.623  0.00  0.00    +0.155 HD
ATOM      3  C   UNL     1       7.803  -1.465  24.058  0.00  0.00    +0.164 A 
ATOM      4  S   UNL     1       8.022   0.007  24.926  0.00  0.00    -0.047 S 
ATOM      5  C   UNL     1       8.391   0.810  23.457  0.00  0.00    +0.095 A 
ATOM      6  C   UNL     1       8.544  -0.117  22.457  0.00  0.00    +0.133 A 
ATOM      7  N   UNL     1       8.224  -1.409  22.811  0.00  0.00    -0.232 NA
ENDROOT
BRANCH   1  19
ATOM      8  C   UNL     1       7.118  -5.979  21.409  0.00  0.00    +0.088 C 
ATOM      9  C   UNL     1       6.482  -5.283  22.574  0.00  0.00    +0.130 A 
ATOM     10  N   UNL     1       5.258  -5.705  22.947  0.00  0.00    -0.218 NA
ATOM     11  C   UNL     1       4.628  -4.996  23.895  0.00  0.00    +0.127 A 
ATOM     12  N   UNL     1       3.367  -5.381  24.371  0.00  0.00    -0.313 N 
ATOM     13  C   UNL     1       2.795  -6.600  23.781  0.00  0.00    +0.122 C 
ATOM     14  C   UNL     1       1.303  -6.722  24.201  0.00  0.00    +0.103 C 
ATOM     15  N   UNL     1       1.024  -6.645  25.667  0.00  0.00    -0.297 NA
ATOM     16  C   UNL     1       1.697  -5.433  26.190  0.00  0.00    +0.103 C 
ATOM     17  C   UNL     1       3.194  -5.317  25.838  0.00  0.00    +0.122 C 
ATOM     18  C   UNL     1       5.203  -3.845  24.388  0.00  0.00    +0.087 A 
ATOM     19  C   UNL     1       6.504  -3.548  24.061  0.00  0.00    +0.130 A 
ATOM     20  N   UNL     1       7.156  -4.258  23.131  0.00  0.00    -0.217 NA
BRANCH  15  21
ATOM     21  C   UNL     1       1.456  -7.887  26.344  0.00  0.00    +0.112 C 
BRANCH  21  22
ATOM     22  C   UNL     1       1.097  -9.171  25.574  0.00  0.00    +0.171 C 
BRANCH  22  23
ATOM     23  O   UNL     1       2.269  -9.913  25.251  0.00  0.00    -0.394 OA
ATOM     24  H   UNL     1       1.954 -10.804  25.003  0.00  0.00    +0.209 HD
ENDBRANCH  22  23
ENDBRANCH  21  22
ENDBRANCH  15  21
ENDBRANCH   1  19
BRANCH   5  25
ATOM     25  C   UNL     1       8.452   2.256  23.348  0.00  0.00    +0.256 C 
ATOM     26  N   UNL     1       9.206   2.855  24.339  0.00  0.00    -0.280 N 
ATOM     27  H   UNL     1       9.947   2.284  24.729  0.00  0.00    +0.155 HD
ATOM     28  O   UNL     1       7.901   2.862  22.431  0.00  0.00    -0.269 OA
BRANCH  26  29
ATOM     29  C   UNL     1       9.303   4.250  24.475  0.00  0.00    +0.055 A 
ATOM     30  C   UNL     1       8.308   4.985  25.157  0.00  0.00    +0.062 A 
ATOM     31 CL   UNL     1       7.031   4.218  26.045  0.00  0.00    -0.082 Cl
ATOM     32  C   UNL     1       8.414   6.371  25.269  0.00  0.00    +0.022 A 
ATOM     33  C   UNL     1       9.510   7.028  24.720  0.00  0.00    +0.002 A 
ATOM     34  C   UNL     1      10.520   6.301  24.091  0.00  0.00    +0.005 A 
ATOM     35  C   UNL     1      10.441   4.905  23.968  0.00  0.00    -0.028 A 
ATOM     36  C   UNL     1      11.572   4.196  23.273  0.00  0.00    +0.046 C 
ENDBRANCH  26  29
ENDBRANCH   5  25
TORSDOF 6
ENDMDL
MODEL 6
REMARK VINA RESULT:      -6.8      3.699     10.227
REMARK  Name = 
REMARK  8 active torsions:
REMARK  status: ('A' for Active; 'I' for Inactive)
REMARK    1  A    between atoms: C_1  and  C_2
REMARK    2  A    between atoms: C_4  and  N_5
REMARK    3  A    between atoms: C_9  and  C_11
REMARK    4  A    between atoms: N_13  and  C_14
REMARK    5  A    between atoms: C_15  and  C_16
REMARK    6  A    between atoms: N_28  and  C_29
REMARK    7  A    between atoms: C_29  and  C_30
REMARK    8  A    between atoms: C_30  and  O_31
REMARK                            x       y       z     vdW  Elec       q    Type
REMARK                         _______ _______ _______ _____ _____    ______ ____
ROOT
ATOM      1  N   UNL     1       8.243  -4.148  25.772  0.00  0.00    -0.279 N 
ATOM      2  H   UNL     1       8.924  -4.021  26.511  0.00  0.00    +0.155 HD
ATOM      3  C   UNL     1       8.058  -3.152  24.877  0.00  0.00    +0.164 A 
ATOM      4  S   UNL     1       9.059  -1.753  24.967  0.00  0.00    -0.047 S 
ATOM      5  C   UNL     1       8.006  -0.938  23.888  0.00  0.00    +0.095 A 
ATOM      6  C   UNL     1       7.108  -1.834  23.363  0.00  0.00    +0.133 A 
ATOM      7  N   UNL     1       7.157  -3.094  23.919  0.00  0.00    -0.232 NA
ENDROOT
BRANCH   1  19
ATOM      8  C   UNL     1       6.388  -6.750  29.310  0.00  0.00    +0.088 C 
ATOM      9  C   UNL     1       6.305  -6.234  27.906  0.00  0.00    +0.130 A 
ATOM     10  N   UNL     1       5.296  -6.693  27.141  0.00  0.00    -0.218 NA
ATOM     11  C   UNL     1       5.299  -6.344  25.847  0.00  0.00    +0.127 A 
ATOM     12  N   UNL     1       4.270  -6.745  24.983  0.00  0.00    -0.313 N 
ATOM     13  C   UNL     1       3.197  -7.551  25.584  0.00  0.00    +0.122 C 
ATOM     14  C   UNL     1       2.306  -8.142  24.455  0.00  0.00    +0.103 C 
ATOM     15  N   UNL     1       1.762  -7.162  23.467  0.00  0.00    -0.297 NA
ATOM     16  C   UNL     1       2.895  -6.346  22.972  0.00  0.00    +0.103 C 
ATOM     17  C   UNL     1       3.761  -5.699  24.071  0.00  0.00    +0.122 C 
ATOM     18  C   UNL     1       6.348  -5.611  25.336  0.00  0.00    +0.087 A 
ATOM     19  C   UNL     1       7.273  -5.067  26.196  0.00  0.00    +0.130 A 
ATOM     20  N   UNL     1       7.272  -5.389  27.496  0.00  0.00    -0.217 NA
BRANCH  15  21
ATOM     21  C   UNL     1       0.686  -6.352  24.077  0.00  0.00    +0.112 C 
BRANCH  21  22
ATOM     22  C   UNL     1       0.443  -5.007  23.369  0.00  0.00    +0.171 C 
BRANCH  22  23
ATOM     23  O   UNL     1       0.471  -3.931  24.301  0.00  0.00    -0.394 OA
ATOM     24  H   UNL     1       0.049  -3.178  23.843  0.00  0.00    +0.209 HD
ENDBRANCH  22  23
ENDBRANCH  21  22
ENDBRANCH  15  21
ENDBRANCH   1  19
BRANCH   5  25
ATOM     25  C   UNL     1       8.068   0.494  23.662  0.00  0.00    +0.256 C 
ATOM     26  N   UNL     1       8.832   1.169  24.595  0.00  0.00    -0.280 N 
ATOM     27  H   UNL     1       9.575   0.629  25.024  0.00  0.00    +0.155 HD
ATOM     28  O   UNL     1       7.510   1.027  22.704  0.00  0.00    -0.269 OA
BRANCH  26  29
ATOM     29  C   UNL     1       8.933   2.570  24.618  0.00  0.00    +0.055 A 
ATOM     30  C   UNL     1       9.809   3.250  23.743  0.00  0.00    +0.062 A 
ATOM     31 CL   UNL     1      10.646   2.444  22.455  0.00  0.00    -0.082 Cl
ATOM     32  C   UNL     1       9.908   4.640  23.790  0.00  0.00    +0.022 A 
ATOM     33  C   UNL     1       9.130   5.359  24.693  0.00  0.00    +0.002 A 
ATOM     34  C   UNL     1       8.227   4.696  25.523  0.00  0.00    +0.005 A 
ATOM     35  C   UNL     1       8.104   3.298  25.492  0.00  0.00    -0.028 A 
ATOM     36  C   UNL     1       7.107   2.659  26.422  0.00  0.00    +0.046 C 
ENDBRANCH  26  29
ENDBRANCH   5  25
TORSDOF 6
ENDMDL
MODEL 7
REMARK VINA RESULT:      -6.7      3.144      5.051
REMARK  Name = 
REMARK  8 active torsions:
REMARK  status: ('A' for Active; 'I' for Inactive)
REMARK    1  A    between atoms: C_1  and  C_2
REMARK    2  A    between atoms: C_4  and  N_5
REMARK    3  A    between atoms: C_9  and  C_11
REMARK    4  A    between atoms: N_13  and  C_14
REMARK    5  A    between atoms: C_15  and  C_16
REMARK    6  A    between atoms: N_28  and  C_29
REMARK    7  A    between atoms: C_29  and  C_30
REMARK    8  A    between atoms: C_30  and  O_31
REMARK                            x       y       z     vdW  Elec       q    Type
REMARK                         _______ _______ _______ _____ _____    ______ ____
ROOT
ATOM      1  N   UNL     1       8.028  -2.039  26.329  0.00  0.00    -0.279 N 
ATOM      2  H   UNL     1       8.728  -2.496  26.900  0.00  0.00    +0.155 HD
ATOM      3  C   UNL     1       6.840  -2.656  26.136  0.00  0.00    +0.164 A 
ATOM      4  S   UNL     1       6.527  -4.140  26.950  0.00  0.00    -0.047 S 
ATOM      5  C   UNL     1       5.165  -4.400  25.943  0.00  0.00    +0.095 A 
ATOM      6  C   UNL     1       4.908  -3.260  25.222  0.00  0.00    +0.133 A 
ATOM      7  N   UNL     1       5.855  -2.268  25.351  0.00  0.00    -0.232 NA
ENDROOT
BRANCH   1  19
ATOM      8  C   UNL     1      10.527  -1.486  22.307  0.00  0.00    +0.088 C 
ATOM      9  C   UNL     1       9.765  -0.883  23.447  0.00  0.00    +0.130 A 
ATOM     10  N   UNL     1       9.744   0.462  23.530  0.00  0.00    -0.218 NA
ATOM     11  C   UNL     1       9.185   1.001  24.622  0.00  0.00    +0.127 A 
ATOM     12  N   UNL     1       9.086   2.390  24.778  0.00  0.00    -0.313 N 
ATOM     13  C   UNL     1       9.617   3.206  23.675  0.00  0.00    +0.122 C 
ATOM     14  C   UNL     1       9.690   4.692  24.125  0.00  0.00    +0.103 C 
ATOM     15  N   UNL     1       8.428   5.275  24.673  0.00  0.00    -0.297 NA
ATOM     16  C   UNL     1       7.925   4.356  25.720  0.00  0.00    +0.103 C 
ATOM     17  C   UNL     1       7.787   2.884  25.283  0.00  0.00    +0.122 C 
ATOM     18  C   UNL     1       8.731   0.184  25.635  0.00  0.00    +0.087 A 
ATOM     19  C   UNL     1       8.664  -1.173  25.429  0.00  0.00    +0.130 A 
ATOM     20  N   UNL     1       9.199  -1.726  24.333  0.00  0.00    -0.217 NA
BRANCH  15  21
ATOM     21  C   UNL     1       7.450   5.510  23.589  0.00  0.00    +0.112 C 
BRANCH  21  22
ATOM     22  C   UNL     1       7.939   6.500  22.515  0.00  0.00    +0.171 C 
BRANCH  22  23
ATOM     23  O   UNL     1       7.183   6.361  21.316  0.00  0.00    -0.394 OA
ATOM     24  H   UNL     1       6.906   5.424  21.290  0.00  0.00    +0.209 HD
ENDBRANCH  22  23
ENDBRANCH  21  22
ENDBRANCH  15  21
ENDBRANCH   1  19
BRANCH   5  25
ATOM     25  C   UNL     1       4.479  -5.675  25.865  0.00  0.00    +0.256 C 
ATOM     26  N   UNL     1       3.118  -5.561  25.657  0.00  0.00    -0.280 N 
ATOM     27  H   UNL     1       2.820  -4.725  25.166  0.00  0.00    +0.155 HD
ATOM     28  O   UNL     1       5.081  -6.745  25.948  0.00  0.00    -0.269 OA
BRANCH  26  29
ATOM     29  C   UNL     1       2.256  -6.671  25.658  0.00  0.00    +0.055 A 
ATOM     30  C   UNL     1       1.784  -7.224  26.869  0.00  0.00    +0.062 A 
ATOM     31 CL   UNL     1       2.050  -6.462  28.404  0.00  0.00    -0.082 Cl
ATOM     32  C   UNL     1       0.943  -8.335  26.851  0.00  0.00    +0.022 A 
ATOM     33  C   UNL     1       0.555  -8.891  25.635  0.00  0.00    +0.002 A 
ATOM     34  C   UNL     1       0.978  -8.316  24.436  0.00  0.00    +0.005 A 
ATOM     35  C   UNL     1       1.822  -7.195  24.426  0.00  0.00    -0.028 A 
ATOM     36  C   UNL     1       2.233  -6.637  23.090  0.00  0.00    +0.046 C 
ENDBRANCH  26  29
ENDBRANCH   5  25
TORSDOF 6
ENDMDL
MODEL 8
REMARK VINA RESULT:      -6.4      3.382      5.314
REMARK  Name = 
REMARK  8 active torsions:
REMARK  status: ('A' for Active; 'I' for Inactive)
REMARK    1  A    between atoms: C_1  and  C_2
REMARK    2  A    between atoms: C_4  and  N_5
REMARK    3  A    between atoms: C_9  and  C_11
REMARK    4  A    between atoms: N_13  and  C_14
REMARK    5  A    between atoms: C_15  and  C_16
REMARK    6  A    between atoms: N_28  and  C_29
REMARK    7  A    between atoms: C_29  and  C_30
REMARK    8  A    between atoms: C_30  and  O_31
REMARK                            x       y       z     vdW  Elec       q    Type
REMARK                         _______ _______ _______ _____ _____    ______ ____
ROOT
ATOM      1  N   UNL     1       5.874  -2.257  22.693  0.00  0.00    -0.279 N 
ATOM      2  H   UNL     1       5.011  -1.747  22.555  0.00  0.00    +0.155 HD
ATOM      3  C   UNL     1       5.819  -3.499  23.226  0.00  0.00    +0.164 A 
ATOM      4  S   UNL     1       4.280  -4.201  23.550  0.00  0.00    -0.047 S 
ATOM      5  C   UNL     1       5.041  -5.426  24.476  0.00  0.00    +0.095 A 
ATOM      6  C   UNL     1       6.400  -5.356  24.295  0.00  0.00    +0.133 A 
ATOM      7  N   UNL     1       6.831  -4.268  23.570  0.00  0.00    -0.232 NA
ENDROOT
BRANCH   1  19
ATOM      8  C   UNL     1      10.552  -1.386  22.400  0.00  0.00    +0.088 C 
ATOM      9  C   UNL     1       9.154  -0.883  22.591  0.00  0.00    +0.130 A 
ATOM     10  N   UNL     1       9.007   0.423  22.888  0.00  0.00    -0.218 NA
ATOM     11  C   UNL     1       7.773   0.846  23.197  0.00  0.00    +0.127 A 
ATOM     12  N   UNL     1       7.518   2.194  23.485  0.00  0.00    -0.313 N 
ATOM     13  C   UNL     1       8.673   3.102  23.414  0.00  0.00    +0.122 C 
ATOM     14  C   UNL     1       8.283   4.476  24.028  0.00  0.00    +0.103 C 
ATOM     15  N   UNL     1       7.053   5.118  23.475  0.00  0.00    -0.297 NA
ATOM     16  C   UNL     1       5.964   4.114  23.514  0.00  0.00    +0.103 C 
ATOM     17  C   UNL     1       6.304   2.760  22.859  0.00  0.00    +0.122 C 
ATOM     18  C   UNL     1       6.736  -0.058  23.275  0.00  0.00    +0.087 A 
ATOM     19  C   UNL     1       6.929  -1.345  22.834  0.00  0.00    +0.130 A 
ATOM     20  N   UNL     1       8.152  -1.779  22.501  0.00  0.00    -0.217 NA
BRANCH  15  21
ATOM     21  C   UNL     1       7.307   5.645  22.117  0.00  0.00    +0.112 C 
BRANCH  21  22
ATOM     22  C   UNL     1       6.737   7.056  21.881  0.00  0.00    +0.171 C 
BRANCH  22  23
ATOM     23  O   UNL     1       5.387   6.988  21.432  0.00  0.00    -0.394 OA
ATOM     24  H   UNL     1       5.017   6.182  21.841  0.00  0.00    +0.209 HD
ENDBRANCH  22  23
ENDBRANCH  21  22
ENDBRANCH  15  21
ENDBRANCH   1  19
BRANCH   5  25
ATOM     25  C   UNL     1       4.304  -6.322  25.348  0.00  0.00    +0.256 C 
ATOM     26  N   UNL     1       3.718  -5.689  26.426  0.00  0.00    -0.280 N 
ATOM     27  H   UNL     1       3.480  -4.714  26.283  0.00  0.00    +0.155 HD
ATOM     28  O   UNL     1       4.201  -7.524  25.107  0.00  0.00    -0.269 OA
BRANCH  26  29
ATOM     29  C   UNL     1       3.051  -6.391  27.444  0.00  0.00    +0.055 A 
ATOM     30  C   UNL     1       1.697  -6.766  27.301  0.00  0.00    +0.062 A 
ATOM     31 CL   UNL     1       0.835  -6.586  25.806  0.00  0.00    -0.082 Cl
ATOM     32  C   UNL     1       1.046  -7.449  28.328  0.00  0.00    +0.022 A 
ATOM     33  C   UNL     1       1.739  -7.774  29.490  0.00  0.00    +0.002 A 
ATOM     34  C   UNL     1       3.089  -7.450  29.615  0.00  0.00    +0.005 A 
ATOM     35  C   UNL     1       3.769  -6.767  28.594  0.00  0.00    -0.028 A 
ATOM     36  C   UNL     1       5.226  -6.454  28.808  0.00  0.00    +0.046 C 
ENDBRANCH  26  29
ENDBRANCH   5  25
TORSDOF 6
ENDMDL
MODEL 9
REMARK VINA RESULT:      -6.2      3.731     10.366
REMARK  Name = 
REMARK  8 active torsions:
REMARK  status: ('A' for Active; 'I' for Inactive)
REMARK    1  A    between atoms: C_1  and  C_2
REMARK    2  A    between atoms: C_4  and  N_5
REMARK    3  A    between atoms: C_9  and  C_11
REMARK    4  A    between atoms: N_13  and  C_14
REMARK    5  A    between atoms: C_15  and  C_16
REMARK    6  A    between atoms: N_28  and  C_29
REMARK    7  A    between atoms: C_29  and  C_30
REMARK    8  A    between atoms: C_30  and  O_31
REMARK                            x       y       z     vdW  Elec       q    Type
REMARK                         _______ _______ _______ _____ _____    ______ ____
ROOT
ATOM      1  N   UNL     1       7.978  -2.740  24.581  0.00  0.00    -0.279 N 
ATOM      2  H   UNL     1       8.018  -2.911  25.578  0.00  0.00    +0.155 HD
ATOM      3  C   UNL     1       8.304  -1.513  24.116  0.00  0.00    +0.164 A 
ATOM      4  S   UNL     1       8.873  -0.324  25.225  0.00  0.00    -0.047 S 
ATOM      5  C   UNL     1       8.668   0.883  24.025  0.00  0.00    +0.095 A 
ATOM      6  C   UNL     1       8.404   0.286  22.818  0.00  0.00    +0.133 A 
ATOM      7  N   UNL     1       8.216  -1.077  22.876  0.00  0.00    -0.232 NA
ENDROOT
BRANCH   1  19
ATOM      8  C   UNL     1       7.002  -5.909  21.155  0.00  0.00    +0.088 C 
ATOM      9  C   UNL     1       6.616  -5.227  22.432  0.00  0.00    +0.130 A 
ATOM     10  N   UNL     1       5.400  -5.513  22.937  0.00  0.00    -0.218 NA
ATOM     11  C   UNL     1       4.995  -4.802  23.999  0.00  0.00    +0.127 A 
ATOM     12  N   UNL     1       3.760  -5.055  24.614  0.00  0.00    -0.313 N 
ATOM     13  C   UNL     1       2.957  -6.142  24.035  0.00  0.00    +0.122 C 
ATOM     14  C   UNL     1       1.526  -6.101  24.639  0.00  0.00    +0.103 C 
ATOM     15  N   UNL     1       1.442  -6.099  26.131  0.00  0.00    -0.297 NA
ATOM     16  C   UNL     1       2.335  -5.027  26.630  0.00  0.00    +0.103 C 
ATOM     17  C   UNL     1       3.779  -5.079  26.092  0.00  0.00    +0.122 C 
ATOM     18  C   UNL     1       5.779  -3.776  24.479  0.00  0.00    +0.087 A 
ATOM     19  C   UNL     1       7.059  -3.625  24.001  0.00  0.00    +0.130 A 
ATOM     20  N   UNL     1       7.488  -4.342  22.953  0.00  0.00    -0.217 NA
BRANCH  15  21
ATOM     21  C   UNL     1       1.778  -7.433  26.672  0.00  0.00    +0.112 C 
BRANCH  21  22
ATOM     22  C   UNL     1       1.222  -8.601  25.836  0.00  0.00    +0.171 C 
BRANCH  22  23
ATOM     23  O   UNL     1       2.277  -9.426  25.353  0.00  0.00    -0.394 OA
ATOM     24  H   UNL     1       1.924 -10.337  25.370  0.00  0.00    +0.209 HD
ENDBRANCH  22  23
ENDBRANCH  21  22
ENDBRANCH  15  21
ENDBRANCH   1  19
BRANCH   5  25
ATOM     25  C   UNL     1       8.715   2.302  24.325  0.00  0.00    +0.256 C 
ATOM     26  N   UNL     1       7.490   2.835  24.677  0.00  0.00    -0.280 N 
ATOM     27  H   UNL     1       6.838   2.186  25.103  0.00  0.00    +0.155 HD
ATOM     28  O   UNL     1       9.766   2.939  24.292  0.00  0.00    -0.269 OA
BRANCH  26  29
ATOM     29  C   UNL     1       7.299   4.208  24.901  0.00  0.00    +0.055 A 
ATOM     30  C   UNL     1       7.271   5.124  23.826  0.00  0.00    +0.062 A 
ATOM     31 CL   UNL     1       7.253   4.610  22.169  0.00  0.00    -0.082 Cl
ATOM     32  C   UNL     1       7.096   6.486  24.068  0.00  0.00    +0.022 A 
ATOM     33  C   UNL     1       6.934   6.941  25.374  0.00  0.00    +0.002 A 
ATOM     34  C   UNL     1       6.909   6.035  26.434  0.00  0.00    +0.005 A 
ATOM     35  C   UNL     1       7.079   4.658  26.216  0.00  0.00    -0.028 A 
ATOM     36  C   UNL     1       7.041   3.749  27.415  0.00  0.00    +0.046 C 
ENDBRANCH  26  29
ENDBRANCH   5  25
TORSDOF 6
ENDMDL
