MODEL 1
REMARK VINA RESULT:      -8.1      0.000      0.000
REMARK  Name = 
REMARK  17 active torsions:
REMARK  status: ('A' for Active; 'I' for Inactive)
REMARK    1  A    between atoms: C_1  and  O_2
REMARK    2  A    between atoms: O_2  and  C_3
REMARK    3  A    between atoms: C_5  and  C_6
REMARK    4  A    between atoms: C_7  and  S_12
REMARK    5  A    between atoms: C_8  and  C_9
REMARK    6  A    between atoms: C_10  and  C_11
REMARK    7  A    between atoms: S_12  and  N_15
REMARK    8  A    between atoms: N_15  and  C_16
REMARK    9  A    between atoms: C_16  and  C_18
REMARK   10  A    between atoms: C_16  and  C_22
REMARK   11  A    between atoms: C_18  and  C_19
REMARK   12  A    between atoms: C_19  and  O_20
REMARK   13  A    between atoms: N_24  and  C_25
REMARK   14  A    between atoms: C_25  and  C_27
REMARK   15  A    between atoms: C_25  and  C_37
REMARK   16  A    between atoms: C_27  and  C_28
REMARK   17  A    between atoms: C_31  and  C_34
REMARK                            x       y       z     vdW  Elec       q    Type
REMARK                         _______ _______ _______ _____ _____    ______ ____
ROOT
ATOM      1  C   UNL     1       7.967  -0.566  24.067  0.00  0.00    +0.233 C 
ATOM      2  N   UNL     1       7.179   0.418  23.522  0.00  0.00    -0.302 N 
ATOM      3  H   UNL     1       6.506   0.222  22.789  0.00  0.00    +0.150 HD
ATOM      4  O   UNL     1       8.658  -0.326  25.064  0.00  0.00    -0.274 OA
ENDROOT
BRANCH   1   5
ATOM      5  C   UNL     1       7.975  -1.994  23.457  0.00  0.00    +0.173 C 
BRANCH   5   6
ATOM      6  N   UNL     1       8.976  -2.921  24.080  0.00  0.00    -0.178 NA
ATOM      7  H   UNL     1       9.610  -2.456  24.737  0.00  0.00    +0.149 HD
BRANCH   6   8
ATOM      8  S   UNL     1       8.382  -4.265  24.989  0.00  0.00    +0.060 S 
ATOM      9  O   UNL     1       9.118  -5.401  24.475  0.00  0.00    -0.153 OA
ATOM     10  O   UNL     1       8.504  -3.901  26.377  0.00  0.00    -0.153 OA
BRANCH   8  16
ATOM     11  C   UNL     1       4.028  -4.916  23.461  0.00  0.00    +0.124 A 
ATOM     12  C   UNL     1       4.206  -4.260  24.690  0.00  0.00    -0.004 A 
ATOM     13  C   UNL     1       2.943  -3.848  25.427  0.00  0.00    +0.048 C 
ATOM     14  C   UNL     1       5.527  -4.022  25.203  0.00  0.00    -0.018 A 
ATOM     15  C   UNL     1       5.592  -3.300  26.528  0.00  0.00    +0.046 C 
ATOM     16  C   UNL     1       6.657  -4.476  24.450  0.00  0.00    +0.112 A 
ATOM     17  C   UNL     1       6.442  -5.177  23.229  0.00  0.00    -0.020 A 
ATOM     18  C   UNL     1       7.538  -5.830  22.419  0.00  0.00    +0.046 C 
ATOM     19  C   UNL     1       5.133  -5.361  22.747  0.00  0.00    +0.051 A 
BRANCH  11  21
ATOM     20  C   UNL     1       2.193  -6.335  22.956  0.00  0.00    +0.277 C 
ATOM     21  O   UNL     1       2.738  -5.022  23.001  0.00  0.00    -0.495 OA
ENDBRANCH  11  21
ENDBRANCH   8  16
ENDBRANCH   6   8
ENDBRANCH   5   6
BRANCH   5  22
ATOM     22  C   UNL     1       8.249  -1.739  21.976  0.00  0.00    +0.150 C 
BRANCH  22  23
ATOM     23  C   UNL     1       9.503  -0.998  21.656  0.00  0.00    +0.307 C 
ATOM     24  O   UNL     1       9.537   0.153  21.252  0.00  0.00    -0.251 OA
BRANCH  23  25
ATOM     25  O   UNL     1      10.624  -1.705  21.920  0.00  0.00    -0.481 OA
ATOM     26  H   UNL     1      11.091  -1.471  22.744  0.00  0.00    +0.295 HD
ENDBRANCH  23  25
ENDBRANCH  22  23
ENDBRANCH   5  22
ENDBRANCH   1   5
BRANCH   2  27
ATOM     27  C   UNL     1       7.070   1.777  24.129  0.00  0.00    +0.163 C 
BRANCH  27  28
ATOM     28  C   UNL     1       5.666   1.911  24.788  0.00  0.00    +0.236 C 
ATOM     29  N   UNL     1       5.535   1.793  26.170  0.00  0.00    -0.300 N 
ATOM     30  C   UNL     1       6.604   1.471  27.116  0.00  0.00    +0.108 C 
ATOM     31  C   UNL     1       6.249   0.276  27.990  0.00  0.00    +0.019 C 
ATOM     32  C   UNL     1       4.888   0.441  28.653  0.00  0.00    +0.003 C 
ATOM     33  C   UNL     1       3.819   0.777  27.615  0.00  0.00    +0.019 C 
ATOM     34  C   UNL     1       4.221   1.999  26.790  0.00  0.00    +0.108 C 
ATOM     35  O   UNL     1       4.681   2.083  24.056  0.00  0.00    -0.274 OA
ENDBRANCH  27  28
BRANCH  27  36
ATOM     36  C   UNL     1       7.392   2.917  23.133  0.00  0.00    +0.067 C 
BRANCH  36  37
ATOM     37  C   UNL     1       8.697   3.616  23.399  0.00  0.00    -0.045 A 
ATOM     38  C   UNL     1       9.889   2.897  23.280  0.00  0.00    +0.004 A 
ATOM     39  C   UNL     1      11.113   3.536  23.435  0.00  0.00    +0.016 A 
ATOM     40  C   UNL     1      11.156   4.901  23.723  0.00  0.00    +0.065 A 
ATOM     41  C   UNL     1       9.966   5.620  23.903  0.00  0.00    +0.016 A 
ATOM     42  C   UNL     1       8.737   4.976  23.738  0.00  0.00    +0.004 A 
BRANCH  40  43
ATOM     43  C   UNL     1      12.465   5.597  23.797  0.00  0.00    +0.308 C 
ATOM     44  N   UNL     1      12.716   6.523  24.667  0.00  0.00    -0.099 NA
ATOM     45  H   UNL     1      11.928   6.661  25.306  0.00  0.00    +0.363 HD
ATOM     46  N   UNL     1      13.475   5.280  22.943  0.00  0.00    -0.247 N 
ATOM     47  H   UNL     1      14.219   5.969  23.020  0.00  0.00    +0.288 HD
ATOM     48  H   UNL     1      13.199   5.122  21.982  0.00  0.00    +0.288 HD
ENDBRANCH  40  43
ENDBRANCH  36  37
ENDBRANCH  27  36
ENDBRANCH   2  27
TORSDOF 13
ENDMDL
MODEL 2
REMARK VINA RESULT:      -7.9      0.748      1.892
REMARK  Name = 
REMARK  17 active torsions:
REMARK  status: ('A' for Active; 'I' for Inactive)
REMARK    1  A    between atoms: C_1  and  O_2
REMARK    2  A    between atoms: O_2  and  C_3
REMARK    3  A    between atoms: C_5  and  C_6
REMARK    4  A    between atoms: C_7  and  S_12
REMARK    5  A    between atoms: C_8  and  C_9
REMARK    6  A    between atoms: C_10  and  C_11
REMARK    7  A    between atoms: S_12  and  N_15
REMARK    8  A    between atoms: N_15  and  C_16
REMARK    9  A    between atoms: C_16  and  C_18
REMARK   10  A    between atoms: C_16  and  C_22
REMARK   11  A    between atoms: C_18  and  C_19
REMARK   12  A    between atoms: C_19  and  O_20
REMARK   13  A    between atoms: N_24  and  C_25
REMARK   14  A    between atoms: C_25  and  C_27
REMARK   15  A    between atoms: C_25  and  C_37
REMARK   16  A    between atoms: C_27  and  C_28
REMARK   17  A    between atoms: C_31  and  C_34
REMARK                            x       y       z     vdW  Elec       q    Type
REMARK                         _______ _______ _______ _____ _____    ______ ____
ROOT
ATOM      1  C   UNL     1       8.115  -0.606  24.266  0.00  0.00    +0.233 C 
ATOM      2  N   UNL     1       7.322   0.367  23.710  0.00  0.00    -0.302 N 
ATOM      3  H   UNL     1       6.650   0.159  22.979  0.00  0.00    +0.150 HD
ATOM      4  O   UNL     1       8.805  -0.351  25.260  0.00  0.00    -0.274 OA
ENDROOT
BRANCH   1   5
ATOM      5  C   UNL     1       8.130  -2.041  23.674  0.00  0.00    +0.173 C 
BRANCH   5   6
ATOM      6  N   UNL     1       9.246  -2.904  24.183  0.00  0.00    -0.178 NA
ATOM      7  H   UNL     1       9.981  -2.378  24.667  0.00  0.00    +0.149 HD
BRANCH   6   8
ATOM      8  S   UNL     1       8.856  -4.158  25.307  0.00  0.00    +0.060 S 
ATOM      9  O   UNL     1       9.627  -5.297  24.856  0.00  0.00    -0.153 OA
ATOM     10  O   UNL     1       9.083  -3.612  26.619  0.00  0.00    -0.153 OA
BRANCH   8  16
ATOM     11  C   UNL     1       4.333  -5.070  24.648  0.00  0.00    +0.124 A 
ATOM     12  C   UNL     1       5.237  -5.443  23.639  0.00  0.00    -0.004 A 
ATOM     13  C   UNL     1       4.640  -6.088  22.400  0.00  0.00    +0.048 C 
ATOM     14  C   UNL     1       6.643  -5.196  23.795  0.00  0.00    -0.018 A 
ATOM     15  C   UNL     1       7.517  -5.647  22.648  0.00  0.00    +0.046 C 
ATOM     16  C   UNL     1       7.108  -4.553  24.986  0.00  0.00    +0.112 A 
ATOM     17  C   UNL     1       6.162  -4.148  25.971  0.00  0.00    -0.020 A 
ATOM     18  C   UNL     1       6.508  -3.338  27.200  0.00  0.00    +0.046 C 
ATOM     19  C   UNL     1       4.797  -4.437  25.794  0.00  0.00    +0.051 A 
BRANCH  11  21
ATOM     20  C   UNL     1       2.167  -5.306  25.591  0.00  0.00    +0.277 C 
ATOM     21  O   UNL     1       3.020  -5.424  24.458  0.00  0.00    -0.495 OA
ENDBRANCH  11  21
ENDBRANCH   8  16
ENDBRANCH   6   8
ENDBRANCH   5   6
BRANCH   5  22
ATOM     22  C   UNL     1       8.215  -1.797  22.168  0.00  0.00    +0.150 C 
BRANCH  22  23
ATOM     23  C   UNL     1       9.413  -1.049  21.689  0.00  0.00    +0.307 C 
ATOM     24  O   UNL     1       9.376   0.070  21.203  0.00  0.00    -0.251 OA
BRANCH  23  25
ATOM     25  O   UNL     1      10.574  -1.705  21.903  0.00  0.00    -0.481 OA
ATOM     26  H   UNL     1      10.538  -2.434  22.552  0.00  0.00    +0.295 HD
ENDBRANCH  23  25
ENDBRANCH  22  23
ENDBRANCH   5  22
ENDBRANCH   1   5
BRANCH   2  27
ATOM     27  C   UNL     1       7.207   1.733  24.301  0.00  0.00    +0.163 C 
BRANCH  27  28
ATOM     28  C   UNL     1       5.857   1.823  25.072  0.00  0.00    +0.236 C 
ATOM     29  N   UNL     1       5.859   1.926  26.462  0.00  0.00    -0.300 N 
ATOM     30  C   UNL     1       7.036   1.883  27.330  0.00  0.00    +0.108 C 
ATOM     31  C   UNL     1       6.906   0.821  28.413  0.00  0.00    +0.019 C 
ATOM     32  C   UNL     1       5.596   0.947  29.179  0.00  0.00    +0.003 C 
ATOM     33  C   UNL     1       4.410   0.987  28.217  0.00  0.00    +0.019 C 
ATOM     34  C   UNL     1       4.588   2.090  27.174  0.00  0.00    +0.108 C 
ATOM     35  O   UNL     1       4.801   1.763  24.428  0.00  0.00    -0.274 OA
ENDBRANCH  27  28
BRANCH  27  36
ATOM     36  C   UNL     1       7.398   2.864  23.262  0.00  0.00    +0.067 C 
BRANCH  36  37
ATOM     37  C   UNL     1       8.737   3.545  23.332  0.00  0.00    -0.045 A 
ATOM     38  C   UNL     1       8.785   4.922  23.560  0.00  0.00    +0.004 A 
ATOM     39  C   UNL     1      10.007   5.565  23.715  0.00  0.00    +0.016 A 
ATOM     40  C   UNL     1      11.194   4.837  23.631  0.00  0.00    +0.065 A 
ATOM     41  C   UNL     1      11.160   3.465  23.344  0.00  0.00    +0.016 A 
ATOM     42  C   UNL     1       9.929   2.820  23.197  0.00  0.00    +0.004 A 
BRANCH  40  43
ATOM     43  C   UNL     1      12.492   5.511  23.888  0.00  0.00    +0.308 C 
ATOM     44  N   UNL     1      13.601   5.126  23.340  0.00  0.00    -0.099 NA
ATOM     45  H   UNL     1      13.448   4.352  22.688  0.00  0.00    +0.363 HD
ATOM     46  N   UNL     1      12.570   6.585  24.719  0.00  0.00    -0.247 N 
ATOM     47  H   UNL     1      13.545   6.800  24.913  0.00  0.00    +0.288 HD
ATOM     48  H   UNL     1      12.017   6.522  25.565  0.00  0.00    +0.288 HD
ENDBRANCH  40  43
ENDBRANCH  36  37
ENDBRANCH  27  36
ENDBRANCH   2  27
TORSDOF 13
ENDMDL
MODEL 3
REMARK VINA RESULT:      -7.5      2.980      9.065
REMARK  Name = 
REMARK  17 active torsions:
REMARK  status: ('A' for Active; 'I' for Inactive)
REMARK    1  A    between atoms: C_1  and  O_2
REMARK    2  A    between atoms: O_2  and  C_3
REMARK    3  A    between atoms: C_5  and  C_6
REMARK    4  A    between atoms: C_7  and  S_12
REMARK    5  A    between atoms: C_8  and  C_9
REMARK    6  A    between atoms: C_10  and  C_11
REMARK    7  A    between atoms: S_12  and  N_15
REMARK    8  A    between atoms: N_15  and  C_16
REMARK    9  A    between atoms: C_16  and  C_18
REMARK   10  A    between atoms: C_16  and  C_22
REMARK   11  A    between atoms: C_18  and  C_19
REMARK   12  A    between atoms: C_19  and  O_20
REMARK   13  A    between atoms: N_24  and  C_25
REMARK   14  A    between atoms: C_25  and  C_27
REMARK   15  A    between atoms: C_25  and  C_37
REMARK   16  A    between atoms: C_27  and  C_28
REMARK   17  A    between atoms: C_31  and  C_34
REMARK                            x       y       z     vdW  Elec       q    Type
REMARK                         _______ _______ _______ _____ _____    ______ ____
ROOT
ATOM      1  C   UNL     1       7.112  -1.201  26.007  0.00  0.00    +0.233 C 
ATOM      2  N   UNL     1       7.243  -1.882  24.821  0.00  0.00    -0.302 N 
ATOM      3  H   UNL     1       6.490  -1.930  24.143  0.00  0.00    +0.150 HD
ATOM      4  O   UNL     1       8.096  -1.026  26.734  0.00  0.00    -0.274 OA
ENDROOT
BRANCH   1   5
ATOM      5  C   UNL     1       5.736  -0.617  26.429  0.00  0.00    +0.173 C 
BRANCH   5   6
ATOM      6  N   UNL     1       5.823   0.681  27.173  0.00  0.00    -0.178 NA
ATOM      7  H   UNL     1       6.763   1.089  27.176  0.00  0.00    +0.149 HD
BRANCH   6   8
ATOM      8  S   UNL     1       4.829   1.991  26.642  0.00  0.00    +0.060 S 
ATOM      9  O   UNL     1       3.998   1.414  25.606  0.00  0.00    -0.153 OA
ATOM     10  O   UNL     1       4.221   2.545  27.823  0.00  0.00    -0.153 OA
BRANCH   8  16
ATOM     11  C   UNL     1       7.830   4.975  24.690  0.00  0.00    +0.124 A 
ATOM     12  C   UNL     1       6.984   4.239  23.843  0.00  0.00    -0.004 A 
ATOM     13  C   UNL     1       7.153   4.468  22.351  0.00  0.00    +0.048 C 
ATOM     14  C   UNL     1       6.032   3.314  24.392  0.00  0.00    -0.018 A 
ATOM     15  C   UNL     1       5.172   2.587  23.384  0.00  0.00    +0.046 C 
ATOM     16  C   UNL     1       5.967   3.143  25.812  0.00  0.00    +0.112 A 
ATOM     17  C   UNL     1       6.868   3.872  26.640  0.00  0.00    -0.020 A 
ATOM     18  C   UNL     1       6.998   3.675  28.133  0.00  0.00    +0.046 C 
ATOM     19  C   UNL     1       7.764   4.791  26.064  0.00  0.00    +0.051 A 
BRANCH  11  21
ATOM     20  C   UNL     1      10.002   5.916  24.516  0.00  0.00    +0.277 C 
ATOM     21  O   UNL     1       8.645   5.902  24.089  0.00  0.00    -0.495 OA
ENDBRANCH  11  21
ENDBRANCH   8  16
ENDBRANCH   6   8
ENDBRANCH   5   6
BRANCH   5  22
ATOM     22  C   UNL     1       5.125  -1.738  27.268  0.00  0.00    +0.150 C 
BRANCH  22  23
ATOM     23  C   UNL     1       4.096  -2.581  26.592  0.00  0.00    +0.307 C 
ATOM     24  O   UNL     1       3.299  -3.295  27.179  0.00  0.00    -0.251 OA
BRANCH  23  25
ATOM     25  O   UNL     1       4.081  -2.431  25.250  0.00  0.00    -0.481 OA
ATOM     26  H   UNL     1       3.318  -1.946  24.884  0.00  0.00    +0.295 HD
ENDBRANCH  23  25
ENDBRANCH  22  23
ENDBRANCH   5  22
ENDBRANCH   1   5
BRANCH   2  27
ATOM     27  C   UNL     1       8.563  -2.379  24.332  0.00  0.00    +0.163 C 
BRANCH  27  28
ATOM     28  C   UNL     1       8.939  -1.592  23.043  0.00  0.00    +0.236 C 
ATOM     29  N   UNL     1       9.708  -0.434  23.137  0.00  0.00    -0.300 N 
ATOM     30  C   UNL     1      10.167   0.200  24.374  0.00  0.00    +0.108 C 
ATOM     31  C   UNL     1       9.766   1.668  24.443  0.00  0.00    +0.019 C 
ATOM     32  C   UNL     1      10.173   2.428  23.188  0.00  0.00    +0.003 C 
ATOM     33  C   UNL     1       9.666   1.715  21.937  0.00  0.00    +0.019 C 
ATOM     34  C   UNL     1      10.125   0.257  21.913  0.00  0.00    +0.108 C 
ATOM     35  O   UNL     1       8.508  -1.996  21.954  0.00  0.00    -0.274 OA
ENDBRANCH  27  28
BRANCH  27  36
ATOM     36  C   UNL     1       8.604  -3.915  24.148  0.00  0.00    +0.067 C 
BRANCH  36  37
ATOM     37  C   UNL     1       7.676  -4.670  25.059  0.00  0.00    -0.045 A 
ATOM     38  C   UNL     1       8.018  -4.816  26.406  0.00  0.00    +0.004 A 
ATOM     39  C   UNL     1       7.141  -5.434  27.289  0.00  0.00    +0.016 A 
ATOM     40  C   UNL     1       5.917  -5.922  26.831  0.00  0.00    +0.065 A 
ATOM     41  C   UNL     1       5.589  -5.833  25.472  0.00  0.00    +0.016 A 
ATOM     42  C   UNL     1       6.469  -5.205  24.587  0.00  0.00    +0.004 A 
BRANCH  40  43
ATOM     43  C   UNL     1       4.946  -6.498  27.796  0.00  0.00    +0.308 C 
ATOM     44  N   UNL     1       3.730  -6.066  27.905  0.00  0.00    -0.099 NA
ATOM     45  H   UNL     1       3.528  -5.334  27.219  0.00  0.00    +0.363 HD
ATOM     46  N   UNL     1       5.299  -7.525  28.614  0.00  0.00    -0.247 N 
ATOM     47  H   UNL     1       4.579  -7.667  29.318  0.00  0.00    +0.288 HD
ATOM     48  H   UNL     1       6.224  -7.460  29.021  0.00  0.00    +0.288 HD
ENDBRANCH  40  43
ENDBRANCH  36  37
ENDBRANCH  27  36
ENDBRANCH   2  27
TORSDOF 13
ENDMDL
MODEL 4
REMARK VINA RESULT:      -7.5      1.880      2.594
REMARK  Name = 
REMARK  17 active torsions:
REMARK  status: ('A' for Active; 'I' for Inactive)
REMARK    1  A    between atoms: C_1  and  O_2
REMARK    2  A    between atoms: O_2  and  C_3
REMARK    3  A    between atoms: C_5  and  C_6
REMARK    4  A    between atoms: C_7  and  S_12
REMARK    5  A    between atoms: C_8  and  C_9
REMARK    6  A    between atoms: C_10  and  C_11
REMARK    7  A    between atoms: S_12  and  N_15
REMARK    8  A    between atoms: N_15  and  C_16
REMARK    9  A    between atoms: C_16  and  C_18
REMARK   10  A    between atoms: C_16  and  C_22
REMARK   11  A    between atoms: C_18  and  C_19
REMARK   12  A    between atoms: C_19  and  O_20
REMARK   13  A    between atoms: N_24  and  C_25
REMARK   14  A    between atoms: C_25  and  C_27
REMARK   15  A    between atoms: C_25  and  C_37
REMARK   16  A    between atoms: C_27  and  C_28
REMARK   17  A    between atoms: C_31  and  C_34
REMARK                            x       y       z     vdW  Elec       q    Type
REMARK                         _______ _______ _______ _____ _____    ______ ____
ROOT
ATOM      1  C   UNL     1       7.458  -0.520  24.120  0.00  0.00    +0.233 C 
ATOM      2  N   UNL     1       6.950   0.588  23.488  0.00  0.00    -0.302 N 
ATOM      3  H   UNL     1       6.379   0.515  22.653  0.00  0.00    +0.150 HD
ATOM      4  O   UNL     1       8.012  -0.407  25.220  0.00  0.00    -0.274 OA
ENDROOT
BRANCH   1   5
ATOM      5  C   UNL     1       7.316  -1.926  23.477  0.00  0.00    +0.173 C 
BRANCH   5   6
ATOM      6  N   UNL     1       7.613  -3.060  24.412  0.00  0.00    -0.178 NA
ATOM      7  H   UNL     1       7.205  -2.940  25.344  0.00  0.00    +0.149 HD
BRANCH   6   8
ATOM      8  S   UNL     1       7.095  -4.645  23.957  0.00  0.00    +0.060 S 
ATOM      9  O   UNL     1       5.989  -4.415  23.051  0.00  0.00    -0.153 OA
ATOM     10  O   UNL     1       8.268  -5.339  23.495  0.00  0.00    -0.153 OA
BRANCH   8  16
ATOM     11  C   UNL     1       5.438  -6.430  27.930  0.00  0.00    +0.124 A 
ATOM     12  C   UNL     1       4.582  -6.388  26.817  0.00  0.00    -0.004 A 
ATOM     13  C   UNL     1       3.171  -6.908  27.027  0.00  0.00    +0.048 C 
ATOM     14  C   UNL     1       5.045  -5.859  25.564  0.00  0.00    -0.018 A 
ATOM     15  C   UNL     1       4.038  -5.875  24.437  0.00  0.00    +0.046 C 
ATOM     16  C   UNL     1       6.384  -5.363  25.471  0.00  0.00    +0.112 A 
ATOM     17  C   UNL     1       7.213  -5.379  26.630  0.00  0.00    -0.020 A 
ATOM     18  C   UNL     1       8.589  -4.757  26.700  0.00  0.00    +0.046 C 
ATOM     19  C   UNL     1       6.731  -5.935  27.829  0.00  0.00    +0.051 A 
BRANCH  11  21
ATOM     20  C   UNL     1       4.850  -6.214  30.220  0.00  0.00    +0.277 C 
ATOM     21  O   UNL     1       4.946  -7.034  29.061  0.00  0.00    -0.495 OA
ENDBRANCH  11  21
ENDBRANCH   8  16
ENDBRANCH   6   8
ENDBRANCH   5   6
BRANCH   5  22
ATOM     22  C   UNL     1       8.280  -1.868  22.294  0.00  0.00    +0.150 C 
BRANCH  22  23
ATOM     23  C   UNL     1       9.732  -1.954  22.623  0.00  0.00    +0.307 C 
ATOM     24  O   UNL     1      10.176  -2.436  23.653  0.00  0.00    -0.251 OA
BRANCH  23  25
ATOM     25  O   UNL     1      10.533  -1.503  21.633  0.00  0.00    -0.481 OA
ATOM     26  H   UNL     1      11.207  -0.848  21.895  0.00  0.00    +0.295 HD
ENDBRANCH  23  25
ENDBRANCH  22  23
ENDBRANCH   5  22
ENDBRANCH   1   5
BRANCH   2  27
ATOM     27  C   UNL     1       6.983   1.944  24.110  0.00  0.00    +0.163 C 
BRANCH  27  28
ATOM     28  C   UNL     1       5.634   2.179  24.852  0.00  0.00    +0.236 C 
ATOM     29  N   UNL     1       5.630   2.411  26.226  0.00  0.00    -0.300 N 
ATOM     30  C   UNL     1       6.797   2.387  27.110  0.00  0.00    +0.108 C 
ATOM     31  C   UNL     1       6.600   1.439  28.286  0.00  0.00    +0.019 C 
ATOM     32  C   UNL     1       5.293   1.707  29.019  0.00  0.00    +0.003 C 
ATOM     33  C   UNL     1       4.119   1.720  28.043  0.00  0.00    +0.019 C 
ATOM     34  C   UNL     1       4.364   2.709  26.904  0.00  0.00    +0.108 C 
ATOM     35  O   UNL     1       4.581   2.115  24.203  0.00  0.00    -0.274 OA
ENDBRANCH  27  28
BRANCH  27  36
ATOM     36  C   UNL     1       7.334   3.067  23.105  0.00  0.00    +0.067 C 
BRANCH  36  37
ATOM     37  C   UNL     1       8.655   3.737  23.367  0.00  0.00    -0.045 A 
ATOM     38  C   UNL     1       9.825   2.976  23.306  0.00  0.00    +0.004 A 
ATOM     39  C   UNL     1      11.066   3.583  23.458  0.00  0.00    +0.016 A 
ATOM     40  C   UNL     1      11.147   4.957  23.684  0.00  0.00    +0.065 A 
ATOM     41  C   UNL     1       9.978   5.721  23.806  0.00  0.00    +0.016 A 
ATOM     42  C   UNL     1       8.732   5.109  23.644  0.00  0.00    +0.004 A 
BRANCH  40  43
ATOM     43  C   UNL     1      12.477   5.614  23.755  0.00  0.00    +0.308 C 
ATOM     44  N   UNL     1      12.779   6.484  24.666  0.00  0.00    -0.099 NA
ATOM     45  H   UNL     1      12.015   6.606  25.336  0.00  0.00    +0.363 HD
ATOM     46  N   UNL     1      13.451   5.320  22.852  0.00  0.00    -0.247 N 
ATOM     47  H   UNL     1      14.216   5.984  22.943  0.00  0.00    +0.288 HD
ATOM     48  H   UNL     1      13.142   5.223  21.893  0.00  0.00    +0.288 HD
ENDBRANCH  40  43
ENDBRANCH  36  37
ENDBRANCH  27  36
ENDBRANCH   2  27
TORSDOF 13
ENDMDL
MODEL 5
REMARK VINA RESULT:      -7.4      3.039      7.610
REMARK  Name = 
REMARK  17 active torsions:
REMARK  status: ('A' for Active; 'I' for Inactive)
REMARK    1  A    between atoms: C_1  and  O_2
REMARK    2  A    between atoms: O_2  and  C_3
REMARK    3  A    between atoms: C_5  and  C_6
REMARK    4  A    between atoms: C_7  and  S_12
REMARK    5  A    between atoms: C_8  and  C_9
REMARK    6  A    between atoms: C_10  and  C_11
REMARK    7  A    between atoms: S_12  and  N_15
REMARK    8  A    between atoms: N_15  and  C_16
REMARK    9  A    between atoms: C_16  and  C_18
REMARK   10  A    between atoms: C_16  and  C_22
REMARK   11  A    between atoms: C_18  and  C_19
REMARK   12  A    between atoms: C_19  and  O_20
REMARK   13  A    between atoms: N_24  and  C_25
REMARK   14  A    between atoms: C_25  and  C_27
REMARK   15  A    between atoms: C_25  and  C_37
REMARK   16  A    between atoms: C_27  and  C_28
REMARK   17  A    between atoms: C_31  and  C_34
REMARK                            x       y       z     vdW  Elec       q    Type
REMARK                         _______ _______ _______ _____ _____    ______ ____
ROOT
ATOM      1  C   UNL     1       7.488  -1.422  26.341  0.00  0.00    +0.233 C 
ATOM      2  N   UNL     1       7.586  -2.123  25.164  0.00  0.00    -0.302 N 
ATOM      3  H   UNL     1       6.795  -2.238  24.540  0.00  0.00    +0.150 HD
ATOM      4  O   UNL     1       8.504  -1.164  26.996  0.00  0.00    -0.274 OA
ENDROOT
BRANCH   1   5
ATOM      5  C   UNL     1       6.107  -0.921  26.844  0.00  0.00    +0.173 C 
BRANCH   5   6
ATOM      6  N   UNL     1       4.941  -1.699  26.311  0.00  0.00    -0.178 NA
ATOM      7  H   UNL     1       5.159  -2.681  26.118  0.00  0.00    +0.149 HD
BRANCH   6   8
ATOM      8  S   UNL     1       3.516  -1.795  27.283  0.00  0.00    +0.060 S 
ATOM      9  O   UNL     1       3.970  -1.471  28.620  0.00  0.00    -0.153 OA
ATOM     10  O   UNL     1       2.529  -0.967  26.641  0.00  0.00    -0.153 OA
BRANCH   8  16
ATOM     11  C   UNL     1       2.252  -6.280  27.180  0.00  0.00    +0.124 A 
ATOM     12  C   UNL     1       3.340  -5.918  27.992  0.00  0.00    -0.004 A 
ATOM     13  C   UNL     1       4.029  -7.044  28.744  0.00  0.00    +0.048 C 
ATOM     14  C   UNL     1       3.765  -4.548  28.070  0.00  0.00    -0.018 A 
ATOM     15  C   UNL     1       4.940  -4.280  28.982  0.00  0.00    +0.046 C 
ATOM     16  C   UNL     1       3.073  -3.560  27.300  0.00  0.00    +0.112 A 
ATOM     17  C   UNL     1       2.001  -3.966  26.453  0.00  0.00    -0.020 A 
ATOM     18  C   UNL     1       1.287  -3.049  25.486  0.00  0.00    +0.046 C 
ATOM     19  C   UNL     1       1.597  -5.313  26.430  0.00  0.00    +0.051 A 
BRANCH  11  21
ATOM     20  C   UNL     1       0.623  -7.905  26.596  0.00  0.00    +0.277 C 
ATOM     21  O   UNL     1       1.856  -7.594  27.234  0.00  0.00    -0.495 OA
ENDBRANCH  11  21
ENDBRANCH   8  16
ENDBRANCH   6   8
ENDBRANCH   5   6
BRANCH   5  22
ATOM     22  C   UNL     1       6.087   0.543  26.408  0.00  0.00    +0.150 C 
BRANCH  22  23
ATOM     23  C   UNL     1       5.253   0.864  25.214  0.00  0.00    +0.307 C 
ATOM     24  O   UNL     1       4.333   1.665  25.213  0.00  0.00    -0.251 OA
BRANCH  23  25
ATOM     25  O   UNL     1       5.656   0.226  24.093  0.00  0.00    -0.481 OA
ATOM     26  H   UNL     1       5.431  -0.722  24.038  0.00  0.00    +0.295 HD
ENDBRANCH  23  25
ENDBRANCH  22  23
ENDBRANCH   5  22
ENDBRANCH   1   5
BRANCH   2  27
ATOM     27  C   UNL     1       8.902  -2.543  24.597  0.00  0.00    +0.163 C 
BRANCH  27  28
ATOM     28  C   UNL     1       9.113  -1.805  23.243  0.00  0.00    +0.236 C 
ATOM     29  N   UNL     1       9.848  -0.621  23.207  0.00  0.00    -0.300 N 
ATOM     30  C   UNL     1      10.412   0.082  24.360  0.00  0.00    +0.108 C 
ATOM     31  C   UNL     1       9.970   1.538  24.410  0.00  0.00    +0.019 C 
ATOM     32  C   UNL     1      10.217   2.253  23.088  0.00  0.00    +0.003 C 
ATOM     33  C   UNL     1       9.606   1.469  21.929  0.00  0.00    +0.019 C 
ATOM     34  C   UNL     1      10.110   0.026  21.917  0.00  0.00    +0.108 C 
ATOM     35  O   UNL     1       8.585  -2.270  22.224  0.00  0.00    -0.274 OA
ENDBRANCH  27  28
BRANCH  27  36
ATOM     36  C   UNL     1       9.054  -4.079  24.489  0.00  0.00    +0.067 C 
BRANCH  36  37
ATOM     37  C   UNL     1       7.757  -4.816  24.301  0.00  0.00    -0.045 A 
ATOM     38  C   UNL     1       6.986  -5.128  25.424  0.00  0.00    +0.004 A 
ATOM     39  C   UNL     1       5.743  -5.731  25.276  0.00  0.00    +0.016 A 
ATOM     40  C   UNL     1       5.264  -6.039  24.002  0.00  0.00    +0.065 A 
ATOM     41  C   UNL     1       6.054  -5.785  22.873  0.00  0.00    +0.016 A 
ATOM     42  C   UNL     1       7.300  -5.170  23.024  0.00  0.00    +0.004 A 
BRANCH  40  43
ATOM     43  C   UNL     1       3.898  -6.599  23.845  0.00  0.00    +0.308 C 
ATOM     44  N   UNL     1       3.559  -7.757  24.316  0.00  0.00    -0.099 NA
ATOM     45  H   UNL     1       4.325  -8.189  24.839  0.00  0.00    +0.363 HD
ATOM     46  N   UNL     1       2.927  -5.904  23.192  0.00  0.00    -0.247 N 
ATOM     47  H   UNL     1       2.125  -6.506  23.027  0.00  0.00    +0.288 HD
ATOM     48  H   UNL     1       3.225  -5.425  22.352  0.00  0.00    +0.288 HD
ENDBRANCH  40  43
ENDBRANCH  36  37
ENDBRANCH  27  36
ENDBRANCH   2  27
TORSDOF 13
ENDMDL
MODEL 6
REMARK VINA RESULT:      -7.4      2.416      5.150
REMARK  Name = 
REMARK  17 active torsions:
REMARK  status: ('A' for Active; 'I' for Inactive)
REMARK    1  A    between atoms: C_1  and  O_2
REMARK    2  A    between atoms: O_2  and  C_3
REMARK    3  A    between atoms: C_5  and  C_6
REMARK    4  A    between atoms: C_7  and  S_12
REMARK    5  A    between atoms: C_8  and  C_9
REMARK    6  A    between atoms: C_10  and  C_11
REMARK    7  A    between atoms: S_12  and  N_15
REMARK    8  A    between atoms: N_15  and  C_16
REMARK    9  A    between atoms: C_16  and  C_18
REMARK   10  A    between atoms: C_16  and  C_22
REMARK   11  A    between atoms: C_18  and  C_19
REMARK   12  A    between atoms: C_19  and  O_20
REMARK   13  A    between atoms: N_24  and  C_25
REMARK   14  A    between atoms: C_25  and  C_27
REMARK   15  A    between atoms: C_25  and  C_37
REMARK   16  A    between atoms: C_27  and  C_28
REMARK   17  A    between atoms: C_31  and  C_34
REMARK                            x       y       z     vdW  Elec       q    Type
REMARK                         _______ _______ _______ _____ _____    ______ ____
ROOT
ATOM      1  C   UNL     1       6.589  -1.503  25.515  0.00  0.00    +0.233 C 
ATOM      2  N   UNL     1       7.677  -2.311  25.290  0.00  0.00    -0.302 N 
ATOM      3  H   UNL     1       8.063  -2.906  26.015  0.00  0.00    +0.150 HD
ATOM      4  O   UNL     1       6.047  -0.916  24.572  0.00  0.00    -0.274 OA
ENDROOT
BRANCH   1   5
ATOM      5  C   UNL     1       6.012  -1.344  26.947  0.00  0.00    +0.173 C 
BRANCH   5   6
ATOM      6  N   UNL     1       4.742  -2.104  27.185  0.00  0.00    -0.178 NA
ATOM      7  H   UNL     1       4.198  -2.268  26.333  0.00  0.00    +0.149 HD
BRANCH   6   8
ATOM      8  S   UNL     1       4.858  -3.679  27.888  0.00  0.00    +0.060 S 
ATOM      9  O   UNL     1       6.196  -4.123  27.557  0.00  0.00    -0.153 OA
ATOM     10  O   UNL     1       4.468  -3.538  29.266  0.00  0.00    -0.153 OA
BRANCH   8  16
ATOM     11  C   UNL     1       2.026  -6.486  25.474  0.00  0.00    +0.124 A 
ATOM     12  C   UNL     1       1.711  -5.118  25.530  0.00  0.00    -0.004 A 
ATOM     13  C   UNL     1       0.443  -4.686  24.814  0.00  0.00    +0.048 C 
ATOM     14  C   UNL     1       2.555  -4.207  26.250  0.00  0.00    -0.018 A 
ATOM     15  C   UNL     1       2.119  -2.760  26.232  0.00  0.00    +0.046 C 
ATOM     16  C   UNL     1       3.714  -4.713  26.920  0.00  0.00    +0.112 A 
ATOM     17  C   UNL     1       3.982  -6.112  26.881  0.00  0.00    -0.020 A 
ATOM     18  C   UNL     1       5.086  -6.788  27.662  0.00  0.00    +0.046 C 
ATOM     19  C   UNL     1       3.147  -6.966  26.139  0.00  0.00    +0.051 A 
BRANCH  11  21
ATOM     20  C   UNL     1       1.845  -8.375  24.048  0.00  0.00    +0.277 C 
ATOM     21  O   UNL     1       1.217  -7.272  24.690  0.00  0.00    -0.495 OA
ENDBRANCH  11  21
ENDBRANCH   8  16
ENDBRANCH   6   8
ENDBRANCH   5   6
BRANCH   5  22
ATOM     22  C   UNL     1       5.829   0.167  27.083  0.00  0.00    +0.150 C 
BRANCH  22  23
ATOM     23  C   UNL     1       7.078   0.973  27.208  0.00  0.00    +0.307 C 
ATOM     24  O   UNL     1       7.292   2.008  26.599  0.00  0.00    -0.251 OA
BRANCH  23  25
ATOM     25  O   UNL     1       7.942   0.482  28.123  0.00  0.00    -0.481 OA
ATOM     26  H   UNL     1       8.379  -0.358  27.888  0.00  0.00    +0.295 HD
ENDBRANCH  23  25
ENDBRANCH  22  23
ENDBRANCH   5  22
ENDBRANCH   1   5
BRANCH   2  27
ATOM     27  C   UNL     1       8.208  -2.566  23.919  0.00  0.00    +0.163 C 
BRANCH  27  28
ATOM     28  C   UNL     1       8.015  -4.076  23.588  0.00  0.00    +0.236 C 
ATOM     29  N   UNL     1       6.853  -4.502  22.947  0.00  0.00    -0.300 N 
ATOM     30  C   UNL     1       5.705  -3.666  22.594  0.00  0.00    +0.108 C 
ATOM     31  C   UNL     1       4.402  -4.227  23.149  0.00  0.00    +0.019 C 
ATOM     32  C   UNL     1       4.215  -5.694  22.786  0.00  0.00    +0.003 C 
ATOM     33  C   UNL     1       5.446  -6.509  23.178  0.00  0.00    +0.019 C 
ATOM     34  C   UNL     1       6.714  -5.912  22.569  0.00  0.00    +0.108 C 
ATOM     35  O   UNL     1       8.890  -4.877  23.942  0.00  0.00    -0.274 OA
ENDBRANCH  27  28
BRANCH  27  36
ATOM     36  C   UNL     1       9.664  -2.077  23.729  0.00  0.00    +0.067 C 
BRANCH  36  37
ATOM     37  C   UNL     1       9.798  -0.587  23.577  0.00  0.00    -0.045 A 
ATOM     38  C   UNL     1       9.938   0.201  24.722  0.00  0.00    +0.004 A 
ATOM     39  C   UNL     1      10.150   1.570  24.610  0.00  0.00    +0.016 A 
ATOM     40  C   UNL     1      10.212   2.165  23.350  0.00  0.00    +0.065 A 
ATOM     41  C   UNL     1      10.014   1.394  22.196  0.00  0.00    +0.016 A 
ATOM     42  C   UNL     1       9.810   0.017  22.312  0.00  0.00    +0.004 A 
BRANCH  40  43
ATOM     43  C   UNL     1      10.530   3.611  23.233  0.00  0.00    +0.308 C 
ATOM     44  N   UNL     1      11.741   4.053  23.117  0.00  0.00    -0.099 NA
ATOM     45  H   UNL     1      12.418   3.287  23.066  0.00  0.00    +0.363 HD
ATOM     46  N   UNL     1       9.542   4.547  23.237  0.00  0.00    -0.247 N 
ATOM     47  H   UNL     1       9.948   5.475  23.329  0.00  0.00    +0.288 HD
ATOM     48  H   UNL     1       8.795   4.389  23.902  0.00  0.00    +0.288 HD
ENDBRANCH  40  43
ENDBRANCH  36  37
ENDBRANCH  27  36
ENDBRANCH   2  27
TORSDOF 13
ENDMDL
MODEL 7
REMARK VINA RESULT:      -7.2      2.949      9.756
REMARK  Name = 
REMARK  17 active torsions:
REMARK  status: ('A' for Active; 'I' for Inactive)
REMARK    1  A    between atoms: C_1  and  O_2
REMARK    2  A    between atoms: O_2  and  C_3
REMARK    3  A    between atoms: C_5  and  C_6
REMARK    4  A    between atoms: C_7  and  S_12
REMARK    5  A    between atoms: C_8  and  C_9
REMARK    6  A    between atoms: C_10  and  C_11
REMARK    7  A    between atoms: S_12  and  N_15
REMARK    8  A    between atoms: N_15  and  C_16
REMARK    9  A    between atoms: C_16  and  C_18
REMARK   10  A    between atoms: C_16  and  C_22
REMARK   11  A    between atoms: C_18  and  C_19
REMARK   12  A    between atoms: C_19  and  O_20
REMARK   13  A    between atoms: N_24  and  C_25
REMARK   14  A    between atoms: C_25  and  C_27
REMARK   15  A    between atoms: C_25  and  C_37
REMARK   16  A    between atoms: C_27  and  C_28
REMARK   17  A    between atoms: C_31  and  C_34
REMARK                            x       y       z     vdW  Elec       q    Type
REMARK                         _______ _______ _______ _____ _____    ______ ____
ROOT
ATOM      1  C   UNL     1       8.048  -1.340  25.491  0.00  0.00    +0.233 C 
ATOM      2  N   UNL     1       6.830  -1.744  25.004  0.00  0.00    -0.302 N 
ATOM      3  H   UNL     1       6.460  -1.394  24.126  0.00  0.00    +0.150 HD
ATOM      4  O   UNL     1       8.540  -1.904  26.476  0.00  0.00    -0.274 OA
ENDROOT
BRANCH   1   5
ATOM      5  C   UNL     1       8.833  -0.196  24.795  0.00  0.00    +0.173 C 
BRANCH   5   6
ATOM      6  N   UNL     1       8.140   0.382  23.597  0.00  0.00    -0.178 NA
ATOM      7  H   UNL     1       7.378  -0.203  23.243  0.00  0.00    +0.149 HD
BRANCH   6   8
ATOM      8  S   UNL     1       7.401   1.936  23.758  0.00  0.00    +0.060 S 
ATOM      9  O   UNL     1       6.719   2.142  22.498  0.00  0.00    -0.153 OA
ATOM     10  O   UNL     1       6.648   1.903  24.984  0.00  0.00    -0.153 OA
BRANCH   8  16
ATOM     11  C   UNL     1      11.032   4.858  23.714  0.00  0.00    +0.124 A 
ATOM     12  C   UNL     1       9.931   5.184  24.524  0.00  0.00    -0.004 A 
ATOM     13  C   UNL     1      10.019   6.490  25.294  0.00  0.00    +0.048 C 
ATOM     14  C   UNL     1       8.790   4.313  24.584  0.00  0.00    -0.018 A 
ATOM     15  C   UNL     1       7.673   4.763  25.496  0.00  0.00    +0.046 C 
ATOM     16  C   UNL     1       8.786   3.117  23.797  0.00  0.00    +0.112 A 
ATOM     17  C   UNL     1       9.899   2.838  22.953  0.00  0.00    -0.020 A 
ATOM     18  C   UNL     1       9.954   1.690  21.970  0.00  0.00    +0.046 C 
ATOM     19  C   UNL     1      11.009   3.701  22.947  0.00  0.00    +0.051 A 
BRANCH  11  21
ATOM     20  C   UNL     1      13.260   5.311  23.033  0.00  0.00    +0.277 C 
ATOM     21  O   UNL     1      12.116   5.698  23.784  0.00  0.00    -0.495 OA
ENDBRANCH  11  21
ENDBRANCH   8  16
ENDBRANCH   6   8
ENDBRANCH   5   6
BRANCH   5  22
ATOM     22  C   UNL     1      10.168  -0.851  24.445  0.00  0.00    +0.150 C 
BRANCH  22  23
ATOM     23  C   UNL     1      10.113  -1.973  23.463  0.00  0.00    +0.307 C 
ATOM     24  O   UNL     1      10.078  -1.825  22.252  0.00  0.00    -0.251 OA
BRANCH  23  25
ATOM     25  O   UNL     1      10.174  -3.193  24.041  0.00  0.00    -0.481 OA
ATOM     26  H   UNL     1       9.349  -3.713  24.025  0.00  0.00    +0.295 HD
ENDBRANCH  23  25
ENDBRANCH  22  23
ENDBRANCH   5  22
ENDBRANCH   1   5
BRANCH   2  27
ATOM     27  C   UNL     1       6.084  -2.899  25.585  0.00  0.00    +0.163 C 
BRANCH  27  28
ATOM     28  C   UNL     1       6.706  -4.215  25.033  0.00  0.00    +0.236 C 
ATOM     29  N   UNL     1       6.947  -4.349  23.667  0.00  0.00    -0.300 N 
ATOM     30  C   UNL     1       6.600  -3.376  22.629  0.00  0.00    +0.108 C 
ATOM     31  C   UNL     1       5.764  -4.002  21.520  0.00  0.00    +0.019 C 
ATOM     32  C   UNL     1       6.406  -5.268  20.971  0.00  0.00    +0.003 C 
ATOM     33  C   UNL     1       6.743  -6.238  22.101  0.00  0.00    +0.019 C 
ATOM     34  C   UNL     1       7.605  -5.559  23.166  0.00  0.00    +0.108 C 
ATOM     35  O   UNL     1       6.939  -5.139  25.825  0.00  0.00    -0.274 OA
ENDBRANCH  27  28
BRANCH  27  36
ATOM     36  C   UNL     1       4.554  -2.806  25.370  0.00  0.00    +0.067 C 
BRANCH  36  37
ATOM     37  C   UNL     1       3.860  -4.138  25.291  0.00  0.00    -0.045 A 
ATOM     38  C   UNL     1       3.410  -4.594  24.049  0.00  0.00    +0.004 A 
ATOM     39  C   UNL     1       2.843  -5.857  23.930  0.00  0.00    +0.016 A 
ATOM     40  C   UNL     1       2.711  -6.672  25.055  0.00  0.00    +0.065 A 
ATOM     41  C   UNL     1       3.105  -6.201  26.315  0.00  0.00    +0.016 A 
ATOM     42  C   UNL     1       3.682  -4.934  26.431  0.00  0.00    +0.004 A 
BRANCH  40  43
ATOM     43  C   UNL     1       2.189  -8.054  24.906  0.00  0.00    +0.308 C 
ATOM     44  N   UNL     1       2.165  -8.673  23.769  0.00  0.00    -0.099 NA
ATOM     45  H   UNL     1       2.592  -8.112  23.027  0.00  0.00    +0.363 HD
ATOM     46  N   UNL     1       1.711  -8.741  25.979  0.00  0.00    -0.247 N 
ATOM     47  H   UNL     1       1.239  -9.585  25.665  0.00  0.00    +0.288 HD
ATOM     48  H   UNL     1       1.145  -8.204  26.623  0.00  0.00    +0.288 HD
ENDBRANCH  40  43
ENDBRANCH  36  37
ENDBRANCH  27  36
ENDBRANCH   2  27
TORSDOF 13
ENDMDL
MODEL 8
REMARK VINA RESULT:      -7.2      2.316      5.285
REMARK  Name = 
REMARK  17 active torsions:
REMARK  status: ('A' for Active; 'I' for Inactive)
REMARK    1  A    between atoms: C_1  and  O_2
REMARK    2  A    between atoms: O_2  and  C_3
REMARK    3  A    between atoms: C_5  and  C_6
REMARK    4  A    between atoms: C_7  and  S_12
REMARK    5  A    between atoms: C_8  and  C_9
REMARK    6  A    between atoms: C_10  and  C_11
REMARK    7  A    between atoms: S_12  and  N_15
REMARK    8  A    between atoms: N_15  and  C_16
REMARK    9  A    between atoms: C_16  and  C_18
REMARK   10  A    between atoms: C_16  and  C_22
REMARK   11  A    between atoms: C_18  and  C_19
REMARK   12  A    between atoms: C_19  and  O_20
REMARK   13  A    between atoms: N_24  and  C_25
REMARK   14  A    between atoms: C_25  and  C_27
REMARK   15  A    between atoms: C_25  and  C_37
REMARK   16  A    between atoms: C_27  and  C_28
REMARK   17  A    between atoms: C_31  and  C_34
REMARK                            x       y       z     vdW  Elec       q    Type
REMARK                         _______ _______ _______ _____ _____    ______ ____
ROOT
ATOM      1  C   UNL     1       6.841  -0.433  23.926  0.00  0.00    +0.233 C 
ATOM      2  N   UNL     1       7.731  -1.455  24.149  0.00  0.00    -0.302 N 
ATOM      3  H   UNL     1       7.875  -1.850  25.072  0.00  0.00    +0.150 HD
ATOM      4  O   UNL     1       6.573  -0.086  22.770  0.00  0.00    -0.274 OA
ENDROOT
BRANCH   1   5
ATOM      5  C   UNL     1       6.141   0.273  25.118  0.00  0.00    +0.173 C 
BRANCH   5   6
ATOM      6  N   UNL     1       5.026  -0.519  25.732  0.00  0.00    -0.178 NA
ATOM      7  H   UNL     1       4.697  -1.288  25.140  0.00  0.00    +0.149 HD
BRANCH   6   8
ATOM      8  S   UNL     1       5.317  -1.289  27.251  0.00  0.00    +0.060 S 
ATOM      9  O   UNL     1       6.701  -1.711  27.181  0.00  0.00    -0.153 OA
ATOM     10  O   UNL     1       4.903  -0.356  28.266  0.00  0.00    -0.153 OA
BRANCH   8  16
ATOM     11  C   UNL     1       2.578  -5.058  27.133  0.00  0.00    +0.124 A 
ATOM     12  C   UNL     1       3.969  -5.252  27.134  0.00  0.00    -0.004 A 
ATOM     13  C   UNL     1       4.453  -6.690  27.064  0.00  0.00    +0.048 C 
ATOM     14  C   UNL     1       4.860  -4.126  27.181  0.00  0.00    -0.018 A 
ATOM     15  C   UNL     1       6.334  -4.459  27.186  0.00  0.00    +0.046 C 
ATOM     16  C   UNL     1       4.310  -2.805  27.214  0.00  0.00    +0.112 A 
ATOM     17  C   UNL     1       2.896  -2.640  27.168  0.00  0.00    -0.020 A 
ATOM     18  C   UNL     1       2.198  -1.304  27.051  0.00  0.00    +0.046 C 
ATOM     19  C   UNL     1       2.058  -3.771  27.153  0.00  0.00    +0.051 A 
BRANCH  11  21
ATOM     20  C   UNL     1       0.842  -6.335  26.136  0.00  0.00    +0.277 C 
ATOM     21  O   UNL     1       1.800  -6.189  27.178  0.00  0.00    -0.495 OA
ENDBRANCH  11  21
ENDBRANCH   8  16
ENDBRANCH   6   8
ENDBRANCH   5   6
BRANCH   5  22
ATOM     22  C   UNL     1       5.664   1.591  24.511  0.00  0.00    +0.150 C 
BRANCH  22  23
ATOM     23  C   UNL     1       4.487   2.231  25.167  0.00  0.00    +0.307 C 
ATOM     24  O   UNL     1       3.373   2.292  24.672  0.00  0.00    -0.251 OA
BRANCH  23  25
ATOM     25  O   UNL     1       4.751   2.687  26.411  0.00  0.00    -0.481 OA
ATOM     26  H   UNL     1       3.974   2.877  26.969  0.00  0.00    +0.295 HD
ENDBRANCH  23  25
ENDBRANCH  22  23
ENDBRANCH   5  22
ENDBRANCH   1   5
BRANCH   2  27
ATOM     27  C   UNL     1       8.357  -2.223  23.032  0.00  0.00    +0.163 C 
BRANCH  27  28
ATOM     28  C   UNL     1       8.108  -3.740  23.277  0.00  0.00    +0.236 C 
ATOM     29  N   UNL     1       6.909  -4.321  22.870  0.00  0.00    -0.300 N 
ATOM     30  C   UNL     1       5.769  -3.622  22.273  0.00  0.00    +0.108 C 
ATOM     31  C   UNL     1       4.477  -3.891  23.033  0.00  0.00    +0.019 C 
ATOM     32  C   UNL     1       4.234  -5.381  23.233  0.00  0.00    +0.003 C 
ATOM     33  C   UNL     1       5.458  -6.048  23.856  0.00  0.00    +0.019 C 
ATOM     34  C   UNL     1       6.715  -5.765  23.033  0.00  0.00    +0.108 C 
ATOM     35  O   UNL     1       8.976  -4.395  23.870  0.00  0.00    -0.274 OA
ENDBRANCH  27  28
BRANCH  27  36
ATOM     36  C   UNL     1       9.848  -1.872  22.813  0.00  0.00    +0.067 C 
BRANCH  36  37
ATOM     37  C   UNL     1      10.159  -0.405  22.924  0.00  0.00    -0.045 A 
ATOM     38  C   UNL     1       9.835   0.439  21.859  0.00  0.00    +0.004 A 
ATOM     39  C   UNL     1      10.032   1.811  21.967  0.00  0.00    +0.016 A 
ATOM     40  C   UNL     1      10.565   2.350  23.138  0.00  0.00    +0.065 A 
ATOM     41  C   UNL     1      10.948   1.507  24.189  0.00  0.00    +0.016 A 
ATOM     42  C   UNL     1      10.742   0.129  24.082  0.00  0.00    +0.004 A 
BRANCH  40  43
ATOM     43  C   UNL     1      10.687   3.823  23.282  0.00  0.00    +0.308 C 
ATOM     44  N   UNL     1      11.826   4.438  23.226  0.00  0.00    -0.099 NA
ATOM     45  H   UNL     1      12.593   3.792  23.024  0.00  0.00    +0.363 HD
ATOM     46  N   UNL     1       9.588   4.600  23.474  0.00  0.00    -0.247 N 
ATOM     47  H   UNL     1       9.874   5.543  23.727  0.00  0.00    +0.288 HD
ATOM     48  H   UNL     1       8.897   4.227  24.112  0.00  0.00    +0.288 HD
ENDBRANCH  40  43
ENDBRANCH  36  37
ENDBRANCH  27  36
ENDBRANCH   2  27
TORSDOF 13
ENDMDL
MODEL 9
REMARK VINA RESULT:      -7.1      2.369      3.522
REMARK  Name = 
REMARK  17 active torsions:
REMARK  status: ('A' for Active; 'I' for Inactive)
REMARK    1  A    between atoms: C_1  and  O_2
REMARK    2  A    between atoms: O_2  and  C_3
REMARK    3  A    between atoms: C_5  and  C_6
REMARK    4  A    between atoms: C_7  and  S_12
REMARK    5  A    between atoms: C_8  and  C_9
REMARK    6  A    between atoms: C_10  and  C_11
REMARK    7  A    between atoms: S_12  and  N_15
REMARK    8  A    between atoms: N_15  and  C_16
REMARK    9  A    between atoms: C_16  and  C_18
REMARK   10  A    between atoms: C_16  and  C_22
REMARK   11  A    between atoms: C_18  and  C_19
REMARK   12  A    between atoms: C_19  and  O_20
REMARK   13  A    between atoms: N_24  and  C_25
REMARK   14  A    between atoms: C_25  and  C_27
REMARK   15  A    between atoms: C_25  and  C_37
REMARK   16  A    between atoms: C_27  and  C_28
REMARK   17  A    between atoms: C_31  and  C_34
REMARK                            x       y       z     vdW  Elec       q    Type
REMARK                         _______ _______ _______ _____ _____    ______ ____
ROOT
ATOM      1  C   UNL     1       7.193   0.255  25.749  0.00  0.00    +0.233 C 
ATOM      2  N   UNL     1       5.989   0.913  25.707  0.00  0.00    -0.302 N 
ATOM      3  H   UNL     1       5.456   1.003  24.848  0.00  0.00    +0.150 HD
ATOM      4  O   UNL     1       7.736   0.024  26.835  0.00  0.00    -0.274 OA
ENDROOT
BRANCH   1   5
ATOM      5  C   UNL     1       7.869  -0.231  24.439  0.00  0.00    +0.173 C 
BRANCH   5   6
ATOM      6  N   UNL     1       8.976  -1.221  24.650  0.00  0.00    -0.178 NA
ATOM      7  H   UNL     1       8.979  -1.637  25.586  0.00  0.00    +0.149 HD
BRANCH   6   8
ATOM      8  S   UNL     1       9.046  -2.597  23.607  0.00  0.00    +0.060 S 
ATOM      9  O   UNL     1       8.667  -2.083  22.308  0.00  0.00    -0.153 OA
ATOM     10  O   UNL     1      10.347  -3.183  23.795  0.00  0.00    -0.153 OA
BRANCH   8  16
ATOM     11  C   UNL     1       5.678  -5.421  25.159  0.00  0.00    +0.124 A 
ATOM     12  C   UNL     1       5.367  -4.530  24.118  0.00  0.00    -0.004 A 
ATOM     13  C   UNL     1       3.934  -4.552  23.613  0.00  0.00    +0.048 C 
ATOM     14  C   UNL     1       6.370  -3.645  23.594  0.00  0.00    -0.018 A 
ATOM     15  C   UNL     1       5.919  -2.740  22.471  0.00  0.00    +0.046 C 
ATOM     16  C   UNL     1       7.686  -3.675  24.156  0.00  0.00    +0.112 A 
ATOM     17  C   UNL     1       7.958  -4.559  25.239  0.00  0.00    -0.020 A 
ATOM     18  C   UNL     1       9.258  -4.584  26.011  0.00  0.00    +0.046 C 
ATOM     19  C   UNL     1       6.956  -5.431  25.702  0.00  0.00    +0.051 A 
BRANCH  11  21
ATOM     20  C   UNL     1       4.741  -6.759  26.881  0.00  0.00    +0.277 C 
ATOM     21  O   UNL     1       4.687  -6.293  25.538  0.00  0.00    -0.495 OA
ENDBRANCH  11  21
ENDBRANCH   8  16
ENDBRANCH   6   8
ENDBRANCH   5   6
BRANCH   5  22
ATOM     22  C   UNL     1       8.353   1.066  23.793  0.00  0.00    +0.150 C 
BRANCH  22  23
ATOM     23  C   UNL     1       7.572   1.548  22.618  0.00  0.00    +0.307 C 
ATOM     24  O   UNL     1       8.003   2.316  21.774  0.00  0.00    -0.251 OA
BRANCH  23  25
ATOM     25  O   UNL     1       6.341   0.997  22.532  0.00  0.00    -0.481 OA
ATOM     26  H   UNL     1       6.142   0.526  21.700  0.00  0.00    +0.295 HD
ENDBRANCH  23  25
ENDBRANCH  22  23
ENDBRANCH   5  22
ENDBRANCH   1   5
BRANCH   2  27
ATOM     27  C   UNL     1       5.259   1.317  26.945  0.00  0.00    +0.163 C 
BRANCH  27  28
ATOM     28  C   UNL     1       3.828   0.707  26.894  0.00  0.00    +0.236 C 
ATOM     29  N   UNL     1       3.595  -0.561  27.422  0.00  0.00    -0.300 N 
ATOM     30  C   UNL     1       4.603  -1.463  27.981  0.00  0.00    +0.108 C 
ATOM     31  C   UNL     1       4.571  -2.834  27.318  0.00  0.00    +0.019 C 
ATOM     32  C   UNL     1       3.169  -3.427  27.308  0.00  0.00    +0.003 C 
ATOM     33  C   UNL     1       2.168  -2.439  26.716  0.00  0.00    +0.019 C 
ATOM     34  C   UNL     1       2.229  -1.095  27.441  0.00  0.00    +0.108 C 
ATOM     35  O   UNL     1       2.926   1.356  26.346  0.00  0.00    -0.274 OA
ENDBRANCH  27  28
BRANCH  27  36
ATOM     36  C   UNL     1       5.268   2.845  27.186  0.00  0.00    +0.067 C 
BRANCH  36  37
ATOM     37  C   UNL     1       5.923   3.638  26.088  0.00  0.00    -0.045 A 
ATOM     38  C   UNL     1       7.286   3.927  26.181  0.00  0.00    +0.004 A 
ATOM     39  C   UNL     1       7.937   4.583  25.143  0.00  0.00    +0.016 A 
ATOM     40  C   UNL     1       7.225   4.967  24.006  0.00  0.00    +0.065 A 
ATOM     41  C   UNL     1       5.845   4.735  23.927  0.00  0.00    +0.016 A 
ATOM     42  C   UNL     1       5.196   4.068  24.969  0.00  0.00    +0.004 A 
BRANCH  40  43
ATOM     43  C   UNL     1       7.943   5.585  22.862  0.00  0.00    +0.308 C 
ATOM     44  N   UNL     1       7.471   5.578  21.656  0.00  0.00    -0.099 NA
ATOM     45  H   UNL     1       6.543   5.148  21.617  0.00  0.00    +0.363 HD
ATOM     46  N   UNL     1       9.143   6.200  23.039  0.00  0.00    -0.247 N 
ATOM     47  H   UNL     1       9.563   6.401  22.135  0.00  0.00    +0.288 HD
ATOM     48  H   UNL     1       9.786   5.728  23.662  0.00  0.00    +0.288 HD
ENDBRANCH  40  43
ENDBRANCH  36  37
ENDBRANCH  27  36
ENDBRANCH   2  27
TORSDOF 13
ENDMDL
