MODEL 1
REMARK VINA RESULT:      -6.7      0.000      0.000
REMARK  Name = 
REMARK  25 active torsions:
REMARK  status: ('A' for Active; 'I' for Inactive)
REMARK    1  A    between atoms: C_1  and  C_2
REMARK    2  A    between atoms: N_4  and  C_5
REMARK    3  A    between atoms: C_8  and  O_10
REMARK    4  A    between atoms: C_11  and  C_13
REMARK    5  A    between atoms: C_13  and  O_14
REMARK    6  A    between atoms: O_14  and  P_15
REMARK    7  A    between atoms: P_15  and  O_16
REMARK    8  A    between atoms: P_15  and  O_18
REMARK    9  A    between atoms: O_18  and  P_19
REMARK   10  A    between atoms: P_19  and  O_20
REMARK   11  A    between atoms: P_19  and  O_22
REMARK   12  A    between atoms: O_22  and  P_23
REMARK   13  A    between atoms: P_23  and  O_24
REMARK   14  A    between atoms: P_23  and  O_26
REMARK   15  A    between atoms: O_26  and  P_27
REMARK   16  A    between atoms: P_27  and  O_28
REMARK   17  A    between atoms: P_27  and  O_30
REMARK   18  A    between atoms: O_30  and  P_31
REMARK   19  A    between atoms: P_31  and  O_32
REMARK   20  A    between atoms: P_31  and  O_34
REMARK   21  A    between atoms: O_34  and  C_35
REMARK   22  A    between atoms: C_35  and  C_36
REMARK   23  A    between atoms: C_39  and  N_47
REMARK   24  A    between atoms: C_41  and  O_43
REMARK   25  A    between atoms: C_44  and  O_46
REMARK                            x       y       z     vdW  Elec       q    Type
REMARK                         _______ _______ _______ _____ _____    ______ ____
ROOT
ATOM      1  P   UNL     1       7.525  -4.867  23.950  0.00  0.00    +0.492 P 
ATOM      2  O   UNL     1       7.273  -5.651  22.711  0.00  0.00    -0.226 OA
ENDROOT
BRANCH   1   3
ATOM      3  O   UNL     1       9.062  -4.458  24.111  0.00  0.00    -0.302 OA
ATOM      4  H   UNL     1       9.477  -5.038  24.787  0.00  0.00    +0.222 HD
ENDBRANCH   1   3
BRANCH   1   5
ATOM      5  O   UNL     1       6.791  -3.463  23.957  0.00  0.00    -0.186 OA
BRANCH   5   6
ATOM      6  P   UNL     1       6.757  -2.549  22.654  0.00  0.00    +0.492 P 
ATOM      7  O   UNL     1       5.866  -3.099  21.588  0.00  0.00    -0.226 OA
BRANCH   6   8
ATOM      8  O   UNL     1       6.207  -1.179  23.261  0.00  0.00    -0.302 OA
ATOM      9  H   UNL     1       6.257  -1.213  24.238  0.00  0.00    +0.222 HD
ENDBRANCH   6   8
BRANCH   6  10
ATOM     10  O   UNL     1       8.269  -2.361  22.232  0.00  0.00    -0.186 OA
BRANCH  10  11
ATOM     11  P   UNL     1       9.490  -1.261  22.773  0.00  0.00    +0.483 P 
ATOM     12  O   UNL     1      10.586  -2.279  22.454  0.00  0.00    -0.227 OA
BRANCH  11  13
ATOM     13  O   UNL     1       9.120  -1.623  24.325  0.00  0.00    -0.302 OA
ATOM     14  H   UNL     1       9.828  -2.222  24.641  0.00  0.00    +0.222 HD
ENDBRANCH  11  13
BRANCH  11  15
ATOM     15  O   UNL     1      10.713  -0.161  23.313  0.00  0.00    -0.284 OA
BRANCH  15  16
ATOM     16  C   UNL     1      10.521   0.442  24.549  0.00  0.00    +0.206 C 
BRANCH  16  17
ATOM     17  C   UNL     1      10.224   1.935  24.415  0.00  0.00    +0.178 C 
ATOM     18  C   UNL     1      10.359   2.547  23.032  0.00  0.00    +0.178 C 
ATOM     19  C   UNL     1       8.941   2.689  22.506  0.00  0.00    +0.195 C 
ATOM     20  C   UNL     1       8.065   2.115  23.625  0.00  0.00    +0.253 C 
ATOM     21  O   UNL     1       8.856   2.191  24.828  0.00  0.00    -0.346 OA
BRANCH  20  22
ATOM     22  N   UNL     1       6.806   2.798  23.869  0.00  0.00    -0.286 N 
ATOM     23  C   UNL     1       6.670   4.116  24.188  0.00  0.00    +0.167 A 
ATOM     24  N   UNL     1       7.635   5.006  24.473  0.00  0.00    -0.216 NA
ATOM     25  C   UNL     1       7.115   6.202  24.801  0.00  0.00    +0.225 A 
ATOM     26  N   UNL     1       5.811   6.564  24.819  0.00  0.00    -0.219 NA
ATOM     27  C   UNL     1       4.877   5.656  24.471  0.00  0.00    +0.147 A 
ATOM     28  N   UNL     1       3.545   6.058  24.449  0.00  0.00    -0.341 N 
ATOM     29  H   UNL     1       2.896   5.281  24.531  0.00  0.00    +0.144 HD
ATOM     30  H   UNL     1       3.391   6.858  25.045  0.00  0.00    +0.144 HD
ATOM     31  C   UNL     1       5.297   4.347  24.169  0.00  0.00    +0.147 A 
ATOM     32  N   UNL     1       4.614   3.195  23.842  0.00  0.00    -0.231 NA
ATOM     33  C   UNL     1       5.556   2.289  23.657  0.00  0.00    +0.203 A 
ENDBRANCH  20  22
BRANCH  19  34
ATOM     34  O   UNL     1       8.785   1.981  21.275  0.00  0.00    -0.385 OA
ATOM     35  H   UNL     1       9.500   2.307  20.689  0.00  0.00    +0.210 HD
ENDBRANCH  19  34
BRANCH  18  36
ATOM     36  O   UNL     1      10.926   3.876  23.182  0.00  0.00    -0.386 OA
ATOM     37  H   UNL     1      10.237   4.526  22.944  0.00  0.00    +0.210 HD
ENDBRANCH  18  36
ENDBRANCH  16  17
ENDBRANCH  15  16
ENDBRANCH  11  15
ENDBRANCH  10  11
ENDBRANCH   6  10
ENDBRANCH   5   6
ENDBRANCH   1   5
BRANCH   1  38
ATOM     38  O   UNL     1       7.142  -5.601  25.294  0.00  0.00    -0.186 OA
BRANCH  38  39
ATOM     39  P   UNL     1       7.178  -5.069  26.783  0.00  0.00    +0.492 P 
ATOM     40  O   UNL     1       7.907  -5.949  27.739  0.00  0.00    -0.226 OA
BRANCH  39  41
ATOM     41  O   UNL     1       7.894  -3.647  26.576  0.00  0.00    -0.302 OA
ATOM     42  H   UNL     1       8.737  -3.570  27.058  0.00  0.00    +0.222 HD
ENDBRANCH  39  41
BRANCH  39  43
ATOM     43  O   UNL     1       5.672  -4.692  27.243  0.00  0.00    -0.186 OA
BRANCH  43  44
ATOM     44  P   UNL     1       4.727  -6.046  26.725  0.00  0.00    +0.483 P 
ATOM     45  O   UNL     1       4.477  -6.504  28.163  0.00  0.00    -0.227 OA
BRANCH  44  46
ATOM     46  O   UNL     1       3.783  -7.399  26.206  0.00  0.00    -0.302 OA
ATOM     47  H   UNL     1       4.463  -8.080  26.016  0.00  0.00    +0.222 HD
ENDBRANCH  44  46
BRANCH  44  48
ATOM     48  O   UNL     1       3.477  -5.050  26.294  0.00  0.00    -0.284 OA
BRANCH  48  49
ATOM     49  C   UNL     1       3.713  -4.035  25.317  0.00  0.00    +0.206 C 
BRANCH  49  52
ATOM     50  C   UNL     1       4.646  -1.207  26.879  0.00  0.00    +0.226 C 
ATOM     51  O   UNL     1       4.185  -1.627  25.595  0.00  0.00    -0.348 OA
ATOM     52  C   UNL     1       3.216  -2.673  25.813  0.00  0.00    +0.175 C 
ATOM     53  C   UNL     1       2.953  -2.721  27.322  0.00  0.00    +0.150 C 
ATOM     54  C   UNL     1       3.450  -1.381  27.789  0.00  0.00    +0.088 C 
BRANCH  50  63
ATOM     55  C   UNL     1       4.517   3.747  27.664  0.00  0.00    +0.051 C 
ATOM     56  C   UNL     1       5.173   2.432  27.395  0.00  0.00    +0.030 A 
ATOM     57  C   UNL     1       6.643   2.384  27.528  0.00  0.00    +0.257 A 
ATOM     58  O   UNL     1       7.286   3.351  27.917  0.00  0.00    -0.267 OA
ATOM     59  N   UNL     1       7.244   1.216  27.155  0.00  0.00    -0.275 N 
ATOM     60  H   UNL     1       8.249   1.204  27.088  0.00  0.00    +0.173 HD
ATOM     61  C   UNL     1       6.606   0.128  26.635  0.00  0.00    +0.331 A 
ATOM     62  O   UNL     1       7.258  -0.744  26.069  0.00  0.00    -0.246 OA
ATOM     63  N   UNL     1       5.237   0.111  26.841  0.00  0.00    -0.274 N 
ATOM     64  C   UNL     1       4.547   1.274  27.143  0.00  0.00    +0.101 A 
ENDBRANCH  50  63
BRANCH  53  65
ATOM     65  O   UNL     1       1.583  -2.902  27.633  0.00  0.00    -0.389 OA
ATOM     66  H   UNL     1       1.208  -2.045  27.903  0.00  0.00    +0.210 HD
ENDBRANCH  53  65
ENDBRANCH  49  52
ENDBRANCH  48  49
ENDBRANCH  44  48
ENDBRANCH  43  44
ENDBRANCH  39  43
ENDBRANCH  38  39
ENDBRANCH   1  38
TORSDOF 24
ENDMDL
MODEL 2
REMARK VINA RESULT:      -6.0      1.895      5.959
REMARK  Name = 
REMARK  25 active torsions:
REMARK  status: ('A' for Active; 'I' for Inactive)
REMARK    1  A    between atoms: C_1  and  C_2
REMARK    2  A    between atoms: N_4  and  C_5
REMARK    3  A    between atoms: C_8  and  O_10
REMARK    4  A    between atoms: C_11  and  C_13
REMARK    5  A    between atoms: C_13  and  O_14
REMARK    6  A    between atoms: O_14  and  P_15
REMARK    7  A    between atoms: P_15  and  O_16
REMARK    8  A    between atoms: P_15  and  O_18
REMARK    9  A    between atoms: O_18  and  P_19
REMARK   10  A    between atoms: P_19  and  O_20
REMARK   11  A    between atoms: P_19  and  O_22
REMARK   12  A    between atoms: O_22  and  P_23
REMARK   13  A    between atoms: P_23  and  O_24
REMARK   14  A    between atoms: P_23  and  O_26
REMARK   15  A    between atoms: O_26  and  P_27
REMARK   16  A    between atoms: P_27  and  O_28
REMARK   17  A    between atoms: P_27  and  O_30
REMARK   18  A    between atoms: O_30  and  P_31
REMARK   19  A    between atoms: P_31  and  O_32
REMARK   20  A    between atoms: P_31  and  O_34
REMARK   21  A    between atoms: O_34  and  C_35
REMARK   22  A    between atoms: C_35  and  C_36
REMARK   23  A    between atoms: C_39  and  N_47
REMARK   24  A    between atoms: C_41  and  O_43
REMARK   25  A    between atoms: C_44  and  O_46
REMARK                            x       y       z     vdW  Elec       q    Type
REMARK                         _______ _______ _______ _____ _____    ______ ____
ROOT
ATOM      1  P   UNL     1       5.429  -5.828  23.115  0.00  0.00    +0.492 P 
ATOM      2  O   UNL     1       6.014  -6.415  21.879  0.00  0.00    -0.226 OA
ENDROOT
BRANCH   1   3
ATOM      3  O   UNL     1       4.472  -4.586  22.806  0.00  0.00    -0.302 OA
ATOM      4  H   UNL     1       4.959  -3.938  22.250  0.00  0.00    +0.222 HD
ENDBRANCH   1   3
BRANCH   1   5
ATOM      5  O   UNL     1       4.466  -6.826  23.882  0.00  0.00    -0.186 OA
BRANCH   5   6
ATOM      6  P   UNL     1       3.913  -6.477  25.332  0.00  0.00    +0.492 P 
ATOM      7  O   UNL     1       2.868  -7.438  25.797  0.00  0.00    -0.226 OA
BRANCH   6   8
ATOM      8  O   UNL     1       5.253  -6.568  26.196  0.00  0.00    -0.302 OA
ATOM      9  H   UNL     1       5.718  -5.708  26.164  0.00  0.00    +0.222 HD
ENDBRANCH   6   8
BRANCH   6  10
ATOM     10  O   UNL     1       3.447  -4.967  25.254  0.00  0.00    -0.186 OA
BRANCH  10  11
ATOM     11  P   UNL     1       3.640  -3.641  26.348  0.00  0.00    +0.483 P 
ATOM     12  O   UNL     1       3.393  -2.639  25.219  0.00  0.00    -0.227 OA
BRANCH  11  13
ATOM     13  O   UNL     1       5.264  -3.837  26.290  0.00  0.00    -0.302 OA
ATOM     14  H   UNL     1       5.426  -4.570  25.662  0.00  0.00    +0.222 HD
ENDBRANCH  11  13
BRANCH  11  15
ATOM     15  O   UNL     1       3.832  -2.314  27.442  0.00  0.00    -0.284 OA
BRANCH  15  16
ATOM     16  C   UNL     1       3.102  -1.163  27.176  0.00  0.00    +0.206 C 
BRANCH  16  17
ATOM     17  C   UNL     1       3.593   0.028  27.999  0.00  0.00    +0.178 C 
ATOM     18  C   UNL     1       4.994  -0.061  28.577  0.00  0.00    +0.178 C 
ATOM     19  C   UNL     1       5.866   0.794  27.674  0.00  0.00    +0.195 C 
ATOM     20  C   UNL     1       4.903   1.307  26.598  0.00  0.00    +0.253 C 
ATOM     21  O   UNL     1       3.583   1.219  27.169  0.00  0.00    -0.346 OA
BRANCH  20  22
ATOM     22  N   UNL     1       5.112   2.674  26.150  0.00  0.00    -0.286 N 
ATOM     23  C   UNL     1       4.592   3.223  25.016  0.00  0.00    +0.167 A 
ATOM     24  N   UNL     1       3.915   2.610  24.032  0.00  0.00    -0.216 NA
ATOM     25  C   UNL     1       3.611   3.467  23.041  0.00  0.00    +0.225 A 
ATOM     26  N   UNL     1       3.869   4.795  22.983  0.00  0.00    -0.219 NA
ATOM     27  C   UNL     1       4.502   5.382  24.018  0.00  0.00    +0.147 A 
ATOM     28  N   UNL     1       4.717   6.756  23.964  0.00  0.00    -0.341 N 
ATOM     29  H   UNL     1       5.475   7.061  24.566  0.00  0.00    +0.144 HD
ATOM     30  H   UNL     1       4.713   7.092  23.013  0.00  0.00    +0.144 HD
ATOM     31  C   UNL     1       4.927   4.573  25.088  0.00  0.00    +0.147 A 
ATOM     32  N   UNL     1       5.633   4.838  26.243  0.00  0.00    -0.231 NA
ATOM     33  C   UNL     1       5.713   3.674  26.860  0.00  0.00    +0.203 A 
ENDBRANCH  20  22
BRANCH  19  34
ATOM     34  O   UNL     1       6.935   0.021  27.125  0.00  0.00    -0.385 OA
ATOM     35  H   UNL     1       7.213   0.493  26.312  0.00  0.00    +0.210 HD
ENDBRANCH  19  34
BRANCH  18  36
ATOM     36  O   UNL     1       4.973   0.544  29.898  0.00  0.00    -0.386 OA
ATOM     37  H   UNL     1       4.483   1.386  29.836  0.00  0.00    +0.210 HD
ENDBRANCH  18  36
ENDBRANCH  16  17
ENDBRANCH  15  16
ENDBRANCH  11  15
ENDBRANCH  10  11
ENDBRANCH   6  10
ENDBRANCH   5   6
ENDBRANCH   1   5
BRANCH   1  38
ATOM     38  O   UNL     1       6.483  -5.297  24.164  0.00  0.00    -0.186 OA
BRANCH  38  39
ATOM     39  P   UNL     1       7.792  -4.439  23.937  0.00  0.00    +0.492 P 
ATOM     40  O   UNL     1       9.065  -5.192  24.118  0.00  0.00    -0.226 OA
BRANCH  39  41
ATOM     41  O   UNL     1       7.569  -3.946  22.426  0.00  0.00    -0.302 OA
ATOM     42  H   UNL     1       6.780  -3.384  22.318  0.00  0.00    +0.222 HD
ENDBRANCH  39  41
BRANCH  39  43
ATOM     43  O   UNL     1       7.691  -3.083  24.816  0.00  0.00    -0.186 OA
BRANCH  43  44
ATOM     44  P   UNL     1       7.063  -1.914  23.706  0.00  0.00    +0.483 P 
ATOM     45  O   UNL     1       6.255  -1.213  24.801  0.00  0.00    -0.227 OA
BRANCH  44  46
ATOM     46  O   UNL     1       6.435  -0.745  22.596  0.00  0.00    -0.302 OA
ATOM     47  H   UNL     1       6.029  -1.303  21.898  0.00  0.00    +0.222 HD
ENDBRANCH  44  46
BRANCH  44  48
ATOM     48  O   UNL     1       8.535  -1.162  23.614  0.00  0.00    -0.284 OA
BRANCH  48  49
ATOM     49  C   UNL     1       9.307  -1.016  24.807  0.00  0.00    +0.206 C 
BRANCH  49  52
ATOM     50  C   UNL     1       9.099   2.078  23.503  0.00  0.00    +0.226 C 
ATOM     51  O   UNL     1       8.658   1.363  24.657  0.00  0.00    -0.348 OA
ATOM     52  C   UNL     1       9.713   0.447  25.019  0.00  0.00    +0.175 C 
ATOM     53  C   UNL     1      10.919   0.796  24.139  0.00  0.00    +0.150 C 
ATOM     54  C   UNL     1      10.598   2.190  23.674  0.00  0.00    +0.088 C 
BRANCH  50  63
ATOM     55  C   UNL     1       8.570   7.034  24.072  0.00  0.00    +0.051 C 
ATOM     56  C   UNL     1       8.270   5.696  23.478  0.00  0.00    +0.030 A 
ATOM     57  C   UNL     1       7.444   5.683  22.255  0.00  0.00    +0.257 A 
ATOM     58  O   UNL     1       7.087   6.720  21.708  0.00  0.00    -0.267 OA
ATOM     59  N   UNL     1       7.067   4.455  21.795  0.00  0.00    -0.275 N 
ATOM     60  H   UNL     1       6.381   4.417  21.058  0.00  0.00    +0.173 HD
ATOM     61  C   UNL     1       7.352   3.263  22.395  0.00  0.00    +0.331 A 
ATOM     62  O   UNL     1       6.732   2.256  22.069  0.00  0.00    -0.246 OA
ATOM     63  N   UNL     1       8.379   3.317  23.322  0.00  0.00    -0.274 N 
ATOM     64  C   UNL     1       8.761   4.521  23.893  0.00  0.00    +0.101 A 
ENDBRANCH  50  63
BRANCH  53  65
ATOM     65  O   UNL     1      12.143   0.756  24.850  0.00  0.00    -0.389 OA
ATOM     66  H   UNL     1      11.949   0.726  25.804  0.00  0.00    +0.210 HD
ENDBRANCH  53  65
ENDBRANCH  49  52
ENDBRANCH  48  49
ENDBRANCH  44  48
ENDBRANCH  43  44
ENDBRANCH  39  43
ENDBRANCH  38  39
ENDBRANCH   1  38
TORSDOF 24
ENDMDL
MODEL 3
REMARK VINA RESULT:      -5.9      2.135      5.815
REMARK  Name = 
REMARK  25 active torsions:
REMARK  status: ('A' for Active; 'I' for Inactive)
REMARK    1  A    between atoms: C_1  and  C_2
REMARK    2  A    between atoms: N_4  and  C_5
REMARK    3  A    between atoms: C_8  and  O_10
REMARK    4  A    between atoms: C_11  and  C_13
REMARK    5  A    between atoms: C_13  and  O_14
REMARK    6  A    between atoms: O_14  and  P_15
REMARK    7  A    between atoms: P_15  and  O_16
REMARK    8  A    between atoms: P_15  and  O_18
REMARK    9  A    between atoms: O_18  and  P_19
REMARK   10  A    between atoms: P_19  and  O_20
REMARK   11  A    between atoms: P_19  and  O_22
REMARK   12  A    between atoms: O_22  and  P_23
REMARK   13  A    between atoms: P_23  and  O_24
REMARK   14  A    between atoms: P_23  and  O_26
REMARK   15  A    between atoms: O_26  and  P_27
REMARK   16  A    between atoms: P_27  and  O_28
REMARK   17  A    between atoms: P_27  and  O_30
REMARK   18  A    between atoms: O_30  and  P_31
REMARK   19  A    between atoms: P_31  and  O_32
REMARK   20  A    between atoms: P_31  and  O_34
REMARK   21  A    between atoms: O_34  and  C_35
REMARK   22  A    between atoms: C_35  and  C_36
REMARK   23  A    between atoms: C_39  and  N_47
REMARK   24  A    between atoms: C_41  and  O_43
REMARK   25  A    between atoms: C_44  and  O_46
REMARK                            x       y       z     vdW  Elec       q    Type
REMARK                         _______ _______ _______ _____ _____    ______ ____
ROOT
ATOM      1  P   UNL     1       5.373  -6.043  22.974  0.00  0.00    +0.492 P 
ATOM      2  O   UNL     1       6.481  -6.566  22.129  0.00  0.00    -0.226 OA
ENDROOT
BRANCH   1   3
ATOM      3  O   UNL     1       3.950  -6.158  22.254  0.00  0.00    -0.302 OA
ATOM      4  H   UNL     1       4.050  -6.688  21.433  0.00  0.00    +0.222 HD
ENDBRANCH   1   3
BRANCH   1   5
ATOM      5  O   UNL     1       5.158  -6.877  24.304  0.00  0.00    -0.186 OA
BRANCH   5   6
ATOM      6  P   UNL     1       3.988  -6.511  25.319  0.00  0.00    +0.492 P 
ATOM      7  O   UNL     1       2.893  -5.724  24.677  0.00  0.00    -0.226 OA
BRANCH   6   8
ATOM      8  O   UNL     1       3.512  -7.968  25.766  0.00  0.00    -0.302 OA
ATOM      9  H   UNL     1       2.930  -7.894  26.549  0.00  0.00    +0.222 HD
ENDBRANCH   6   8
BRANCH   6  10
ATOM     10  O   UNL     1       4.697  -5.800  26.541  0.00  0.00    -0.186 OA
BRANCH  10  11
ATOM     11  P   UNL     1       5.376  -4.219  26.721  0.00  0.00    +0.483 P 
ATOM     12  O   UNL     1       4.750  -4.079  28.110  0.00  0.00    -0.227 OA
BRANCH  11  13
ATOM     13  O   UNL     1       4.206  -3.613  25.750  0.00  0.00    -0.302 OA
ATOM     14  H   UNL     1       4.667  -3.233  24.974  0.00  0.00    +0.222 HD
ENDBRANCH  11  13
BRANCH  11  15
ATOM     15  O   UNL     1       6.056  -2.637  26.902  0.00  0.00    -0.284 OA
BRANCH  15  16
ATOM     16  C   UNL     1       5.277  -1.683  27.545  0.00  0.00    +0.206 C 
BRANCH  16  17
ATOM     17  C   UNL     1       5.933  -0.303  27.523  0.00  0.00    +0.178 C 
ATOM     18  C   UNL     1       6.618   0.117  26.235  0.00  0.00    +0.178 C 
ATOM     19  C   UNL     1       5.656   1.073  25.551  0.00  0.00    +0.195 C 
ATOM     20  C   UNL     1       4.444   1.122  26.487  0.00  0.00    +0.253 C 
ATOM     21  O   UNL     1       4.925   0.710  27.782  0.00  0.00    -0.346 OA
BRANCH  20  22
ATOM     22  N   UNL     1       3.800   2.416  26.635  0.00  0.00    -0.286 N 
ATOM     23  C   UNL     1       3.090   3.061  25.668  0.00  0.00    +0.167 A 
ATOM     24  N   UNL     1       2.950   2.723  24.376  0.00  0.00    -0.216 NA
ATOM     25  C   UNL     1       2.221   3.635  23.709  0.00  0.00    +0.225 A 
ATOM     26  N   UNL     1       1.628   4.748  24.203  0.00  0.00    -0.219 NA
ATOM     27  C   UNL     1       1.747   5.020  25.518  0.00  0.00    +0.147 A 
ATOM     28  N   UNL     1       1.091   6.142  26.018  0.00  0.00    -0.341 N 
ATOM     29  H   UNL     1       1.493   6.478  26.888  0.00  0.00    +0.144 HD
ATOM     30  H   UNL     1       0.915   6.820  25.293  0.00  0.00    +0.144 HD
ATOM     31  C   UNL     1       2.541   4.169  26.308  0.00  0.00    +0.147 A 
ATOM     32  N   UNL     1       2.908   4.195  27.637  0.00  0.00    -0.231 NA
ATOM     33  C   UNL     1       3.655   3.118  27.798  0.00  0.00    +0.203 A 
ENDBRANCH  20  22
BRANCH  19  34
ATOM     34  O   UNL     1       5.317   0.599  24.246  0.00  0.00    -0.385 OA
ATOM     35  H   UNL     1       5.614  -0.334  24.217  0.00  0.00    +0.210 HD
ENDBRANCH  19  34
BRANCH  18  36
ATOM     36  O   UNL     1       7.821   0.854  26.587  0.00  0.00    -0.386 OA
ATOM     37  H   UNL     1       8.210   1.205  25.763  0.00  0.00    +0.210 HD
ENDBRANCH  18  36
ENDBRANCH  16  17
ENDBRANCH  15  16
ENDBRANCH  11  15
ENDBRANCH  10  11
ENDBRANCH   6  10
ENDBRANCH   5   6
ENDBRANCH   1   5
BRANCH   1  38
ATOM     38  O   UNL     1       5.512  -4.526  23.391  0.00  0.00    -0.186 OA
BRANCH  38  39
ATOM     39  P   UNL     1       6.170  -3.319  22.610  0.00  0.00    +0.492 P 
ATOM     40  O   UNL     1       5.522  -2.998  21.306  0.00  0.00    -0.226 OA
BRANCH  39  41
ATOM     41  O   UNL     1       6.013  -2.142  23.689  0.00  0.00    -0.302 OA
ATOM     42  H   UNL     1       6.260  -2.415  24.592  0.00  0.00    +0.222 HD
ENDBRANCH  39  41
BRANCH  39  43
ATOM     43  O   UNL     1       7.768  -3.562  22.515  0.00  0.00    -0.186 OA
BRANCH  43  44
ATOM     44  P   UNL     1       8.309  -3.409  24.151  0.00  0.00    +0.483 P 
ATOM     45  O   UNL     1       8.889  -4.824  24.160  0.00  0.00    -0.227 OA
BRANCH  44  46
ATOM     46  O   UNL     1       8.850  -3.254  25.788  0.00  0.00    -0.302 OA
ATOM     47  H   UNL     1       9.270  -4.124  25.962  0.00  0.00    +0.222 HD
ENDBRANCH  44  46
BRANCH  44  48
ATOM     48  O   UNL     1       9.518  -2.377  23.689  0.00  0.00    -0.284 OA
BRANCH  48  49
ATOM     49  C   UNL     1       9.641  -1.120  24.357  0.00  0.00    +0.206 C 
BRANCH  49  52
ATOM     50  C   UNL     1       8.226   1.631  23.037  0.00  0.00    +0.226 C 
ATOM     51  O   UNL     1       9.352   1.278  23.841  0.00  0.00    -0.348 OA
ATOM     52  C   UNL     1       9.847   0.016  23.348  0.00  0.00    +0.175 C 
ATOM     53  C   UNL     1       9.084  -0.280  22.052  0.00  0.00    +0.150 C 
ATOM     54  C   UNL     1       8.545   1.070  21.669  0.00  0.00    +0.088 C 
BRANCH  50  63
ATOM     55  C   UNL     1       9.534   6.408  23.838  0.00  0.00    +0.051 C 
ATOM     56  C   UNL     1       8.662   5.306  23.329  0.00  0.00    +0.030 A 
ATOM     57  C   UNL     1       7.581   5.690  22.400  0.00  0.00    +0.257 A 
ATOM     58  O   UNL     1       7.453   6.842  22.002  0.00  0.00    -0.267 OA
ATOM     59  N   UNL     1       6.711   4.700  22.044  0.00  0.00    -0.275 N 
ATOM     60  H   UNL     1       5.880   4.961  21.539  0.00  0.00    +0.173 HD
ATOM     61  C   UNL     1       6.738   3.418  22.510  0.00  0.00    +0.331 A 
ATOM     62  O   UNL     1       5.757   2.697  22.359  0.00  0.00    -0.246 OA
ATOM     63  N   UNL     1       7.934   3.045  23.099  0.00  0.00    -0.274 N 
ATOM     64  C   UNL     1       8.830   3.997  23.558  0.00  0.00    +0.101 A 
ENDBRANCH  50  63
BRANCH  53  65
ATOM     65  O   UNL     1       9.916  -0.813  21.038  0.00  0.00    -0.389 OA
ATOM     66  H   UNL     1       9.646  -0.435  20.182  0.00  0.00    +0.210 HD
ENDBRANCH  53  65
ENDBRANCH  49  52
ENDBRANCH  48  49
ENDBRANCH  44  48
ENDBRANCH  43  44
ENDBRANCH  39  43
ENDBRANCH  38  39
ENDBRANCH   1  38
TORSDOF 24
ENDMDL
MODEL 4
REMARK VINA RESULT:      -5.8      2.905      5.556
REMARK  Name = 
REMARK  25 active torsions:
REMARK  status: ('A' for Active; 'I' for Inactive)
REMARK    1  A    between atoms: C_1  and  C_2
REMARK    2  A    between atoms: N_4  and  C_5
REMARK    3  A    between atoms: C_8  and  O_10
REMARK    4  A    between atoms: C_11  and  C_13
REMARK    5  A    between atoms: C_13  and  O_14
REMARK    6  A    between atoms: O_14  and  P_15
REMARK    7  A    between atoms: P_15  and  O_16
REMARK    8  A    between atoms: P_15  and  O_18
REMARK    9  A    between atoms: O_18  and  P_19
REMARK   10  A    between atoms: P_19  and  O_20
REMARK   11  A    between atoms: P_19  and  O_22
REMARK   12  A    between atoms: O_22  and  P_23
REMARK   13  A    between atoms: P_23  and  O_24
REMARK   14  A    between atoms: P_23  and  O_26
REMARK   15  A    between atoms: O_26  and  P_27
REMARK   16  A    between atoms: P_27  and  O_28
REMARK   17  A    between atoms: P_27  and  O_30
REMARK   18  A    between atoms: O_30  and  P_31
REMARK   19  A    between atoms: P_31  and  O_32
REMARK   20  A    between atoms: P_31  and  O_34
REMARK   21  A    between atoms: O_34  and  C_35
REMARK   22  A    between atoms: C_35  and  C_36
REMARK   23  A    between atoms: C_39  and  N_47
REMARK   24  A    between atoms: C_41  and  O_43
REMARK   25  A    between atoms: C_44  and  O_46
REMARK                            x       y       z     vdW  Elec       q    Type
REMARK                         _______ _______ _______ _____ _____    ______ ____
ROOT
ATOM      1  P   UNL     1       8.820  -3.202  24.413  0.00  0.00    +0.492 P 
ATOM      2  O   UNL     1       8.005  -3.408  23.185  0.00  0.00    -0.226 OA
ENDROOT
BRANCH   1   3
ATOM      3  O   UNL     1      10.138  -4.107  24.430  0.00  0.00    -0.302 OA
ATOM      4  H   UNL     1      10.479  -4.156  25.349  0.00  0.00    +0.222 HD
ENDBRANCH   1   3
BRANCH   1   5
ATOM      5  O   UNL     1       9.406  -1.734  24.531  0.00  0.00    -0.186 OA
BRANCH   5   6
ATOM      6  P   UNL     1       9.924  -0.953  23.245  0.00  0.00    +0.492 P 
ATOM      7  O   UNL     1      10.729  -1.818  22.331  0.00  0.00    -0.226 OA
BRANCH   6   8
ATOM      8  O   UNL     1       8.540  -0.498  22.592  0.00  0.00    -0.302 OA
ATOM      9  H   UNL     1       8.711  -0.088  21.721  0.00  0.00    +0.222 HD
ENDBRANCH   6   8
BRANCH   6  10
ATOM     10  O   UNL     1      10.679   0.320  23.801  0.00  0.00    -0.186 OA
BRANCH  10  11
ATOM     11  P   UNL     1      10.354   2.013  23.650  0.00  0.00    +0.483 P 
ATOM     12  O   UNL     1       9.023   1.850  24.386  0.00  0.00    -0.227 OA
BRANCH  11  13
ATOM     13  O   UNL     1       9.918   1.784  22.089  0.00  0.00    -0.302 OA
ATOM     14  H   UNL     1       9.032   1.369  22.113  0.00  0.00    +0.222 HD
ENDBRANCH  11  13
BRANCH  11  15
ATOM     15  O   UNL     1      10.028   3.706  23.501  0.00  0.00    -0.284 OA
BRANCH  15  16
ATOM     16  C   UNL     1       9.177   4.273  24.441  0.00  0.00    +0.206 C 
BRANCH  16  17
ATOM     17  C   UNL     1       7.918   4.851  23.795  0.00  0.00    +0.178 C 
ATOM     18  C   UNL     1       7.549   4.336  22.416  0.00  0.00    +0.178 C 
ATOM     19  C   UNL     1       6.421   3.343  22.636  0.00  0.00    +0.195 C 
ATOM     20  C   UNL     1       6.227   3.325  24.156  0.00  0.00    +0.253 C 
ATOM     21  O   UNL     1       6.773   4.568  24.642  0.00  0.00    -0.346 OA
BRANCH  20  22
ATOM     22  N   UNL     1       4.856   3.219  24.626  0.00  0.00    -0.286 N 
ATOM     23  C   UNL     1       4.381   2.260  25.469  0.00  0.00    +0.167 A 
ATOM     24  N   UNL     1       5.014   1.166  25.923  0.00  0.00    -0.216 NA
ATOM     25  C   UNL     1       4.204   0.417  26.691  0.00  0.00    +0.225 A 
ATOM     26  N   UNL     1       2.926   0.678  27.053  0.00  0.00    -0.219 NA
ATOM     27  C   UNL     1       2.346   1.816  26.621  0.00  0.00    +0.147 A 
ATOM     28  N   UNL     1       1.048   2.093  27.040  0.00  0.00    -0.341 N 
ATOM     29  H   UNL     1       0.564   2.742  26.426  0.00  0.00    +0.144 HD
ATOM     30  H   UNL     1       0.560   1.252  27.308  0.00  0.00    +0.144 HD
ATOM     31  C   UNL     1       3.076   2.652  25.756  0.00  0.00    +0.147 A 
ATOM     32  N   UNL     1       2.766   3.827  25.103  0.00  0.00    -0.231 NA
ATOM     33  C   UNL     1       3.866   4.142  24.444  0.00  0.00    +0.203 A 
ENDBRANCH  20  22
BRANCH  19  34
ATOM     34  O   UNL     1       6.771   2.059  22.116  0.00  0.00    -0.385 OA
ATOM     35  H   UNL     1       5.922   1.589  21.977  0.00  0.00    +0.210 HD
ENDBRANCH  19  34
BRANCH  18  36
ATOM     36  O   UNL     1       7.030   5.453  21.644  0.00  0.00    -0.386 OA
ATOM     37  H   UNL     1       7.511   5.482  20.795  0.00  0.00    +0.210 HD
ENDBRANCH  18  36
ENDBRANCH  16  17
ENDBRANCH  15  16
ENDBRANCH  11  15
ENDBRANCH  10  11
ENDBRANCH   6  10
ENDBRANCH   5   6
ENDBRANCH   1   5
BRANCH   1  38
ATOM     38  O   UNL     1       8.075  -3.518  25.769  0.00  0.00    -0.186 OA
BRANCH  38  39
ATOM     39  P   UNL     1       7.415  -4.865  26.269  0.00  0.00    +0.492 P 
ATOM     40  O   UNL     1       6.545  -5.539  25.265  0.00  0.00    -0.226 OA
BRANCH  39  41
ATOM     41  O   UNL     1       8.722  -5.722  26.635  0.00  0.00    -0.302 OA
ATOM     42  H   UNL     1       9.287  -5.907  25.863  0.00  0.00    +0.222 HD
ENDBRANCH  39  41
BRANCH  39  43
ATOM     43  O   UNL     1       6.700  -4.601  27.698  0.00  0.00    -0.186 OA
BRANCH  43  44
ATOM     44  P   UNL     1       5.853  -6.075  28.018  0.00  0.00    +0.483 P 
ATOM     45  O   UNL     1       6.865  -6.501  29.083  0.00  0.00    -0.227 OA
BRANCH  44  46
ATOM     46  O   UNL     1       5.006  -7.549  28.337  0.00  0.00    -0.302 OA
ATOM     47  H   UNL     1       5.604  -8.231  27.962  0.00  0.00    +0.222 HD
ENDBRANCH  44  46
BRANCH  44  48
ATOM     48  O   UNL     1       4.639  -5.250  28.783  0.00  0.00    -0.284 OA
BRANCH  48  49
ATOM     49  C   UNL     1       4.164  -4.034  28.204  0.00  0.00    +0.206 C 
BRANCH  49  52
ATOM     50  C   UNL     1       3.174  -5.450  25.317  0.00  0.00    +0.226 C 
ATOM     51  O   UNL     1       2.978  -5.615  26.722  0.00  0.00    -0.348 OA
ATOM     52  C   UNL     1       2.950  -4.296  27.305  0.00  0.00    +0.175 C 
ATOM     53  C   UNL     1       2.928  -3.300  26.140  0.00  0.00    +0.150 C 
ATOM     54  C   UNL     1       2.475  -4.150  24.985  0.00  0.00    +0.088 C 
BRANCH  50  63
ATOM     55  C   UNL     1       0.741  -9.815  24.877  0.00  0.00    +0.051 C 
ATOM     56  C   UNL     1       1.442  -8.595  24.374  0.00  0.00    +0.030 A 
ATOM     57  C   UNL     1       1.330  -8.313  22.930  0.00  0.00    +0.257 A 
ATOM     58  O   UNL     1       0.632  -8.998  22.192  0.00  0.00    -0.267 OA
ATOM     59  N   UNL     1       2.079  -7.273  22.458  0.00  0.00    -0.275 N 
ATOM     60  H   UNL     1       2.144  -7.153  21.460  0.00  0.00    +0.173 HD
ATOM     61  C   UNL     1       2.942  -6.519  23.200  0.00  0.00    +0.331 A 
ATOM     62  O   UNL     1       3.770  -5.814  22.633  0.00  0.00    -0.246 OA
ATOM     63  N   UNL     1       2.758  -6.613  24.569  0.00  0.00    -0.274 N 
ATOM     64  C   UNL     1       2.077  -7.684  25.124  0.00  0.00    +0.101 A 
ENDBRANCH  50  63
BRANCH  53  65
ATOM     65  O   UNL     1       2.044  -2.217  26.364  0.00  0.00    -0.389 OA
ATOM     66  H   UNL     1       1.821  -2.186  27.312  0.00  0.00    +0.210 HD
ENDBRANCH  53  65
ENDBRANCH  49  52
ENDBRANCH  48  49
ENDBRANCH  44  48
ENDBRANCH  43  44
ENDBRANCH  39  43
ENDBRANCH  38  39
ENDBRANCH   1  38
TORSDOF 24
ENDMDL
MODEL 5
REMARK VINA RESULT:      -5.8      2.000      5.810
REMARK  Name = 
REMARK  25 active torsions:
REMARK  status: ('A' for Active; 'I' for Inactive)
REMARK    1  A    between atoms: C_1  and  C_2
REMARK    2  A    between atoms: N_4  and  C_5
REMARK    3  A    between atoms: C_8  and  O_10
REMARK    4  A    between atoms: C_11  and  C_13
REMARK    5  A    between atoms: C_13  and  O_14
REMARK    6  A    between atoms: O_14  and  P_15
REMARK    7  A    between atoms: P_15  and  O_16
REMARK    8  A    between atoms: P_15  and  O_18
REMARK    9  A    between atoms: O_18  and  P_19
REMARK   10  A    between atoms: P_19  and  O_20
REMARK   11  A    between atoms: P_19  and  O_22
REMARK   12  A    between atoms: O_22  and  P_23
REMARK   13  A    between atoms: P_23  and  O_24
REMARK   14  A    between atoms: P_23  and  O_26
REMARK   15  A    between atoms: O_26  and  P_27
REMARK   16  A    between atoms: P_27  and  O_28
REMARK   17  A    between atoms: P_27  and  O_30
REMARK   18  A    between atoms: O_30  and  P_31
REMARK   19  A    between atoms: P_31  and  O_32
REMARK   20  A    between atoms: P_31  and  O_34
REMARK   21  A    between atoms: O_34  and  C_35
REMARK   22  A    between atoms: C_35  and  C_36
REMARK   23  A    between atoms: C_39  and  N_47
REMARK   24  A    between atoms: C_41  and  O_43
REMARK   25  A    between atoms: C_44  and  O_46
REMARK                            x       y       z     vdW  Elec       q    Type
REMARK                         _______ _______ _______ _____ _____    ______ ____
ROOT
ATOM      1  P   UNL     1       7.090  -5.214  23.226  0.00  0.00    +0.492 P 
ATOM      2  O   UNL     1       7.312  -6.198  22.132  0.00  0.00    -0.226 OA
ENDROOT
BRANCH   1   3
ATOM      3  O   UNL     1       6.436  -3.854  22.701  0.00  0.00    -0.302 OA
ATOM      4  H   UNL     1       5.567  -4.056  22.289  0.00  0.00    +0.222 HD
ENDBRANCH   1   3
BRANCH   1   5
ATOM      5  O   UNL     1       6.041  -5.710  24.305  0.00  0.00    -0.186 OA
BRANCH   5   6
ATOM      6  P   UNL     1       4.511  -5.923  23.922  0.00  0.00    +0.492 P 
ATOM      7  O   UNL     1       4.155  -5.305  22.610  0.00  0.00    -0.226 OA
BRANCH   6   8
ATOM      8  O   UNL     1       4.429  -7.517  23.889  0.00  0.00    -0.302 OA
ATOM      9  H   UNL     1       4.113  -7.844  24.755  0.00  0.00    +0.222 HD
ENDBRANCH   6   8
BRANCH   6  10
ATOM     10  O   UNL     1       3.688  -5.387  25.162  0.00  0.00    -0.186 OA
BRANCH  10  11
ATOM     11  P   UNL     1       3.829  -3.942  26.104  0.00  0.00    +0.483 P 
ATOM     12  O   UNL     1       2.342  -3.641  25.911  0.00  0.00    -0.227 OA
BRANCH  11  13
ATOM     13  O   UNL     1       4.506  -3.181  24.824  0.00  0.00    -0.302 OA
ATOM     14  H   UNL     1       4.800  -3.886  24.212  0.00  0.00    +0.222 HD
ENDBRANCH  11  13
BRANCH  11  15
ATOM     15  O   UNL     1       3.968  -2.498  27.047  0.00  0.00    -0.284 OA
BRANCH  15  16
ATOM     16  C   UNL     1       4.188  -1.311  26.360  0.00  0.00    +0.206 C 
BRANCH  16  17
ATOM     17  C   UNL     1       4.099  -0.095  27.280  0.00  0.00    +0.178 C 
ATOM     18  C   UNL     1       5.315   0.218  28.134  0.00  0.00    +0.178 C 
ATOM     19  C   UNL     1       6.018   1.372  27.441  0.00  0.00    +0.195 C 
ATOM     20  C   UNL     1       5.166   1.638  26.195  0.00  0.00    +0.253 C 
ATOM     21  O   UNL     1       3.862   1.094  26.480  0.00  0.00    -0.346 OA
BRANCH  20  22
ATOM     22  N   UNL     1       5.002   3.031  25.815  0.00  0.00    -0.286 N 
ATOM     23  C   UNL     1       4.504   3.473  24.627  0.00  0.00    +0.167 A 
ATOM     24  N   UNL     1       4.197   2.754  23.535  0.00  0.00    -0.216 NA
ATOM     25  C   UNL     1       3.786   3.545  22.529  0.00  0.00    +0.225 A 
ATOM     26  N   UNL     1       3.625   4.889  22.541  0.00  0.00    -0.219 NA
ATOM     27  C   UNL     1       3.891   5.567  23.675  0.00  0.00    +0.147 A 
ATOM     28  N   UNL     1       3.675   6.942  23.685  0.00  0.00    -0.341 N 
ATOM     29  H   UNL     1       4.208   7.420  24.405  0.00  0.00    +0.144 HD
ATOM     30  H   UNL     1       3.703   7.326  22.753  0.00  0.00    +0.144 HD
ATOM     31  C   UNL     1       4.390   4.853  24.780  0.00  0.00    +0.147 A 
ATOM     32  N   UNL     1       4.808   5.239  26.036  0.00  0.00    -0.231 NA
ATOM     33  C   UNL     1       5.156   4.114  26.633  0.00  0.00    +0.203 A 
ENDBRANCH  20  22
BRANCH  19  34
ATOM     34  O   UNL     1       7.365   1.020  27.116  0.00  0.00    -0.385 OA
ATOM     35  H   UNL     1       7.919   1.410  27.823  0.00  0.00    +0.210 HD
ENDBRANCH  19  34
BRANCH  18  36
ATOM     36  O   UNL     1       4.846   0.681  29.430  0.00  0.00    -0.386 OA
ATOM     37  H   UNL     1       4.410  -0.069  29.877  0.00  0.00    +0.210 HD
ENDBRANCH  18  36
ENDBRANCH  16  17
ENDBRANCH  15  16
ENDBRANCH  11  15
ENDBRANCH  10  11
ENDBRANCH   6  10
ENDBRANCH   5   6
ENDBRANCH   1   5
BRANCH   1  38
ATOM     38  O   UNL     1       8.393  -4.780  24.006  0.00  0.00    -0.186 OA
BRANCH  38  39
ATOM     39  P   UNL     1       8.782  -4.997  25.524  0.00  0.00    +0.492 P 
ATOM     40  O   UNL     1       7.793  -5.788  26.310  0.00  0.00    -0.226 OA
BRANCH  39  41
ATOM     41  O   UNL     1      10.193  -5.745  25.368  0.00  0.00    -0.302 OA
ATOM     42  H   UNL     1      10.105  -6.679  25.101  0.00  0.00    +0.222 HD
ENDBRANCH  39  41
BRANCH  39  43
ATOM     43  O   UNL     1       9.161  -3.566  26.179  0.00  0.00    -0.186 OA
BRANCH  43  44
ATOM     44  P   UNL     1       8.114  -2.449  25.374  0.00  0.00    +0.483 P 
ATOM     45  O   UNL     1       7.599  -1.878  26.696  0.00  0.00    -0.227 OA
BRANCH  44  46
ATOM     46  O   UNL     1       7.067  -1.332  24.567  0.00  0.00    -0.302 OA
ATOM     47  H   UNL     1       6.173  -1.669  24.792  0.00  0.00    +0.222 HD
ENDBRANCH  44  46
BRANCH  44  48
ATOM     48  O   UNL     1       9.406  -1.528  24.902  0.00  0.00    -0.284 OA
BRANCH  48  49
ATOM     49  C   UNL     1      10.136  -1.914  23.737  0.00  0.00    +0.206 C 
BRANCH  49  52
ATOM     50  C   UNL     1       9.723   1.412  23.453  0.00  0.00    +0.226 C 
ATOM     51  O   UNL     1      10.773   0.472  23.680  0.00  0.00    -0.348 OA
ATOM     52  C   UNL     1      10.483  -0.692  22.879  0.00  0.00    +0.175 C 
ATOM     53  C   UNL     1       9.298  -0.322  21.979  0.00  0.00    +0.150 C 
ATOM     54  C   UNL     1       9.310   1.181  22.016  0.00  0.00    +0.088 C 
BRANCH  50  63
ATOM     55  C   UNL     1      12.721   5.414  23.052  0.00  0.00    +0.051 C 
ATOM     56  C   UNL     1      11.476   4.684  23.438  0.00  0.00    +0.030 A 
ATOM     57  C   UNL     1      10.320   5.510  23.838  0.00  0.00    +0.257 A 
ATOM     58  O   UNL     1      10.352   6.733  23.781  0.00  0.00    -0.267 OA
ATOM     59  N   UNL     1       9.232   4.835  24.313  0.00  0.00    -0.275 N 
ATOM     60  H   UNL     1       8.491   5.372  24.735  0.00  0.00    +0.173 HD
ATOM     61  C   UNL     1       9.152   3.483  24.485  0.00  0.00    +0.331 A 
ATOM     62  O   UNL     1       8.257   3.013  25.179  0.00  0.00    -0.246 OA
ATOM     63  N   UNL     1      10.113   2.758  23.800  0.00  0.00    -0.274 N 
ATOM     64  C   UNL     1      11.281   3.361  23.360  0.00  0.00    +0.101 A 
ENDBRANCH  50  63
BRANCH  53  65
ATOM     65  O   UNL     1       9.443  -0.810  20.658  0.00  0.00    -0.389 OA
ATOM     66  H   UNL     1      10.305  -1.258  20.583  0.00  0.00    +0.210 HD
ENDBRANCH  53  65
ENDBRANCH  49  52
ENDBRANCH  48  49
ENDBRANCH  44  48
ENDBRANCH  43  44
ENDBRANCH  39  43
ENDBRANCH  38  39
ENDBRANCH   1  38
TORSDOF 24
ENDMDL
MODEL 6
REMARK VINA RESULT:      -5.5      2.048      6.430
REMARK  Name = 
REMARK  25 active torsions:
REMARK  status: ('A' for Active; 'I' for Inactive)
REMARK    1  A    between atoms: C_1  and  C_2
REMARK    2  A    between atoms: N_4  and  C_5
REMARK    3  A    between atoms: C_8  and  O_10
REMARK    4  A    between atoms: C_11  and  C_13
REMARK    5  A    between atoms: C_13  and  O_14
REMARK    6  A    between atoms: O_14  and  P_15
REMARK    7  A    between atoms: P_15  and  O_16
REMARK    8  A    between atoms: P_15  and  O_18
REMARK    9  A    between atoms: O_18  and  P_19
REMARK   10  A    between atoms: P_19  and  O_20
REMARK   11  A    between atoms: P_19  and  O_22
REMARK   12  A    between atoms: O_22  and  P_23
REMARK   13  A    between atoms: P_23  and  O_24
REMARK   14  A    between atoms: P_23  and  O_26
REMARK   15  A    between atoms: O_26  and  P_27
REMARK   16  A    between atoms: P_27  and  O_28
REMARK   17  A    between atoms: P_27  and  O_30
REMARK   18  A    between atoms: O_30  and  P_31
REMARK   19  A    between atoms: P_31  and  O_32
REMARK   20  A    between atoms: P_31  and  O_34
REMARK   21  A    between atoms: O_34  and  C_35
REMARK   22  A    between atoms: C_35  and  C_36
REMARK   23  A    between atoms: C_39  and  N_47
REMARK   24  A    between atoms: C_41  and  O_43
REMARK   25  A    between atoms: C_44  and  O_46
REMARK                            x       y       z     vdW  Elec       q    Type
REMARK                         _______ _______ _______ _____ _____    ______ ____
ROOT
ATOM      1  P   UNL     1       6.068  -5.420  23.065  0.00  0.00    +0.492 P 
ATOM      2  O   UNL     1       7.234  -5.658  22.173  0.00  0.00    -0.226 OA
ENDROOT
BRANCH   1   3
ATOM      3  O   UNL     1       4.917  -4.570  22.353  0.00  0.00    -0.302 OA
ATOM      4  H   UNL     1       4.683  -5.000  21.502  0.00  0.00    +0.222 HD
ENDBRANCH   1   3
BRANCH   1   5
ATOM      5  O   UNL     1       5.313  -6.753  23.471  0.00  0.00    -0.186 OA
BRANCH   5   6
ATOM      6  P   UNL     1       4.216  -6.754  24.624  0.00  0.00    +0.492 P 
ATOM      7  O   UNL     1       3.304  -7.935  24.551  0.00  0.00    -0.226 OA
BRANCH   6   8
ATOM      8  O   UNL     1       5.145  -6.780  25.923  0.00  0.00    -0.302 OA
ATOM      9  H   UNL     1       5.461  -7.693  26.078  0.00  0.00    +0.222 HD
ENDBRANCH   6   8
BRANCH   6  10
ATOM     10  O   UNL     1       3.500  -5.347  24.526  0.00  0.00    -0.186 OA
BRANCH  10  11
ATOM     11  P   UNL     1       2.654  -4.398  25.699  0.00  0.00    +0.483 P 
ATOM     12  O   UNL     1       3.972  -3.984  26.354  0.00  0.00    -0.227 OA
BRANCH  11  13
ATOM     13  O   UNL     1       2.272  -5.763  26.519  0.00  0.00    -0.302 OA
ATOM     14  H   UNL     1       2.416  -6.503  25.895  0.00  0.00    +0.222 HD
ENDBRANCH  11  13
BRANCH  11  15
ATOM     15  O   UNL     1       1.808  -3.448  26.873  0.00  0.00    -0.284 OA
BRANCH  15  16
ATOM     16  C   UNL     1       1.420  -2.170  26.492  0.00  0.00    +0.206 C 
BRANCH  16  17
ATOM     17  C   UNL     1       1.777  -1.126  27.549  0.00  0.00    +0.178 C 
ATOM     18  C   UNL     1       2.769  -1.539  28.621  0.00  0.00    +0.178 C 
ATOM     19  C   UNL     1       4.093  -0.911  28.220  0.00  0.00    +0.195 C 
ATOM     20  C   UNL     1       3.782  -0.188  26.905  0.00  0.00    +0.253 C 
ATOM     21  O   UNL     1       2.358   0.035  26.899  0.00  0.00    -0.346 OA
BRANCH  20  22
ATOM     22  N   UNL     1       4.440   1.093  26.706  0.00  0.00    -0.286 N 
ATOM     23  C   UNL     1       5.384   1.632  27.528  0.00  0.00    +0.167 A 
ATOM     24  N   UNL     1       5.799   1.185  28.724  0.00  0.00    -0.216 NA
ATOM     25  C   UNL     1       6.705   2.014  29.269  0.00  0.00    +0.225 A 
ATOM     26  N   UNL     1       7.226   3.144  28.733  0.00  0.00    -0.219 NA
ATOM     27  C   UNL     1       6.824   3.527  27.504  0.00  0.00    +0.147 A 
ATOM     28  N   UNL     1       7.404   4.664  26.948  0.00  0.00    -0.341 N 
ATOM     29  H   UNL     1       6.832   5.084  26.222  0.00  0.00    +0.144 HD
ATOM     30  H   UNL     1       7.776   5.274  27.660  0.00  0.00    +0.144 HD
ATOM     31  C   UNL     1       5.829   2.771  26.860  0.00  0.00    +0.147 A 
ATOM     32  N   UNL     1       5.170   2.917  25.657  0.00  0.00    -0.231 NA
ATOM     33  C   UNL     1       4.353   1.883  25.596  0.00  0.00    +0.203 A 
ENDBRANCH  20  22
BRANCH  19  34
ATOM     34  O   UNL     1       5.101  -1.912  28.067  0.00  0.00    -0.385 OA
ATOM     35  H   UNL     1       4.810  -2.668  28.618  0.00  0.00    +0.210 HD
ENDBRANCH  19  34
BRANCH  18  36
ATOM     36  O   UNL     1       2.345  -0.945  29.878  0.00  0.00    -0.386 OA
ATOM     37  H   UNL     1       3.120  -0.911  30.472  0.00  0.00    +0.210 HD
ENDBRANCH  18  36
ENDBRANCH  16  17
ENDBRANCH  15  16
ENDBRANCH  11  15
ENDBRANCH  10  11
ENDBRANCH   6  10
ENDBRANCH   5   6
ENDBRANCH   1   5
BRANCH   1  38
ATOM     38  O   UNL     1       6.397  -4.645  24.401  0.00  0.00    -0.186 OA
BRANCH  38  39
ATOM     39  P   UNL     1       7.722  -4.637  25.264  0.00  0.00    +0.492 P 
ATOM     40  O   UNL     1       7.846  -5.774  26.220  0.00  0.00    -0.226 OA
BRANCH  39  41
ATOM     41  O   UNL     1       8.834  -4.673  24.108  0.00  0.00    -0.302 OA
ATOM     42  H   UNL     1       8.740  -3.947  23.463  0.00  0.00    +0.222 HD
ENDBRANCH  39  41
BRANCH  39  43
ATOM     43  O   UNL     1       7.900  -3.177  25.942  0.00  0.00    -0.186 OA
BRANCH  43  44
ATOM     44  P   UNL     1       6.974  -2.130  24.922  0.00  0.00    +0.483 P 
ATOM     45  O   UNL     1       6.998  -0.999  25.952  0.00  0.00    -0.227 OA
BRANCH  44  46
ATOM     46  O   UNL     1       6.047  -1.084  23.902  0.00  0.00    -0.302 OA
ATOM     47  H   UNL     1       5.563  -0.524  24.546  0.00  0.00    +0.222 HD
ENDBRANCH  44  46
BRANCH  44  48
ATOM     48  O   UNL     1       8.268  -1.914  23.913  0.00  0.00    -0.284 OA
BRANCH  48  49
ATOM     49  C   UNL     1       9.376  -1.140  24.373  0.00  0.00    +0.206 C 
BRANCH  49  52
ATOM     50  C   UNL     1       8.095   1.643  22.985  0.00  0.00    +0.226 C 
ATOM     51  O   UNL     1       9.143   1.269  23.879  0.00  0.00    -0.348 OA
ATOM     52  C   UNL     1       9.675   0.013  23.409  0.00  0.00    +0.175 C 
ATOM     53  C   UNL     1       9.030  -0.255  22.045  0.00  0.00    +0.150 C 
ATOM     54  C   UNL     1       8.532   1.106  21.640  0.00  0.00    +0.088 C 
BRANCH  50  63
ATOM     55  C   UNL     1       9.408   6.420  23.779  0.00  0.00    +0.051 C 
ATOM     56  C   UNL     1       8.533   5.318  23.274  0.00  0.00    +0.030 A 
ATOM     57  C   UNL     1       7.449   5.702  22.349  0.00  0.00    +0.257 A 
ATOM     58  O   UNL     1       7.320   6.853  21.951  0.00  0.00    -0.267 OA
ATOM     59  N   UNL     1       6.577   4.712  21.997  0.00  0.00    -0.275 N 
ATOM     60  H   UNL     1       5.744   4.974  21.495  0.00  0.00    +0.173 HD
ATOM     61  C   UNL     1       6.606   3.430  22.464  0.00  0.00    +0.331 A 
ATOM     62  O   UNL     1       5.624   2.710  22.317  0.00  0.00    -0.246 OA
ATOM     63  N   UNL     1       7.804   3.057  23.048  0.00  0.00    -0.274 N 
ATOM     64  C   UNL     1       8.702   4.009  23.503  0.00  0.00    +0.101 A 
ENDBRANCH  50  63
BRANCH  53  65
ATOM     65  O   UNL     1       9.947  -0.773  21.099  0.00  0.00    -0.389 OA
ATOM     66  H   UNL     1      10.437  -1.508  21.509  0.00  0.00    +0.210 HD
ENDBRANCH  53  65
ENDBRANCH  49  52
ENDBRANCH  48  49
ENDBRANCH  44  48
ENDBRANCH  43  44
ENDBRANCH  39  43
ENDBRANCH  38  39
ENDBRANCH   1  38
TORSDOF 24
ENDMDL
MODEL 7
REMARK VINA RESULT:      -5.5      2.249      7.059
REMARK  Name = 
REMARK  25 active torsions:
REMARK  status: ('A' for Active; 'I' for Inactive)
REMARK    1  A    between atoms: C_1  and  C_2
REMARK    2  A    between atoms: N_4  and  C_5
REMARK    3  A    between atoms: C_8  and  O_10
REMARK    4  A    between atoms: C_11  and  C_13
REMARK    5  A    between atoms: C_13  and  O_14
REMARK    6  A    between atoms: O_14  and  P_15
REMARK    7  A    between atoms: P_15  and  O_16
REMARK    8  A    between atoms: P_15  and  O_18
REMARK    9  A    between atoms: O_18  and  P_19
REMARK   10  A    between atoms: P_19  and  O_20
REMARK   11  A    between atoms: P_19  and  O_22
REMARK   12  A    between atoms: O_22  and  P_23
REMARK   13  A    between atoms: P_23  and  O_24
REMARK   14  A    between atoms: P_23  and  O_26
REMARK   15  A    between atoms: O_26  and  P_27
REMARK   16  A    between atoms: P_27  and  O_28
REMARK   17  A    between atoms: P_27  and  O_30
REMARK   18  A    between atoms: O_30  and  P_31
REMARK   19  A    between atoms: P_31  and  O_32
REMARK   20  A    between atoms: P_31  and  O_34
REMARK   21  A    between atoms: O_34  and  C_35
REMARK   22  A    between atoms: C_35  and  C_36
REMARK   23  A    between atoms: C_39  and  N_47
REMARK   24  A    between atoms: C_41  and  O_43
REMARK   25  A    between atoms: C_44  and  O_46
REMARK                            x       y       z     vdW  Elec       q    Type
REMARK                         _______ _______ _______ _____ _____    ______ ____
ROOT
ATOM      1  P   UNL     1       7.401  -5.196  22.933  0.00  0.00    +0.492 P 
ATOM      2  O   UNL     1       7.933  -6.394  22.228  0.00  0.00    -0.226 OA
ENDROOT
BRANCH   1   3
ATOM      3  O   UNL     1       6.974  -4.034  21.922  0.00  0.00    -0.302 OA
ATOM      4  H   UNL     1       6.666  -4.438  21.082  0.00  0.00    +0.222 HD
ENDBRANCH   1   3
BRANCH   1   5
ATOM      5  O   UNL     1       6.057  -5.483  23.721  0.00  0.00    -0.186 OA
BRANCH   5   6
ATOM      6  P   UNL     1       4.680  -5.676  22.947  0.00  0.00    +0.492 P 
ATOM      7  O   UNL     1       3.977  -4.383  22.692  0.00  0.00    -0.226 OA
BRANCH   6   8
ATOM      8  O   UNL     1       5.185  -6.371  21.601  0.00  0.00    -0.302 OA
ATOM      9  H   UNL     1       5.139  -5.727  20.866  0.00  0.00    +0.222 HD
ENDBRANCH   6   8
BRANCH   6  10
ATOM     10  O   UNL     1       3.861  -6.727  23.798  0.00  0.00    -0.186 OA
BRANCH  10  11
ATOM     11  P   UNL     1       3.416  -6.765  25.470  0.00  0.00    +0.483 P 
ATOM     12  O   UNL     1       1.933  -6.819  25.101  0.00  0.00    -0.227 OA
BRANCH  11  13
ATOM     13  O   UNL     1       3.690  -5.155  25.572  0.00  0.00    -0.302 OA
ATOM     14  H   UNL     1       2.818  -4.724  25.470  0.00  0.00    +0.222 HD
ENDBRANCH  11  13
BRANCH  11  15
ATOM     15  O   UNL     1       2.971  -6.803  27.142  0.00  0.00    -0.284 OA
BRANCH  15  16
ATOM     16  C   UNL     1       2.175  -5.765  27.609  0.00  0.00    +0.206 C 
BRANCH  16  17
ATOM     17  C   UNL     1       2.809  -5.053  28.803  0.00  0.00    +0.178 C 
ATOM     18  C   UNL     1       4.325  -5.049  28.881  0.00  0.00    +0.178 C 
ATOM     19  C   UNL     1       4.757  -3.669  28.417  0.00  0.00    +0.195 C 
ATOM     20  C   UNL     1       3.444  -2.962  28.067  0.00  0.00    +0.253 C 
ATOM     21  O   UNL     1       2.411  -3.657  28.794  0.00  0.00    -0.346 OA
BRANCH  20  22
ATOM     22  N   UNL     1       3.365  -1.551  28.407  0.00  0.00    -0.286 N 
ATOM     23  C   UNL     1       3.805  -0.524  27.628  0.00  0.00    +0.167 A 
ATOM     24  N   UNL     1       4.504  -0.590  26.483  0.00  0.00    -0.216 NA
ATOM     25  C   UNL     1       4.813   0.637  26.028  0.00  0.00    +0.225 A 
ATOM     26  N   UNL     1       4.464   1.833  26.559  0.00  0.00    -0.219 NA
ATOM     27  C   UNL     1       3.713   1.854  27.678  0.00  0.00    +0.147 A 
ATOM     28  N   UNL     1       3.323   3.091  28.184  0.00  0.00    -0.341 N 
ATOM     29  H   UNL     1       3.083   3.056  29.171  0.00  0.00    +0.144 HD
ATOM     30  H   UNL     1       3.943   3.826  27.881  0.00  0.00    +0.144 HD
ATOM     31  C   UNL     1       3.380   0.629  28.284  0.00  0.00    +0.147 A 
ATOM     32  N   UNL     1       2.694   0.308  29.437  0.00  0.00    -0.231 NA
ATOM     33  C   UNL     1       2.696  -1.012  29.469  0.00  0.00    +0.203 A 
ENDBRANCH  20  22
BRANCH  19  34
ATOM     34  O   UNL     1       5.639  -3.766  27.297  0.00  0.00    -0.385 OA
ATOM     35  H   UNL     1       6.078  -2.893  27.228  0.00  0.00    +0.210 HD
ENDBRANCH  19  34
BRANCH  18  36
ATOM     36  O   UNL     1       4.703  -5.201  30.276  0.00  0.00    -0.386 OA
ATOM     37  H   UNL     1       5.675  -5.291  30.317  0.00  0.00    +0.210 HD
ENDBRANCH  18  36
ENDBRANCH  16  17
ENDBRANCH  15  16
ENDBRANCH  11  15
ENDBRANCH  10  11
ENDBRANCH   6  10
ENDBRANCH   5   6
ENDBRANCH   1   5
BRANCH   1  38
ATOM     38  O   UNL     1       8.404  -4.523  23.950  0.00  0.00    -0.186 OA
BRANCH  38  39
ATOM     39  P   UNL     1       8.723  -4.898  25.453  0.00  0.00    +0.492 P 
ATOM     40  O   UNL     1       7.691  -5.746  26.113  0.00  0.00    -0.226 OA
BRANCH  39  41
ATOM     41  O   UNL     1      10.130  -5.650  25.281  0.00  0.00    -0.302 OA
ATOM     42  H   UNL     1      10.035  -6.601  25.085  0.00  0.00    +0.222 HD
ENDBRANCH  39  41
BRANCH  39  43
ATOM     43  O   UNL     1       9.092  -3.546  26.265  0.00  0.00    -0.186 OA
BRANCH  43  44
ATOM     44  P   UNL     1       8.181  -2.316  25.461  0.00  0.00    +0.483 P 
ATOM     45  O   UNL     1       7.749  -1.680  26.784  0.00  0.00    -0.227 OA
BRANCH  44  46
ATOM     46  O   UNL     1       7.269  -1.085  24.655  0.00  0.00    -0.302 OA
ATOM     47  H   UNL     1       7.966  -0.483  24.318  0.00  0.00    +0.222 HD
ENDBRANCH  44  46
BRANCH  44  48
ATOM     48  O   UNL     1       9.570  -1.559  24.974  0.00  0.00    -0.284 OA
BRANCH  48  49
ATOM     49  C   UNL     1      10.133  -1.905  23.708  0.00  0.00    +0.206 C 
BRANCH  49  52
ATOM     50  C   UNL     1       9.596   1.409  23.505  0.00  0.00    +0.226 C 
ATOM     51  O   UNL     1      10.679   0.504  23.717  0.00  0.00    -0.348 OA
ATOM     52  C   UNL     1      10.439  -0.649  22.884  0.00  0.00    +0.175 C 
ATOM     53  C   UNL     1       9.247  -0.301  21.985  0.00  0.00    +0.150 C 
ATOM     54  C   UNL     1       9.202   1.200  22.060  0.00  0.00    +0.088 C 
BRANCH  50  63
ATOM     55  C   UNL     1      12.444   5.530  23.233  0.00  0.00    +0.051 C 
ATOM     56  C   UNL     1      11.224   4.744  23.589  0.00  0.00    +0.030 A 
ATOM     57  C   UNL     1      10.034   5.515  23.999  0.00  0.00    +0.257 A 
ATOM     58  O   UNL     1      10.020   6.740  23.973  0.00  0.00    -0.267 OA
ATOM     59  N   UNL     1       8.969   4.788  24.446  0.00  0.00    -0.275 N 
ATOM     60  H   UNL     1       8.205   5.286  24.875  0.00  0.00    +0.173 HD
ATOM     61  C   UNL     1       8.939   3.431  24.584  0.00  0.00    +0.331 A 
ATOM     62  O   UNL     1       8.056   2.910  25.257  0.00  0.00    -0.246 OA
ATOM     63  N   UNL     1       9.932   2.760  23.890  0.00  0.00    -0.274 N 
ATOM     64  C   UNL     1      11.079   3.417  23.476  0.00  0.00    +0.101 A 
ENDBRANCH  50  63
BRANCH  53  65
ATOM     65  O   UNL     1       9.420  -0.749  20.653  0.00  0.00    -0.389 OA
ATOM     66  H   UNL     1       9.111  -0.051  20.046  0.00  0.00    +0.210 HD
ENDBRANCH  53  65
ENDBRANCH  49  52
ENDBRANCH  48  49
ENDBRANCH  44  48
ENDBRANCH  43  44
ENDBRANCH  39  43
ENDBRANCH  38  39
ENDBRANCH   1  38
TORSDOF 24
ENDMDL
MODEL 8
REMARK VINA RESULT:      -5.5      2.110      7.484
REMARK  Name = 
REMARK  25 active torsions:
REMARK  status: ('A' for Active; 'I' for Inactive)
REMARK    1  A    between atoms: C_1  and  C_2
REMARK    2  A    between atoms: N_4  and  C_5
REMARK    3  A    between atoms: C_8  and  O_10
REMARK    4  A    between atoms: C_11  and  C_13
REMARK    5  A    between atoms: C_13  and  O_14
REMARK    6  A    between atoms: O_14  and  P_15
REMARK    7  A    between atoms: P_15  and  O_16
REMARK    8  A    between atoms: P_15  and  O_18
REMARK    9  A    between atoms: O_18  and  P_19
REMARK   10  A    between atoms: P_19  and  O_20
REMARK   11  A    between atoms: P_19  and  O_22
REMARK   12  A    between atoms: O_22  and  P_23
REMARK   13  A    between atoms: P_23  and  O_24
REMARK   14  A    between atoms: P_23  and  O_26
REMARK   15  A    between atoms: O_26  and  P_27
REMARK   16  A    between atoms: P_27  and  O_28
REMARK   17  A    between atoms: P_27  and  O_30
REMARK   18  A    between atoms: O_30  and  P_31
REMARK   19  A    between atoms: P_31  and  O_32
REMARK   20  A    between atoms: P_31  and  O_34
REMARK   21  A    between atoms: O_34  and  C_35
REMARK   22  A    between atoms: C_35  and  C_36
REMARK   23  A    between atoms: C_39  and  N_47
REMARK   24  A    between atoms: C_41  and  O_43
REMARK   25  A    between atoms: C_44  and  O_46
REMARK                            x       y       z     vdW  Elec       q    Type
REMARK                         _______ _______ _______ _____ _____    ______ ____
ROOT
ATOM      1  P   UNL     1       7.733  -4.319  23.204  0.00  0.00    +0.492 P 
ATOM      2  O   UNL     1       8.421  -5.175  24.207  0.00  0.00    -0.226 OA
ENDROOT
BRANCH   1   3
ATOM      3  O   UNL     1       8.231  -4.607  21.712  0.00  0.00    -0.302 OA
ATOM      4  H   UNL     1       8.641  -3.791  21.350  0.00  0.00    +0.222 HD
ENDBRANCH   1   3
BRANCH   1   5
ATOM      5  O   UNL     1       6.176  -4.597  23.111  0.00  0.00    -0.186 OA
BRANCH   5   6
ATOM      6  P   UNL     1       5.583  -5.561  21.992  0.00  0.00    +0.492 P 
ATOM      7  O   UNL     1       5.687  -4.983  20.619  0.00  0.00    -0.226 OA
BRANCH   6   8
ATOM      8  O   UNL     1       6.507  -6.849  22.183  0.00  0.00    -0.302 OA
ATOM      9  H   UNL     1       7.203  -6.854  21.496  0.00  0.00    +0.222 HD
ENDBRANCH   6   8
BRANCH   6  10
ATOM     10  O   UNL     1       4.113  -5.902  22.466  0.00  0.00    -0.186 OA
BRANCH  10  11
ATOM     11  P   UNL     1       3.488  -6.467  23.978  0.00  0.00    +0.483 P 
ATOM     12  O   UNL     1       4.750  -7.297  24.218  0.00  0.00    -0.227 OA
BRANCH  11  13
ATOM     13  O   UNL     1       2.526  -7.521  23.178  0.00  0.00    -0.302 OA
ATOM     14  H   UNL     1       1.910  -6.978  22.646  0.00  0.00    +0.222 HD
ENDBRANCH  11  13
BRANCH  11  15
ATOM     15  O   UNL     1       2.865  -7.032  25.490  0.00  0.00    -0.284 OA
BRANCH  15  16
ATOM     16  C   UNL     1       2.131  -6.129  26.250  0.00  0.00    +0.206 C 
BRANCH  16  17
ATOM     17  C   UNL     1       2.897  -5.673  27.490  0.00  0.00    +0.178 C 
ATOM     18  C   UNL     1       4.237  -6.335  27.760  0.00  0.00    +0.178 C 
ATOM     19  C   UNL     1       5.288  -5.335  27.310  0.00  0.00    +0.195 C 
ATOM     20  C   UNL     1       4.475  -4.152  26.774  0.00  0.00    +0.253 C 
ATOM     21  O   UNL     1       3.174  -4.251  27.386  0.00  0.00    -0.346 OA
BRANCH  20  22
ATOM     22  N   UNL     1       5.007  -2.829  27.055  0.00  0.00    -0.286 N 
ATOM     23  C   UNL     1       6.316  -2.464  26.949  0.00  0.00    +0.167 A 
ATOM     24  N   UNL     1       7.379  -3.246  26.704  0.00  0.00    -0.216 NA
ATOM     25  C   UNL     1       8.522  -2.539  26.730  0.00  0.00    +0.225 A 
ATOM     26  N   UNL     1       8.671  -1.206  26.920  0.00  0.00    -0.219 NA
ATOM     27  C   UNL     1       7.572  -0.448  27.107  0.00  0.00    +0.147 A 
ATOM     28  N   UNL     1       7.739   0.926  27.253  0.00  0.00    -0.341 N 
ATOM     29  H   UNL     1       6.958   1.370  27.727  0.00  0.00    +0.144 HD
ATOM     30  H   UNL     1       8.668   1.153  27.573  0.00  0.00    +0.144 HD
ATOM     31  C   UNL     1       6.320  -1.088  27.162  0.00  0.00    +0.147 A 
ATOM     32  N   UNL     1       5.040  -0.627  27.391  0.00  0.00    -0.231 NA
ATOM     33  C   UNL     1       4.279  -1.702  27.307  0.00  0.00    +0.203 A 
ENDBRANCH  20  22
BRANCH  19  34
ATOM     34  O   UNL     1       6.137  -5.909  26.315  0.00  0.00    -0.385 OA
ATOM     35  H   UNL     1       6.896  -6.292  26.802  0.00  0.00    +0.210 HD
ENDBRANCH  19  34
BRANCH  18  36
ATOM     36  O   UNL     1       4.366  -6.518  29.196  0.00  0.00    -0.386 OA
ATOM     37  H   UNL     1       4.329  -5.638  29.616  0.00  0.00    +0.210 HD
ENDBRANCH  18  36
ENDBRANCH  16  17
ENDBRANCH  15  16
ENDBRANCH  11  15
ENDBRANCH  10  11
ENDBRANCH   6  10
ENDBRANCH   5   6
ENDBRANCH   1   5
BRANCH   1  38
ATOM     38  O   UNL     1       7.917  -2.765  23.416  0.00  0.00    -0.186 OA
BRANCH  38  39
ATOM     39  P   UNL     1       9.155  -1.839  23.083  0.00  0.00    +0.492 P 
ATOM     40  O   UNL     1      10.484  -2.475  23.311  0.00  0.00    -0.226 OA
BRANCH  39  41
ATOM     41  O   UNL     1       8.879  -1.512  21.537  0.00  0.00    -0.302 OA
ATOM     42  H   UNL     1       8.350  -0.703  21.405  0.00  0.00    +0.222 HD
ENDBRANCH  39  41
BRANCH  39  43
ATOM     43  O   UNL     1       8.963  -0.415  23.831  0.00  0.00    -0.186 OA
BRANCH  43  44
ATOM     44  P   UNL     1       9.489   0.744  22.659  0.00  0.00    +0.483 P 
ATOM     45  O   UNL     1       8.055   1.053  22.227  0.00  0.00    -0.227 OA
BRANCH  44  46
ATOM     46  O   UNL     1      10.016   1.903  21.488  0.00  0.00    -0.302 OA
ATOM     47  H   UNL     1      10.758   1.442  21.042  0.00  0.00    +0.222 HD
ENDBRANCH  44  46
BRANCH  44  48
ATOM     48  O   UNL     1       9.892   1.817  23.854  0.00  0.00    -0.284 OA
BRANCH  48  49
ATOM     49  C   UNL     1      10.117   3.183  23.502  0.00  0.00    +0.206 C 
BRANCH  49  52
ATOM     50  C   UNL     1       6.916   3.352  24.521  0.00  0.00    +0.226 C 
ATOM     51  O   UNL     1       8.228   3.379  25.082  0.00  0.00    -0.348 OA
ATOM     52  C   UNL     1       9.072   4.094  24.155  0.00  0.00    +0.175 C 
ATOM     53  C   UNL     1       8.146   4.690  23.088  0.00  0.00    +0.150 C 
ATOM     54  C   UNL     1       6.800   4.653  23.758  0.00  0.00    +0.088 C 
BRANCH  50  63
ATOM     55  C   UNL     1       4.249   4.642  28.570  0.00  0.00    +0.051 C 
ATOM     56  C   UNL     1       4.555   3.846  27.343  0.00  0.00    +0.030 A 
ATOM     57  C   UNL     1       3.479   2.974  26.833  0.00  0.00    +0.257 A 
ATOM     58  O   UNL     1       2.365   2.962  27.341  0.00  0.00    -0.267 OA
ATOM     59  N   UNL     1       3.809   2.155  25.792  0.00  0.00    -0.275 N 
ATOM     60  H   UNL     1       3.148   1.443  25.523  0.00  0.00    +0.173 HD
ATOM     61  C   UNL     1       5.048   2.050  25.229  0.00  0.00    +0.331 A 
ATOM     62  O   UNL     1       5.307   1.092  24.508  0.00  0.00    -0.246 OA
ATOM     63  N   UNL     1       5.902   3.101  25.519  0.00  0.00    -0.274 N 
ATOM     64  C   UNL     1       5.674   3.924  26.610  0.00  0.00    +0.101 A 
ENDBRANCH  50  63
BRANCH  53  65
ATOM     65  O   UNL     1       8.509   6.011  22.727  0.00  0.00    -0.389 OA
ATOM     66  H   UNL     1       7.816   6.377  22.149  0.00  0.00    +0.210 HD
ENDBRANCH  53  65
ENDBRANCH  49  52
ENDBRANCH  48  49
ENDBRANCH  44  48
ENDBRANCH  43  44
ENDBRANCH  39  43
ENDBRANCH  38  39
ENDBRANCH   1  38
TORSDOF 24
ENDMDL
MODEL 9
REMARK VINA RESULT:      -5.5      2.526      5.788
REMARK  Name = 
REMARK  25 active torsions:
REMARK  status: ('A' for Active; 'I' for Inactive)
REMARK    1  A    between atoms: C_1  and  C_2
REMARK    2  A    between atoms: N_4  and  C_5
REMARK    3  A    between atoms: C_8  and  O_10
REMARK    4  A    between atoms: C_11  and  C_13
REMARK    5  A    between atoms: C_13  and  O_14
REMARK    6  A    between atoms: O_14  and  P_15
REMARK    7  A    between atoms: P_15  and  O_16
REMARK    8  A    between atoms: P_15  and  O_18
REMARK    9  A    between atoms: O_18  and  P_19
REMARK   10  A    between atoms: P_19  and  O_20
REMARK   11  A    between atoms: P_19  and  O_22
REMARK   12  A    between atoms: O_22  and  P_23
REMARK   13  A    between atoms: P_23  and  O_24
REMARK   14  A    between atoms: P_23  and  O_26
REMARK   15  A    between atoms: O_26  and  P_27
REMARK   16  A    between atoms: P_27  and  O_28
REMARK   17  A    between atoms: P_27  and  O_30
REMARK   18  A    between atoms: O_30  and  P_31
REMARK   19  A    between atoms: P_31  and  O_32
REMARK   20  A    between atoms: P_31  and  O_34
REMARK   21  A    between atoms: O_34  and  C_35
REMARK   22  A    between atoms: C_35  and  C_36
REMARK   23  A    between atoms: C_39  and  N_47
REMARK   24  A    between atoms: C_41  and  O_43
REMARK   25  A    between atoms: C_44  and  O_46
REMARK                            x       y       z     vdW  Elec       q    Type
REMARK                         _______ _______ _______ _____ _____    ______ ____
ROOT
ATOM      1  P   UNL     1       3.524  -4.925  27.422  0.00  0.00    +0.492 P 
ATOM      2  O   UNL     1       4.633  -3.940  27.536  0.00  0.00    -0.226 OA
ENDROOT
BRANCH   1   3
ATOM      3  O   UNL     1       3.855  -6.305  28.158  0.00  0.00    -0.302 OA
ATOM      4  H   UNL     1       4.212  -6.112  29.052  0.00  0.00    +0.222 HD
ENDBRANCH   1   3
BRANCH   1   5
ATOM      5  O   UNL     1       2.196  -4.455  28.149  0.00  0.00    -0.186 OA
BRANCH   5   6
ATOM      6  P   UNL     1       2.150  -3.089  28.964  0.00  0.00    +0.492 P 
ATOM      7  O   UNL     1       0.923  -2.963  29.807  0.00  0.00    -0.226 OA
BRANCH   6   8
ATOM      8  O   UNL     1       3.480  -3.214  29.837  0.00  0.00    -0.302 OA
ATOM      9  H   UNL     1       4.234  -3.426  29.252  0.00  0.00    +0.222 HD
ENDBRANCH   6   8
BRANCH   6  10
ATOM     10  O   UNL     1       2.342  -1.947  27.886  0.00  0.00    -0.186 OA
BRANCH  10  11
ATOM     11  P   UNL     1       3.343  -0.537  27.864  0.00  0.00    +0.483 P 
ATOM     12  O   UNL     1       2.290   0.231  27.063  0.00  0.00    -0.227 OA
BRANCH  11  13
ATOM     13  O   UNL     1       4.254  -1.210  26.683  0.00  0.00    -0.302 OA
ATOM     14  H   UNL     1       4.628  -2.031  27.063  0.00  0.00    +0.222 HD
ENDBRANCH  11  13
BRANCH  11  15
ATOM     15  O   UNL     1       4.344   0.875  27.842  0.00  0.00    -0.284 OA
BRANCH  15  16
ATOM     16  C   UNL     1       5.143   1.102  28.954  0.00  0.00    +0.206 C 
BRANCH  16  17
ATOM     17  C   UNL     1       6.610   1.299  28.572  0.00  0.00    +0.178 C 
ATOM     18  C   UNL     1       7.256   0.216  27.727  0.00  0.00    +0.178 C 
ATOM     19  C   UNL     1       7.293   0.766  26.312  0.00  0.00    +0.195 C 
ATOM     20  C   UNL     1       6.629   2.143  26.426  0.00  0.00    +0.253 C 
ATOM     21  O   UNL     1       6.745   2.528  27.810  0.00  0.00    -0.346 OA
BRANCH  20  22
ATOM     22  N   UNL     1       7.203   3.201  25.612  0.00  0.00    -0.286 N 
ATOM     23  C   UNL     1       7.062   3.325  24.263  0.00  0.00    +0.167 A 
ATOM     24  N   UNL     1       6.503   2.459  23.402  0.00  0.00    -0.216 NA
ATOM     25  C   UNL     1       6.600   2.898  22.135  0.00  0.00    +0.225 A 
ATOM     26  N   UNL     1       7.130   4.065  21.698  0.00  0.00    -0.219 NA
ATOM     27  C   UNL     1       7.631   4.932  22.601  0.00  0.00    +0.147 A 
ATOM     28  N   UNL     1       8.128   6.148  22.140  0.00  0.00    -0.341 N 
ATOM     29  H   UNL     1       8.784   6.576  22.785  0.00  0.00    +0.144 HD
ATOM     30  H   UNL     1       8.398   6.091  21.169  0.00  0.00    +0.144 HD
ATOM     31  C   UNL     1       7.642   4.554  23.956  0.00  0.00    +0.147 A 
ATOM     32  N   UNL     1       8.121   5.164  25.097  0.00  0.00    -0.231 NA
ATOM     33  C   UNL     1       7.827   4.325  26.072  0.00  0.00    +0.203 A 
ENDBRANCH  20  22
BRANCH  19  34
ATOM     34  O   UNL     1       6.598  -0.102  25.414  0.00  0.00    -0.385 OA
ATOM     35  H   UNL     1       6.859  -1.011  25.669  0.00  0.00    +0.210 HD
ENDBRANCH  19  34
BRANCH  18  36
ATOM     36  O   UNL     1       8.624   0.045  28.186  0.00  0.00    -0.386 OA
ATOM     37  H   UNL     1       8.604  -0.498  28.997  0.00  0.00    +0.210 HD
ENDBRANCH  18  36
ENDBRANCH  16  17
ENDBRANCH  15  16
ENDBRANCH  11  15
ENDBRANCH  10  11
ENDBRANCH   6  10
ENDBRANCH   5   6
ENDBRANCH   1   5
BRANCH   1  38
ATOM     38  O   UNL     1       3.132  -5.320  25.944  0.00  0.00    -0.186 OA
BRANCH  38  39
ATOM     39  P   UNL     1       3.062  -4.424  24.644  0.00  0.00    +0.492 P 
ATOM     40  O   UNL     1       2.209  -4.979  23.554  0.00  0.00    -0.226 OA
BRANCH  39  41
ATOM     41  O   UNL     1       2.481  -3.057  25.252  0.00  0.00    -0.302 OA
ATOM     42  H   UNL     1       1.802  -3.200  25.937  0.00  0.00    +0.222 HD
ENDBRANCH  39  41
BRANCH  39  43
ATOM     43  O   UNL     1       4.567  -4.046  24.183  0.00  0.00    -0.186 OA
BRANCH  43  44
ATOM     44  P   UNL     1       4.960  -5.257  23.011  0.00  0.00    +0.483 P 
ATOM     45  O   UNL     1       5.056  -4.228  21.884  0.00  0.00    -0.227 OA
BRANCH  44  46
ATOM     46  O   UNL     1       5.352  -6.469  21.841  0.00  0.00    -0.302 OA
ATOM     47  H   UNL     1       6.333  -6.474  21.852  0.00  0.00    +0.222 HD
ENDBRANCH  44  46
BRANCH  44  48
ATOM     48  O   UNL     1       6.474  -5.435  23.655  0.00  0.00    -0.284 OA
BRANCH  48  49
ATOM     49  C   UNL     1       6.625  -5.403  25.075  0.00  0.00    +0.206 C 
BRANCH  49  52
ATOM     50  C   UNL     1       8.639  -2.937  23.989  0.00  0.00    +0.226 C 
ATOM     51  O   UNL     1       7.608  -3.140  24.956  0.00  0.00    -0.348 OA
ATOM     52  C   UNL     1       7.774  -4.473  25.481  0.00  0.00    +0.175 C 
ATOM     53  C   UNL     1       9.104  -5.000  24.930  0.00  0.00    +0.150 C 
ATOM     54  C   UNL     1       9.810  -3.742  24.507  0.00  0.00    +0.088 C 
BRANCH  50  63
ATOM     55  C   UNL     1      11.451   1.207  24.290  0.00  0.00    +0.051 C 
ATOM     56  C   UNL     1      10.340   0.356  23.768  0.00  0.00    +0.030 A 
ATOM     57  C   UNL     1       9.661   0.827  22.544  0.00  0.00    +0.257 A 
ATOM     58  O   UNL     1      10.041   1.823  21.941  0.00  0.00    -0.267 OA
ATOM     59  N   UNL     1       8.567   0.114  22.149  0.00  0.00    -0.275 N 
ATOM     60  H   UNL     1       7.995   0.496  21.413  0.00  0.00    +0.173 HD
ATOM     61  C   UNL     1       8.035  -0.953  22.813  0.00  0.00    +0.331 A 
ATOM     62  O   UNL     1       6.901  -1.334  22.539  0.00  0.00    -0.246 OA
ATOM     63  N   UNL     1       8.883  -1.535  23.740  0.00  0.00    -0.274 N 
ATOM     64  C   UNL     1       9.969  -0.839  24.246  0.00  0.00    +0.101 A 
ENDBRANCH  50  63
BRANCH  53  65
ATOM     65  O   UNL     1       9.851  -5.714  25.898  0.00  0.00    -0.389 OA
ATOM     66  H   UNL     1      10.425  -6.354  25.439  0.00  0.00    +0.210 HD
ENDBRANCH  53  65
ENDBRANCH  49  52
ENDBRANCH  48  49
ENDBRANCH  44  48
ENDBRANCH  43  44
ENDBRANCH  39  43
ENDBRANCH  38  39
ENDBRANCH   1  38
TORSDOF 24
ENDMDL
