MODEL 1
REMARK VINA RESULT:      -8.4      0.000      0.000
REMARK  Name = 
REMARK  18 active torsions:
REMARK  status: ('A' for Active; 'I' for Inactive)
REMARK    1  A    between atoms: N_10  and  C_11
REMARK    2  A    between atoms: C_14  and  C_16
REMARK    3  A    between atoms: C_16  and  O_17
REMARK    4  A    between atoms: O_17  and  P_18
REMARK    5  A    between atoms: P_18  and  O_19
REMARK    6  A    between atoms: P_18  and  O_21
REMARK    7  A    between atoms: O_21  and  P_22
REMARK    8  A    between atoms: P_22  and  O_23
REMARK    9  A    between atoms: P_22  and  O_25
REMARK   10  A    between atoms: O_25  and  C_26
REMARK   11  A    between atoms: C_26  and  C_27
REMARK   12  A    between atoms: C_30  and  N_38
REMARK   13  A    between atoms: C_32  and  O_34
REMARK   14  A    between atoms: C_35  and  O_37
REMARK   15  A    between atoms: C_42  and  C_44
REMARK   16  A    between atoms: C_44  and  O_45
REMARK   17  A    between atoms: C_47  and  O_49
REMARK   18  A    between atoms: C_50  and  O_52
REMARK                            x       y       z     vdW  Elec       q    Type
REMARK                         _______ _______ _______ _____ _____    ______ ____
ROOT
ATOM      1  P   UNL     1       8.955  -4.946  24.895  0.00  0.00    +0.483 P 
ATOM      2  O   UNL     1       9.991  -3.940  24.400  0.00  0.00    -0.227 OA
ENDROOT
BRANCH   1   3
ATOM      3  O   UNL     1      10.158  -5.636  25.930  0.00  0.00    -0.302 OA
ATOM      4  H   UNL     1      11.007  -5.681  25.453  0.00  0.00    +0.222 HD
ENDBRANCH   1   3
BRANCH   1   5
ATOM      5  O   UNL     1       7.752  -4.257  23.860  0.00  0.00    -0.186 OA
BRANCH   5   6
ATOM      6  P   UNL     1       7.934  -2.537  23.831  0.00  0.00    +0.483 P 
ATOM      7  O   UNL     1       6.400  -2.420  23.815  0.00  0.00    -0.227 OA
BRANCH   6   8
ATOM      8  O   UNL     1       8.337  -2.613  22.249  0.00  0.00    -0.302 OA
ATOM      9  H   UNL     1       7.915  -1.874  21.767  0.00  0.00    +0.222 HD
ENDBRANCH   6   8
BRANCH   6  10
ATOM     10  O   UNL     1       8.116  -0.816  23.803  0.00  0.00    -0.284 OA
BRANCH  10  11
ATOM     11  C   UNL     1       8.430  -0.225  22.541  0.00  0.00    +0.206 C 
BRANCH  11  12
ATOM     12  C   UNL     1       7.886   1.196  22.384  0.00  0.00    +0.183 C 
ATOM     13  C   UNL     1       7.054   1.679  23.572  0.00  0.00    +0.183 C 
ATOM     14  C   UNL     1       8.037   2.439  24.462  0.00  0.00    +0.244 C 
ATOM     15  C   UNL     1       9.345   2.434  23.669  0.00  0.00    +0.439 C 
ATOM     16  O   UNL     1       8.999   2.125  22.314  0.00  0.00    -0.309 OA
BRANCH  15  17
ATOM     17  N   UNL     1      10.028   3.747  23.803  0.00  0.00    -0.173 N 
ATOM     18  C   UNL     1      11.237   3.961  23.235  0.00  0.00    +0.326 A 
ATOM     19  C   UNL     1      11.876   5.202  23.343  0.00  0.00    +0.122 A 
ATOM     20  C   UNL     1      11.242   6.229  24.043  0.00  0.00    +0.027 A 
ATOM     21  C   UNL     1      10.005   5.983  24.634  0.00  0.00    +0.071 A 
ATOM     22  C   UNL     1       9.422   4.727  24.517  0.00  0.00    +0.311 A 
BRANCH  19  23
ATOM     23  C   UNL     1      13.200   5.302  22.684  0.00  0.00    +0.343 C 
ATOM     24  O   UNL     1      13.276   5.706  21.536  0.00  0.00    -0.245 OA
BRANCH  23  25
ATOM     25  O   UNL     1      14.274   4.931  23.395  0.00  0.00    -0.477 OA
ATOM     26  H   UNL     1      15.048   5.512  23.480  0.00  0.00    +0.295 HD
ENDBRANCH  23  25
ENDBRANCH  19  23
ENDBRANCH  15  17
BRANCH  14  27
ATOM     27  O   UNL     1       8.248   1.855  25.745  0.00  0.00    -0.380 OA
ATOM     28  H   UNL     1       9.194   1.606  25.807  0.00  0.00    +0.210 HD
ENDBRANCH  14  27
BRANCH  13  29
ATOM     29  O   UNL     1       6.087   2.654  23.156  0.00  0.00    -0.386 OA
ATOM     30  H   UNL     1       5.762   3.171  23.917  0.00  0.00    +0.210 HD
ENDBRANCH  13  29
ENDBRANCH  11  12
ENDBRANCH  10  11
ENDBRANCH   6  10
ENDBRANCH   5   6
ENDBRANCH   1   5
BRANCH   1  31
ATOM     31  O   UNL     1       8.169  -4.350  26.234  0.00  0.00    -0.284 OA
BRANCH  31  32
ATOM     32  C   UNL     1       7.490  -5.284  27.086  0.00  0.00    +0.206 C 
BRANCH  32  36
ATOM     33  C   UNL     1       3.992  -4.570  26.373  0.00  0.00    +0.253 C 
ATOM     34  C   UNL     1       3.894  -5.287  27.724  0.00  0.00    +0.195 C 
ATOM     35  C   UNL     1       5.215  -6.048  27.843  0.00  0.00    +0.178 C 
ATOM     36  C   UNL     1       6.052  -5.541  26.659  0.00  0.00    +0.178 C 
ATOM     37  O   UNL     1       5.415  -4.341  26.193  0.00  0.00    -0.346 OA
BRANCH  33  45
ATOM     38  N   UNL     1       1.651  -8.012  21.941  0.00  0.00    -0.341 N 
ATOM     39  H   UNL     1       1.618  -7.189  21.352  0.00  0.00    +0.144 HD
ATOM     40  H   UNL     1       0.867  -8.652  21.880  0.00  0.00    +0.144 HD
ATOM     41  C   UNL     1       1.944  -7.715  23.270  0.00  0.00    +0.147 A 
ATOM     42  C   UNL     1       2.621  -6.551  23.680  0.00  0.00    +0.147 A 
ATOM     43  N   UNL     1       3.146  -5.482  22.981  0.00  0.00    -0.231 NA
ATOM     44  C   UNL     1       3.659  -4.701  23.909  0.00  0.00    +0.203 A 
ATOM     45  N   UNL     1       3.497  -5.216  25.175  0.00  0.00    -0.286 N 
ATOM     46  C   UNL     1       2.824  -6.397  25.044  0.00  0.00    +0.167 A 
ATOM     47  N   UNL     1       2.423  -7.238  26.006  0.00  0.00    -0.216 NA
ATOM     48  C   UNL     1       1.793  -8.313  25.504  0.00  0.00    +0.225 A 
ATOM     49  N   UNL     1       1.528  -8.590  24.211  0.00  0.00    -0.219 NA
ENDBRANCH  33  45
BRANCH  35  50
ATOM     50  O   UNL     1       5.036  -7.457  27.762  0.00  0.00    -0.386 OA
ATOM     51  H   UNL     1       4.399  -7.728  28.446  0.00  0.00    +0.210 HD
ENDBRANCH  35  50
BRANCH  34  52
ATOM     52  O   UNL     1       3.823  -4.309  28.784  0.00  0.00    -0.385 OA
ATOM     53  H   UNL     1       3.652  -4.770  29.628  0.00  0.00    +0.210 HD
ENDBRANCH  34  52
ENDBRANCH  32  36
ENDBRANCH  31  32
ENDBRANCH   1  31
TORSDOF 18
ENDMDL
MODEL 2
REMARK VINA RESULT:      -8.4      3.050      6.181
REMARK  Name = 
REMARK  18 active torsions:
REMARK  status: ('A' for Active; 'I' for Inactive)
REMARK    1  A    between atoms: N_10  and  C_11
REMARK    2  A    between atoms: C_14  and  C_16
REMARK    3  A    between atoms: C_16  and  O_17
REMARK    4  A    between atoms: O_17  and  P_18
REMARK    5  A    between atoms: P_18  and  O_19
REMARK    6  A    between atoms: P_18  and  O_21
REMARK    7  A    between atoms: O_21  and  P_22
REMARK    8  A    between atoms: P_22  and  O_23
REMARK    9  A    between atoms: P_22  and  O_25
REMARK   10  A    between atoms: O_25  and  C_26
REMARK   11  A    between atoms: C_26  and  C_27
REMARK   12  A    between atoms: C_30  and  N_38
REMARK   13  A    between atoms: C_32  and  O_34
REMARK   14  A    between atoms: C_35  and  O_37
REMARK   15  A    between atoms: C_42  and  C_44
REMARK   16  A    between atoms: C_44  and  O_45
REMARK   17  A    between atoms: C_47  and  O_49
REMARK   18  A    between atoms: C_50  and  O_52
REMARK                            x       y       z     vdW  Elec       q    Type
REMARK                         _______ _______ _______ _____ _____    ______ ____
ROOT
ATOM      1  P   UNL     1       9.934  -1.305  22.208  0.00  0.00    +0.483 P 
ATOM      2  O   UNL     1      10.180  -0.387  23.402  0.00  0.00    -0.227 OA
ENDROOT
BRANCH   1   3
ATOM      3  O   UNL     1      10.599  -2.620  23.116  0.00  0.00    -0.302 OA
ATOM      4  H   UNL     1      10.322  -2.543  24.048  0.00  0.00    +0.222 HD
ENDBRANCH   1   3
BRANCH   1   5
ATOM      5  O   UNL     1       9.270   0.009  21.300  0.00  0.00    -0.186 OA
BRANCH   5   6
ATOM      6  P   UNL     1       8.800   1.276  22.380  0.00  0.00    +0.483 P 
ATOM      7  O   UNL     1       7.589   1.541  21.468  0.00  0.00    -0.227 OA
BRANCH   6   8
ATOM      8  O   UNL     1       9.973   2.230  21.759  0.00  0.00    -0.302 OA
ATOM      9  H   UNL     1      10.121   1.999  20.820  0.00  0.00    +0.222 HD
ENDBRANCH   6   8
BRANCH   6  10
ATOM     10  O   UNL     1       8.329   2.542  23.460  0.00  0.00    -0.284 OA
BRANCH  10  11
ATOM     11  C   UNL     1       8.524   2.301  24.855  0.00  0.00    +0.206 C 
BRANCH  11  12
ATOM     12  C   UNL     1       7.222   2.026  25.610  0.00  0.00    +0.183 C 
ATOM     13  C   UNL     1       6.024   1.742  24.704  0.00  0.00    +0.183 C 
ATOM     14  C   UNL     1       5.967   0.219  24.588  0.00  0.00    +0.244 C 
ATOM     15  C   UNL     1       7.071  -0.272  25.526  0.00  0.00    +0.439 C 
ATOM     16  O   UNL     1       7.378   0.820  26.402  0.00  0.00    -0.309 OA
BRANCH  15  17
ATOM     17  N   UNL     1       6.618  -1.485  26.257  0.00  0.00    -0.173 N 
ATOM     18  C   UNL     1       7.397  -2.589  26.315  0.00  0.00    +0.326 A 
ATOM     19  C   UNL     1       6.982  -3.728  27.018  0.00  0.00    +0.122 A 
ATOM     20  C   UNL     1       5.750  -3.708  27.669  0.00  0.00    +0.027 A 
ATOM     21  C   UNL     1       4.956  -2.566  27.582  0.00  0.00    +0.071 A 
ATOM     22  C   UNL     1       5.402  -1.469  26.854  0.00  0.00    +0.311 A 
BRANCH  19  23
ATOM     23  C   UNL     1       7.924  -4.873  26.996  0.00  0.00    +0.343 C 
ATOM     24  O   UNL     1       8.933  -4.813  26.314  0.00  0.00    -0.245 OA
BRANCH  23  25
ATOM     25  O   UNL     1       7.613  -5.944  27.739  0.00  0.00    -0.477 OA
ATOM     26  H   UNL     1       6.926  -6.570  27.458  0.00  0.00    +0.295 HD
ENDBRANCH  23  25
ENDBRANCH  19  23
ENDBRANCH  15  17
BRANCH  14  27
ATOM     27  O   UNL     1       6.191  -0.284  23.274  0.00  0.00    -0.380 OA
ATOM     28  H   UNL     1       7.010   0.132  22.932  0.00  0.00    +0.210 HD
ENDBRANCH  14  27
BRANCH  13  29
ATOM     29  O   UNL     1       4.797   2.121  25.345  0.00  0.00    -0.386 OA
ATOM     30  H   UNL     1       4.238   2.649  24.745  0.00  0.00    +0.210 HD
ENDBRANCH  13  29
ENDBRANCH  11  12
ENDBRANCH  10  11
ENDBRANCH   6  10
ENDBRANCH   5   6
ENDBRANCH   1   5
BRANCH   1  31
ATOM     31  O   UNL     1       8.432  -2.008  22.324  0.00  0.00    -0.284 OA
BRANCH  31  32
ATOM     32  C   UNL     1       8.281  -3.134  23.202  0.00  0.00    +0.206 C 
BRANCH  32  36
ATOM     33  C   UNL     1       5.695  -5.692  23.055  0.00  0.00    +0.253 C 
ATOM     34  C   UNL     1       5.682  -5.153  21.620  0.00  0.00    +0.195 C 
ATOM     35  C   UNL     1       6.349  -3.781  21.727  0.00  0.00    +0.178 C 
ATOM     36  C   UNL     1       6.881  -3.731  23.167  0.00  0.00    +0.178 C 
ATOM     37  O   UNL     1       6.868  -5.082  23.655  0.00  0.00    -0.346 OA
BRANCH  33  45
ATOM     38  N   UNL     1       1.401  -5.271  27.339  0.00  0.00    -0.341 N 
ATOM     39  H   UNL     1       1.103  -4.399  26.921  0.00  0.00    +0.144 HD
ATOM     40  H   UNL     1       1.404  -5.318  28.351  0.00  0.00    +0.144 HD
ATOM     41  C   UNL     1       2.607  -5.736  26.820  0.00  0.00    +0.147 A 
ATOM     42  C   UNL     1       3.100  -5.381  25.551  0.00  0.00    +0.147 A 
ATOM     43  N   UNL     1       2.603  -4.570  24.549  0.00  0.00    -0.231 NA
ATOM     44  C   UNL     1       3.512  -4.625  23.598  0.00  0.00    +0.203 A 
ATOM     45  N   UNL     1       4.571  -5.437  23.933  0.00  0.00    -0.286 N 
ATOM     46  C   UNL     1       4.327  -5.920  25.186  0.00  0.00    +0.167 A 
ATOM     47  N   UNL     1       5.090  -6.730  25.931  0.00  0.00    -0.216 NA
ATOM     48  C   UNL     1       4.522  -7.006  27.117  0.00  0.00    +0.225 A 
ATOM     49  N   UNL     1       3.347  -6.555  27.598  0.00  0.00    -0.219 NA
ENDBRANCH  33  45
BRANCH  35  50
ATOM     50  O   UNL     1       5.433  -2.717  21.495  0.00  0.00    -0.386 OA
ATOM     51  H   UNL     1       5.677  -1.968  22.066  0.00  0.00    +0.210 HD
ENDBRANCH  35  50
BRANCH  34  52
ATOM     52  O   UNL     1       6.495  -6.001  20.780  0.00  0.00    -0.385 OA
ATOM     53  H   UNL     1       7.435  -5.780  20.924  0.00  0.00    +0.210 HD
ENDBRANCH  34  52
ENDBRANCH  32  36
ENDBRANCH  31  32
ENDBRANCH   1  31
TORSDOF 18
ENDMDL
MODEL 3
REMARK VINA RESULT:      -8.3      1.947      3.071
REMARK  Name = 
REMARK  18 active torsions:
REMARK  status: ('A' for Active; 'I' for Inactive)
REMARK    1  A    between atoms: N_10  and  C_11
REMARK    2  A    between atoms: C_14  and  C_16
REMARK    3  A    between atoms: C_16  and  O_17
REMARK    4  A    between atoms: O_17  and  P_18
REMARK    5  A    between atoms: P_18  and  O_19
REMARK    6  A    between atoms: P_18  and  O_21
REMARK    7  A    between atoms: O_21  and  P_22
REMARK    8  A    between atoms: P_22  and  O_23
REMARK    9  A    between atoms: P_22  and  O_25
REMARK   10  A    between atoms: O_25  and  C_26
REMARK   11  A    between atoms: C_26  and  C_27
REMARK   12  A    between atoms: C_30  and  N_38
REMARK   13  A    between atoms: C_32  and  O_34
REMARK   14  A    between atoms: C_35  and  O_37
REMARK   15  A    between atoms: C_42  and  C_44
REMARK   16  A    between atoms: C_44  and  O_45
REMARK   17  A    between atoms: C_47  and  O_49
REMARK   18  A    between atoms: C_50  and  O_52
REMARK                            x       y       z     vdW  Elec       q    Type
REMARK                         _______ _______ _______ _____ _____    ______ ____
ROOT
ATOM      1  P   UNL     1       9.395  -1.168  22.907  0.00  0.00    +0.483 P 
ATOM      2  O   UNL     1      10.579  -0.359  23.430  0.00  0.00    -0.227 OA
ENDROOT
BRANCH   1   3
ATOM      3  O   UNL     1      10.302  -1.520  21.475  0.00  0.00    -0.302 OA
ATOM      4  H   UNL     1      11.065  -0.917  21.419  0.00  0.00    +0.222 HD
ENDBRANCH   1   3
BRANCH   1   5
ATOM      5  O   UNL     1       8.489  -0.816  24.337  0.00  0.00    -0.186 OA
BRANCH   5   6
ATOM      6  P   UNL     1       7.296   0.386  23.983  0.00  0.00    +0.483 P 
ATOM      7  O   UNL     1       6.825   0.284  25.444  0.00  0.00    -0.227 OA
BRANCH   6   8
ATOM      8  O   UNL     1       6.404  -0.740  23.204  0.00  0.00    -0.302 OA
ATOM      9  H   UNL     1       5.680  -0.303  22.712  0.00  0.00    +0.222 HD
ENDBRANCH   6   8
BRANCH   6  10
ATOM     10  O   UNL     1       6.104   1.589  23.629  0.00  0.00    -0.284 OA
BRANCH  10  11
ATOM     11  C   UNL     1       6.419   2.517  22.589  0.00  0.00    +0.206 C 
BRANCH  11  12
ATOM     12  C   UNL     1       6.496   3.966  23.071  0.00  0.00    +0.183 C 
ATOM     13  C   UNL     1       6.280   4.134  24.575  0.00  0.00    +0.183 C 
ATOM     14  C   UNL     1       7.684   4.138  25.180  0.00  0.00    +0.244 C 
ATOM     15  C   UNL     1       8.616   4.082  23.968  0.00  0.00    +0.439 C 
ATOM     16  O   UNL     1       7.834   4.474  22.834  0.00  0.00    -0.309 OA
BRANCH  15  17
ATOM     17  N   UNL     1       9.793   4.962  24.188  0.00  0.00    -0.173 N 
ATOM     18  C   UNL     1      10.918   4.812  23.454  0.00  0.00    +0.326 A 
ATOM     19  C   UNL     1      12.023   5.651  23.645  0.00  0.00    +0.122 A 
ATOM     20  C   UNL     1      11.946   6.658  24.606  0.00  0.00    +0.027 A 
ATOM     21  C   UNL     1      10.784   6.786  25.364  0.00  0.00    +0.071 A 
ATOM     22  C   UNL     1       9.723   5.914  25.151  0.00  0.00    +0.311 A 
BRANCH  19  23
ATOM     23  C   UNL     1      13.196   5.374  22.782  0.00  0.00    +0.343 C 
ATOM     24  O   UNL     1      13.118   5.556  21.578  0.00  0.00    -0.245 OA
BRANCH  23  25
ATOM     25  O   UNL     1      14.309   4.922  23.377  0.00  0.00    -0.477 OA
ATOM     26  H   UNL     1      15.044   4.556  22.858  0.00  0.00    +0.295 HD
ENDBRANCH  23  25
ENDBRANCH  19  23
ENDBRANCH  15  17
BRANCH  14  27
ATOM     27  O   UNL     1       7.956   3.043  26.050  0.00  0.00    -0.380 OA
ATOM     28  H   UNL     1       7.121   2.545  26.173  0.00  0.00    +0.210 HD
ENDBRANCH  14  27
BRANCH  13  29
ATOM     29  O   UNL     1       5.735   5.429  24.872  0.00  0.00    -0.386 OA
ATOM     30  H   UNL     1       5.996   5.721  25.766  0.00  0.00    +0.210 HD
ENDBRANCH  13  29
ENDBRANCH  11  12
ENDBRANCH  10  11
ENDBRANCH   6  10
ENDBRANCH   5   6
ENDBRANCH   1   5
BRANCH   1  31
ATOM     31  O   UNL     1       9.538  -2.759  23.368  0.00  0.00    -0.284 OA
BRANCH  31  32
ATOM     32  C   UNL     1       8.501  -3.670  22.975  0.00  0.00    +0.206 C 
BRANCH  32  36
ATOM     33  C   UNL     1       6.149  -3.782  25.752  0.00  0.00    +0.253 C 
ATOM     34  C   UNL     1       7.487  -3.618  26.482  0.00  0.00    +0.195 C 
ATOM     35  C   UNL     1       8.532  -4.063  25.459  0.00  0.00    +0.178 C 
ATOM     36  C   UNL     1       7.735  -4.244  24.158  0.00  0.00    +0.178 C 
ATOM     37  O   UNL     1       6.479  -3.575  24.352  0.00  0.00    -0.346 OA
BRANCH  33  45
ATOM     38  N   UNL     1       2.527  -8.657  25.453  0.00  0.00    -0.341 N 
ATOM     39  H   UNL     1       3.239  -9.186  25.939  0.00  0.00    +0.144 HD
ATOM     40  H   UNL     1       2.035  -9.128  24.703  0.00  0.00    +0.144 HD
ATOM     41  C   UNL     1       2.971  -7.403  25.039  0.00  0.00    +0.147 A 
ATOM     42  C   UNL     1       4.046  -6.718  25.638  0.00  0.00    +0.147 A 
ATOM     43  N   UNL     1       4.881  -7.032  26.692  0.00  0.00    -0.231 NA
ATOM     44  C   UNL     1       5.694  -6.001  26.787  0.00  0.00    +0.203 A 
ATOM     45  N   UNL     1       5.421  -5.031  25.850  0.00  0.00    -0.286 N 
ATOM     46  C   UNL     1       4.374  -5.482  25.099  0.00  0.00    +0.167 A 
ATOM     47  N   UNL     1       3.779  -4.888  24.056  0.00  0.00    -0.216 NA
ATOM     48  C   UNL     1       2.768  -5.625  23.568  0.00  0.00    +0.225 A 
ATOM     49  N   UNL     1       2.343  -6.833  23.988  0.00  0.00    -0.219 NA
ENDBRANCH  33  45
BRANCH  35  50
ATOM     50  O   UNL     1       9.166  -5.282  25.830  0.00  0.00    -0.386 OA
ATOM     51  H   UNL     1       8.519  -5.838  26.299  0.00  0.00    +0.210 HD
ENDBRANCH  35  50
BRANCH  34  52
ATOM     52  O   UNL     1       7.700  -2.223  26.788  0.00  0.00    -0.385 OA
ATOM     53  H   UNL     1       8.649  -2.018  26.683  0.00  0.00    +0.210 HD
ENDBRANCH  34  52
ENDBRANCH  32  36
ENDBRANCH  31  32
ENDBRANCH   1  31
TORSDOF 18
ENDMDL
MODEL 4
REMARK VINA RESULT:      -8.3      3.947      8.249
REMARK  Name = 
REMARK  18 active torsions:
REMARK  status: ('A' for Active; 'I' for Inactive)
REMARK    1  A    between atoms: N_10  and  C_11
REMARK    2  A    between atoms: C_14  and  C_16
REMARK    3  A    between atoms: C_16  and  O_17
REMARK    4  A    between atoms: O_17  and  P_18
REMARK    5  A    between atoms: P_18  and  O_19
REMARK    6  A    between atoms: P_18  and  O_21
REMARK    7  A    between atoms: O_21  and  P_22
REMARK    8  A    between atoms: P_22  and  O_23
REMARK    9  A    between atoms: P_22  and  O_25
REMARK   10  A    between atoms: O_25  and  C_26
REMARK   11  A    between atoms: C_26  and  C_27
REMARK   12  A    between atoms: C_30  and  N_38
REMARK   13  A    between atoms: C_32  and  O_34
REMARK   14  A    between atoms: C_35  and  O_37
REMARK   15  A    between atoms: C_42  and  C_44
REMARK   16  A    between atoms: C_44  and  O_45
REMARK   17  A    between atoms: C_47  and  O_49
REMARK   18  A    between atoms: C_50  and  O_52
REMARK                            x       y       z     vdW  Elec       q    Type
REMARK                         _______ _______ _______ _____ _____    ______ ____
ROOT
ATOM      1  P   UNL     1       6.631   3.833  23.260  0.00  0.00    +0.483 P 
ATOM      2  O   UNL     1       7.593   4.464  22.257  0.00  0.00    -0.227 OA
ENDROOT
BRANCH   1   3
ATOM      3  O   UNL     1       5.467   3.657  21.991  0.00  0.00    -0.302 OA
ATOM      4  H   UNL     1       4.675   3.207  22.339  0.00  0.00    +0.222 HD
ENDBRANCH   1   3
BRANCH   1   5
ATOM      5  O   UNL     1       7.795   4.009  24.527  0.00  0.00    -0.186 OA
BRANCH   5   6
ATOM      6  P   UNL     1       7.092   3.515  26.028  0.00  0.00    +0.483 P 
ATOM      7  O   UNL     1       7.972   4.562  26.733  0.00  0.00    -0.227 OA
BRANCH   6   8
ATOM      8  O   UNL     1       8.021   2.170  26.012  0.00  0.00    -0.302 OA
ATOM      9  H   UNL     1       7.933   1.721  25.148  0.00  0.00    +0.222 HD
ENDBRANCH   6   8
BRANCH   6  10
ATOM     10  O   UNL     1       6.387   3.021  27.529  0.00  0.00    -0.284 OA
BRANCH  10  11
ATOM     11  C   UNL     1       6.630   1.674  27.940  0.00  0.00    +0.206 C 
BRANCH  11  12
ATOM     12  C   UNL     1       5.354   0.841  28.072  0.00  0.00    +0.183 C 
ATOM     13  C   UNL     1       4.367   1.025  26.919  0.00  0.00    +0.183 C 
ATOM     14  C   UNL     1       4.685  -0.104  25.940  0.00  0.00    +0.244 C 
ATOM     15  C   UNL     1       5.762  -0.927  26.650  0.00  0.00    +0.439 C 
ATOM     16  O   UNL     1       5.702  -0.568  28.036  0.00  0.00    -0.309 OA
BRANCH  15  17
ATOM     17  N   UNL     1       5.530  -2.377  26.421  0.00  0.00    -0.173 N 
ATOM     18  C   UNL     1       6.383  -3.302  26.917  0.00  0.00    +0.326 A 
ATOM     19  C   UNL     1       6.159  -4.670  26.719  0.00  0.00    +0.122 A 
ATOM     20  C   UNL     1       5.031  -5.073  26.006  0.00  0.00    +0.027 A 
ATOM     21  C   UNL     1       4.174  -4.103  25.489  0.00  0.00    +0.071 A 
ATOM     22  C   UNL     1       4.452  -2.757  25.693  0.00  0.00    +0.311 A 
BRANCH  19  23
ATOM     23  C   UNL     1       7.174  -5.578  27.305  0.00  0.00    +0.343 C 
ATOM     24  O   UNL     1       7.010  -6.024  28.429  0.00  0.00    -0.245 OA
BRANCH  23  25
ATOM     25  O   UNL     1       8.249  -5.868  26.560  0.00  0.00    -0.477 OA
ATOM     26  H   UNL     1       8.618  -6.766  26.534  0.00  0.00    +0.295 HD
ENDBRANCH  23  25
ENDBRANCH  19  23
ENDBRANCH  15  17
BRANCH  14  27
ATOM     27  O   UNL     1       5.168   0.330  24.671  0.00  0.00    -0.380 OA
ATOM     28  H   UNL     1       5.380  -0.468  24.144  0.00  0.00    +0.210 HD
ENDBRANCH  14  27
BRANCH  13  29
ATOM     29  O   UNL     1       3.021   0.783  27.355  0.00  0.00    -0.386 OA
ATOM     30  H   UNL     1       2.404   1.426  26.958  0.00  0.00    +0.210 HD
ENDBRANCH  13  29
ENDBRANCH  11  12
ENDBRANCH  10  11
ENDBRANCH   6  10
ENDBRANCH   5   6
ENDBRANCH   1   5
BRANCH   1  31
ATOM     31  O   UNL     1       6.829   2.182  23.283  0.00  0.00    -0.284 OA
BRANCH  31  32
ATOM     32  C   UNL     1       7.725   1.597  22.327  0.00  0.00    +0.206 C 
BRANCH  32  36
ATOM     33  C   UNL     1       8.743  -1.027  24.636  0.00  0.00    +0.253 C 
ATOM     34  C   UNL     1      10.084  -0.357  24.314  0.00  0.00    +0.195 C 
ATOM     35  C   UNL     1       9.826   0.393  23.007  0.00  0.00    +0.178 C 
ATOM     36  C   UNL     1       8.310   0.272  22.793  0.00  0.00    +0.178 C 
ATOM     37  O   UNL     1       7.752  -0.140  24.052  0.00  0.00    -0.346 OA
BRANCH  33  45
ATOM     38  N   UNL     1       6.767  -6.266  22.265  0.00  0.00    -0.341 N 
ATOM     39  H   UNL     1       7.713  -6.622  22.324  0.00  0.00    +0.144 HD
ATOM     40  H   UNL     1       6.233  -6.513  21.439  0.00  0.00    +0.144 HD
ATOM     41  C   UNL     1       6.686  -4.898  22.513  0.00  0.00    +0.147 A 
ATOM     42  C   UNL     1       7.644  -4.181  23.255  0.00  0.00    +0.147 A 
ATOM     43  N   UNL     1       8.808  -4.562  23.894  0.00  0.00    -0.231 NA
ATOM     44  C   UNL     1       9.277  -3.449  24.417  0.00  0.00    +0.203 A 
ATOM     45  N   UNL     1       8.471  -2.366  24.154  0.00  0.00    -0.286 N 
ATOM     46  C   UNL     1       7.425  -2.818  23.401  0.00  0.00    +0.167 A 
ATOM     47  N   UNL     1       6.403  -2.119  22.890  0.00  0.00    -0.216 NA
ATOM     48  C   UNL     1       5.551  -2.901  22.207  0.00  0.00    +0.225 A 
ATOM     49  N   UNL     1       5.639  -4.228  21.986  0.00  0.00    -0.219 NA
ENDBRANCH  33  45
BRANCH  35  50
ATOM     50  O   UNL     1      10.533  -0.175  21.911  0.00  0.00    -0.386 OA
ATOM     51  H   UNL     1      11.358   0.324  21.782  0.00  0.00    +0.210 HD
ENDBRANCH  35  50
BRANCH  34  52
ATOM     52  O   UNL     1      10.402   0.602  25.346  0.00  0.00    -0.385 OA
ATOM     53  H   UNL     1      11.373   0.667  25.428  0.00  0.00    +0.210 HD
ENDBRANCH  34  52
ENDBRANCH  32  36
ENDBRANCH  31  32
ENDBRANCH   1  31
TORSDOF 18
ENDMDL
MODEL 5
REMARK VINA RESULT:      -8.3      4.203      9.030
REMARK  Name = 
REMARK  18 active torsions:
REMARK  status: ('A' for Active; 'I' for Inactive)
REMARK    1  A    between atoms: N_10  and  C_11
REMARK    2  A    between atoms: C_14  and  C_16
REMARK    3  A    between atoms: C_16  and  O_17
REMARK    4  A    between atoms: O_17  and  P_18
REMARK    5  A    between atoms: P_18  and  O_19
REMARK    6  A    between atoms: P_18  and  O_21
REMARK    7  A    between atoms: O_21  and  P_22
REMARK    8  A    between atoms: P_22  and  O_23
REMARK    9  A    between atoms: P_22  and  O_25
REMARK   10  A    between atoms: O_25  and  C_26
REMARK   11  A    between atoms: C_26  and  C_27
REMARK   12  A    between atoms: C_30  and  N_38
REMARK   13  A    between atoms: C_32  and  O_34
REMARK   14  A    between atoms: C_35  and  O_37
REMARK   15  A    between atoms: C_42  and  C_44
REMARK   16  A    between atoms: C_44  and  O_45
REMARK   17  A    between atoms: C_47  and  O_49
REMARK   18  A    between atoms: C_50  and  O_52
REMARK                            x       y       z     vdW  Elec       q    Type
REMARK                         _______ _______ _______ _____ _____    ______ ____
ROOT
ATOM      1  P   UNL     1       5.972  -5.685  28.161  0.00  0.00    +0.483 P 
ATOM      2  O   UNL     1       5.557  -6.978  27.465  0.00  0.00    -0.227 OA
ENDROOT
BRANCH   1   3
ATOM      3  O   UNL     1       7.621  -6.033  27.766  0.00  0.00    -0.302 OA
ATOM      4  H   UNL     1       8.169  -5.245  27.939  0.00  0.00    +0.222 HD
ENDBRANCH   1   3
BRANCH   1   5
ATOM      5  O   UNL     1       4.325  -5.337  28.557  0.00  0.00    -0.186 OA
BRANCH   5   6
ATOM      6  P   UNL     1       3.298  -6.538  27.853  0.00  0.00    +0.483 P 
ATOM      7  O   UNL     1       2.090  -5.664  28.235  0.00  0.00    -0.227 OA
BRANCH   6   8
ATOM      8  O   UNL     1       3.523  -7.488  29.164  0.00  0.00    -0.302 OA
ATOM      9  H   UNL     1       2.839  -7.290  29.835  0.00  0.00    +0.222 HD
ENDBRANCH   6   8
BRANCH   6  10
ATOM     10  O   UNL     1       2.271  -7.739  27.149  0.00  0.00    -0.284 OA
BRANCH  10  11
ATOM     11  C   UNL     1       1.601  -7.381  25.938  0.00  0.00    +0.206 C 
BRANCH  11  12
ATOM     12  C   UNL     1       2.252  -7.974  24.687  0.00  0.00    +0.183 C 
ATOM     13  C   UNL     1       1.675  -7.444  23.374  0.00  0.00    +0.183 C 
ATOM     14  C   UNL     1       2.592  -6.286  22.977  0.00  0.00    +0.244 C 
ATOM     15  C   UNL     1       3.697  -6.302  24.035  0.00  0.00    +0.439 C 
ATOM     16  O   UNL     1       3.651  -7.593  24.654  0.00  0.00    -0.309 OA
BRANCH  15  17
ATOM     17  N   UNL     1       5.011  -6.013  23.403  0.00  0.00    -0.173 N 
ATOM     18  C   UNL     1       6.088  -5.696  24.157  0.00  0.00    +0.326 A 
ATOM     19  C   UNL     1       7.332  -5.441  23.567  0.00  0.00    +0.122 A 
ATOM     20  C   UNL     1       7.452  -5.527  22.181  0.00  0.00    +0.027 A 
ATOM     21  C   UNL     1       6.327  -5.839  21.421  0.00  0.00    +0.071 A 
ATOM     22  C   UNL     1       5.108  -6.061  22.052  0.00  0.00    +0.311 A 
BRANCH  19  23
ATOM     23  C   UNL     1       8.428  -5.095  24.505  0.00  0.00    +0.343 C 
ATOM     24  O   UNL     1       9.516  -5.634  24.389  0.00  0.00    -0.245 OA
BRANCH  23  25
ATOM     25  O   UNL     1       8.163  -4.191  25.459  0.00  0.00    -0.477 OA
ATOM     26  H   UNL     1       8.186  -3.239  25.270  0.00  0.00    +0.295 HD
ENDBRANCH  23  25
ENDBRANCH  19  23
ENDBRANCH  15  17
BRANCH  14  27
ATOM     27  O   UNL     1       1.959  -5.010  22.959  0.00  0.00    -0.380 OA
ATOM     28  H   UNL     1       1.082  -5.118  22.535  0.00  0.00    +0.210 HD
ENDBRANCH  14  27
BRANCH  13  29
ATOM     29  O   UNL     1       1.814  -8.415  22.326  0.00  0.00    -0.386 OA
ATOM     30  H   UNL     1       1.311  -8.148  21.534  0.00  0.00    +0.210 HD
ENDBRANCH  13  29
ENDBRANCH  11  12
ENDBRANCH  10  11
ENDBRANCH   6  10
ENDBRANCH   5   6
ENDBRANCH   1   5
BRANCH   1  31
ATOM     31  O   UNL     1       5.995  -4.428  27.073  0.00  0.00    -0.284 OA
BRANCH  31  32
ATOM     32  C   UNL     1       5.318  -3.214  27.432  0.00  0.00    +0.206 C 
BRANCH  32  36
ATOM     33  C   UNL     1       7.391  -0.370  26.499  0.00  0.00    +0.253 C 
ATOM     34  C   UNL     1       6.184   0.322  27.141  0.00  0.00    +0.195 C 
ATOM     35  C   UNL     1       5.077  -0.733  27.096  0.00  0.00    +0.178 C 
ATOM     36  C   UNL     1       5.791  -2.011  26.629  0.00  0.00    +0.178 C 
ATOM     37  O   UNL     1       7.198  -1.778  26.801  0.00  0.00    -0.346 OA
BRANCH  33  45
ATOM     38  N   UNL     1       9.118  -0.452  20.670  0.00  0.00    -0.341 N 
ATOM     39  H   UNL     1       8.187  -0.146  20.415  0.00  0.00    +0.144 HD
ATOM     40  H   UNL     1       9.556  -1.142  20.071  0.00  0.00    +0.144 HD
ATOM     41  C   UNL     1       9.218  -0.826  22.007  0.00  0.00    +0.147 A 
ATOM     42  C   UNL     1       8.347  -0.368  23.014  0.00  0.00    +0.147 A 
ATOM     43  N   UNL     1       7.265   0.491  22.993  0.00  0.00    -0.231 NA
ATOM     44  C   UNL     1       6.851   0.532  24.242  0.00  0.00    +0.203 A 
ATOM     45  N   UNL     1       7.616  -0.255  25.073  0.00  0.00    -0.286 N 
ATOM     46  C   UNL     1       8.572  -0.847  24.297  0.00  0.00    +0.167 A 
ATOM     47  N   UNL     1       9.525  -1.713  24.665  0.00  0.00    -0.216 NA
ATOM     48  C   UNL     1      10.299  -2.078  23.630  0.00  0.00    +0.225 A 
ATOM     49  N   UNL     1      10.195  -1.697  22.342  0.00  0.00    -0.219 NA
ENDBRANCH  33  45
BRANCH  35  50
ATOM     50  O   UNL     1       4.036  -0.383  26.192  0.00  0.00    -0.386 OA
ATOM     51  H   UNL     1       3.599  -1.199  25.892  0.00  0.00    +0.210 HD
ENDBRANCH  35  50
BRANCH  34  52
ATOM     52  O   UNL     1       6.481   0.625  28.521  0.00  0.00    -0.385 OA
ATOM     53  H   UNL     1       6.057   1.473  28.757  0.00  0.00    +0.210 HD
ENDBRANCH  34  52
ENDBRANCH  32  36
ENDBRANCH  31  32
ENDBRANCH   1  31
TORSDOF 18
ENDMDL
MODEL 6
REMARK VINA RESULT:      -8.2      2.152      3.947
REMARK  Name = 
REMARK  18 active torsions:
REMARK  status: ('A' for Active; 'I' for Inactive)
REMARK    1  A    between atoms: N_10  and  C_11
REMARK    2  A    between atoms: C_14  and  C_16
REMARK    3  A    between atoms: C_16  and  O_17
REMARK    4  A    between atoms: O_17  and  P_18
REMARK    5  A    between atoms: P_18  and  O_19
REMARK    6  A    between atoms: P_18  and  O_21
REMARK    7  A    between atoms: O_21  and  P_22
REMARK    8  A    between atoms: P_22  and  O_23
REMARK    9  A    between atoms: P_22  and  O_25
REMARK   10  A    between atoms: O_25  and  C_26
REMARK   11  A    between atoms: C_26  and  C_27
REMARK   12  A    between atoms: C_30  and  N_38
REMARK   13  A    between atoms: C_32  and  O_34
REMARK   14  A    between atoms: C_35  and  O_37
REMARK   15  A    between atoms: C_42  and  C_44
REMARK   16  A    between atoms: C_44  and  O_45
REMARK   17  A    between atoms: C_47  and  O_49
REMARK   18  A    between atoms: C_50  and  O_52
REMARK                            x       y       z     vdW  Elec       q    Type
REMARK                         _______ _______ _______ _____ _____    ______ ____
ROOT
ATOM      1  P   UNL     1       6.374  -3.784  22.947  0.00  0.00    +0.483 P 
ATOM      2  O   UNL     1       7.263  -2.689  22.365  0.00  0.00    -0.227 OA
ENDROOT
BRANCH   1   3
ATOM      3  O   UNL     1       5.050  -3.166  22.020  0.00  0.00    -0.302 OA
ATOM      4  H   UNL     1       5.131  -3.470  21.098  0.00  0.00    +0.222 HD
ENDBRANCH   1   3
BRANCH   1   5
ATOM      5  O   UNL     1       7.698  -4.402  23.874  0.00  0.00    -0.186 OA
BRANCH   5   6
ATOM      6  P   UNL     1       8.528  -3.090  24.638  0.00  0.00    +0.483 P 
ATOM      7  O   UNL     1       9.855  -3.746  24.220  0.00  0.00    -0.227 OA
BRANCH   6   8
ATOM      8  O   UNL     1       8.209  -3.750  26.099  0.00  0.00    -0.302 OA
ATOM      9  H   UNL     1       8.821  -3.380  26.767  0.00  0.00    +0.222 HD
ENDBRANCH   6   8
BRANCH   6  10
ATOM     10  O   UNL     1       9.358  -1.778  25.402  0.00  0.00    -0.284 OA
BRANCH  10  11
ATOM     11  C   UNL     1       8.936  -0.459  25.048  0.00  0.00    +0.206 C 
BRANCH  11  12
ATOM     12  C   UNL     1       9.763   0.160  23.920  0.00  0.00    +0.183 C 
ATOM     13  C   UNL     1       8.939   0.583  22.703  0.00  0.00    +0.183 C 
ATOM     14  C   UNL     1       8.629   2.062  22.929  0.00  0.00    +0.244 C 
ATOM     15  C   UNL     1       9.391   2.416  24.208  0.00  0.00    +0.439 C 
ATOM     16  O   UNL     1      10.371   1.388  24.397  0.00  0.00    -0.309 OA
BRANCH  15  17
ATOM     17  N   UNL     1       9.993   3.769  24.086  0.00  0.00    -0.173 N 
ATOM     18  C   UNL     1      11.194   3.942  23.489  0.00  0.00    +0.326 A 
ATOM     19  C   UNL     1      11.757   5.218  23.356  0.00  0.00    +0.122 A 
ATOM     20  C   UNL     1      11.054   6.319  23.843  0.00  0.00    +0.027 A 
ATOM     21  C   UNL     1       9.826   6.118  24.469  0.00  0.00    +0.071 A 
ATOM     22  C   UNL     1       9.320   4.829  24.597  0.00  0.00    +0.311 A 
BRANCH  19  23
ATOM     23  C   UNL     1      13.082   5.268  22.691  0.00  0.00    +0.343 C 
ATOM     24  O   UNL     1      13.163   5.638  21.532  0.00  0.00    -0.245 OA
BRANCH  23  25
ATOM     25  O   UNL     1      14.148   4.892  23.410  0.00  0.00    -0.477 OA
ATOM     26  H   UNL     1      14.874   4.387  23.008  0.00  0.00    +0.295 HD
ENDBRANCH  23  25
ENDBRANCH  19  23
ENDBRANCH  15  17
BRANCH  14  27
ATOM     27  O   UNL     1       7.245   2.359  23.093  0.00  0.00    -0.380 OA
ATOM     28  H   UNL     1       7.002   3.026  22.418  0.00  0.00    +0.210 HD
ENDBRANCH  14  27
BRANCH  13  29
ATOM     29  O   UNL     1       9.733   0.539  21.508  0.00  0.00    -0.386 OA
ATOM     30  H   UNL     1      10.227  -0.300  21.447  0.00  0.00    +0.210 HD
ENDBRANCH  13  29
ENDBRANCH  11  12
ENDBRANCH  10  11
ENDBRANCH   6  10
ENDBRANCH   5   6
ENDBRANCH   1   5
BRANCH   1  31
ATOM     31  O   UNL     1       6.407  -5.130  21.972  0.00  0.00    -0.284 OA
BRANCH  31  32
ATOM     32  C   UNL     1       5.916  -6.366  22.513  0.00  0.00    +0.206 C 
BRANCH  32  36
ATOM     33  C   UNL     1       3.772  -7.219  25.329  0.00  0.00    +0.253 C 
ATOM     34  C   UNL     1       2.758  -7.117  24.185  0.00  0.00    +0.195 C 
ATOM     35  C   UNL     1       3.475  -6.290  23.118  0.00  0.00    +0.178 C 
ATOM     36  C   UNL     1       4.914  -6.164  23.641  0.00  0.00    +0.178 C 
ATOM     37  O   UNL     1       5.064  -7.157  24.668  0.00  0.00    -0.346 OA
BRANCH  33  45
ATOM     38  N   UNL     1       4.470  -3.608  30.172  0.00  0.00    -0.341 N 
ATOM     39  H   UNL     1       4.008  -2.869  29.657  0.00  0.00    +0.144 HD
ATOM     40  H   UNL     1       5.260  -3.342  30.749  0.00  0.00    +0.144 HD
ATOM     41  C   UNL     1       4.789  -4.705  29.375  0.00  0.00    +0.147 A 
ATOM     42  C   UNL     1       4.125  -5.018  28.174  0.00  0.00    +0.147 A 
ATOM     43  N   UNL     1       3.079  -4.416  27.501  0.00  0.00    -0.231 NA
ATOM     44  C   UNL     1       2.899  -5.165  26.434  0.00  0.00    +0.203 A 
ATOM     45  N   UNL     1       3.773  -6.226  26.385  0.00  0.00    -0.286 N 
ATOM     46  C   UNL     1       4.573  -6.139  27.489  0.00  0.00    +0.167 A 
ATOM     47  N   UNL     1       5.583  -6.939  27.851  0.00  0.00    -0.216 NA
ATOM     48  C   UNL     1       6.140  -6.552  29.011  0.00  0.00    +0.225 A 
ATOM     49  N   UNL     1       5.811  -5.493  29.776  0.00  0.00    -0.219 NA
ENDBRANCH  33  45
BRANCH  35  50
ATOM     50  O   UNL     1       2.890  -5.004  22.948  0.00  0.00    -0.386 OA
ATOM     51  H   UNL     1       2.120  -5.089  22.361  0.00  0.00    +0.210 HD
ENDBRANCH  35  50
BRANCH  34  52
ATOM     52  O   UNL     1       2.496  -8.434  23.655  0.00  0.00    -0.385 OA
ATOM     53  H   UNL     1       1.835  -8.361  22.940  0.00  0.00    +0.210 HD
ENDBRANCH  34  52
ENDBRANCH  32  36
ENDBRANCH  31  32
ENDBRANCH   1  31
TORSDOF 18
ENDMDL
MODEL 7
REMARK VINA RESULT:      -8.2      3.790      8.308
REMARK  Name = 
REMARK  18 active torsions:
REMARK  status: ('A' for Active; 'I' for Inactive)
REMARK    1  A    between atoms: N_10  and  C_11
REMARK    2  A    between atoms: C_14  and  C_16
REMARK    3  A    between atoms: C_16  and  O_17
REMARK    4  A    between atoms: O_17  and  P_18
REMARK    5  A    between atoms: P_18  and  O_19
REMARK    6  A    between atoms: P_18  and  O_21
REMARK    7  A    between atoms: O_21  and  P_22
REMARK    8  A    between atoms: P_22  and  O_23
REMARK    9  A    between atoms: P_22  and  O_25
REMARK   10  A    between atoms: O_25  and  C_26
REMARK   11  A    between atoms: C_26  and  C_27
REMARK   12  A    between atoms: C_30  and  N_38
REMARK   13  A    between atoms: C_32  and  O_34
REMARK   14  A    between atoms: C_35  and  O_37
REMARK   15  A    between atoms: C_42  and  C_44
REMARK   16  A    between atoms: C_44  and  O_45
REMARK   17  A    between atoms: C_47  and  O_49
REMARK   18  A    between atoms: C_50  and  O_52
REMARK                            x       y       z     vdW  Elec       q    Type
REMARK                         _______ _______ _______ _____ _____    ______ ____
ROOT
ATOM      1  P   UNL     1       6.890   3.613  22.645  0.00  0.00    +0.483 P 
ATOM      2  O   UNL     1       6.970   3.237  24.122  0.00  0.00    -0.227 OA
ENDROOT
BRANCH   1   3
ATOM      3  O   UNL     1       8.583   3.971  22.671  0.00  0.00    -0.302 OA
ATOM      4  H   UNL     1       8.968   3.780  21.796  0.00  0.00    +0.222 HD
ENDBRANCH   1   3
BRANCH   1   5
ATOM      5  O   UNL     1       5.198   3.255  22.619  0.00  0.00    -0.186 OA
BRANCH   5   6
ATOM      6  P   UNL     1       4.625   3.062  24.239  0.00  0.00    +0.483 P 
ATOM      7  O   UNL     1       3.243   2.710  23.660  0.00  0.00    -0.227 OA
BRANCH   6   8
ATOM      8  O   UNL     1       4.576   4.687  24.407  0.00  0.00    -0.302 OA
ATOM      9  H   UNL     1       5.469   5.022  24.626  0.00  0.00    +0.222 HD
ENDBRANCH   6   8
BRANCH   6  10
ATOM     10  O   UNL     1       4.051   2.868  25.860  0.00  0.00    -0.284 OA
BRANCH  10  11
ATOM     11  C   UNL     1       3.887   1.527  26.326  0.00  0.00    +0.206 C 
BRANCH  11  12
ATOM     12  C   UNL     1       5.190   0.727  26.343  0.00  0.00    +0.183 C 
ATOM     13  C   UNL     1       5.624   0.272  27.736  0.00  0.00    +0.183 C 
ATOM     14  C   UNL     1       5.064  -1.143  27.885  0.00  0.00    +0.244 C 
ATOM     15  C   UNL     1       4.440  -1.445  26.521  0.00  0.00    +0.439 C 
ATOM     16  O   UNL     1       5.000  -0.504  25.598  0.00  0.00    -0.309 OA
BRANCH  15  17
ATOM     17  N   UNL     1       4.709  -2.856  26.139  0.00  0.00    -0.173 N 
ATOM     18  C   UNL     1       5.726  -3.545  26.704  0.00  0.00    +0.326 A 
ATOM     19  C   UNL     1       5.972  -4.880  26.360  0.00  0.00    +0.122 A 
ATOM     20  C   UNL     1       5.144  -5.500  25.425  0.00  0.00    +0.027 A 
ATOM     21  C   UNL     1       4.112  -4.767  24.842  0.00  0.00    +0.071 A 
ATOM     22  C   UNL     1       3.922  -3.437  25.201  0.00  0.00    +0.311 A 
BRANCH  19  23
ATOM     23  C   UNL     1       7.123  -5.518  27.044  0.00  0.00    +0.343 C 
ATOM     24  O   UNL     1       7.023  -5.848  28.214  0.00  0.00    -0.245 OA
BRANCH  23  25
ATOM     25  O   UNL     1       8.243  -5.700  26.331  0.00  0.00    -0.477 OA
ATOM     26  H   UNL     1       9.076  -5.959  26.759  0.00  0.00    +0.295 HD
ENDBRANCH  23  25
ENDBRANCH  19  23
ENDBRANCH  15  17
BRANCH  14  27
ATOM     27  O   UNL     1       4.082  -1.287  28.908  0.00  0.00    -0.380 OA
ATOM     28  H   UNL     1       3.887  -0.394  29.260  0.00  0.00    +0.210 HD
ENDBRANCH  14  27
BRANCH  13  29
ATOM     29  O   UNL     1       7.050   0.125  27.806  0.00  0.00    -0.386 OA
ATOM     30  H   UNL     1       7.496   0.760  27.214  0.00  0.00    +0.210 HD
ENDBRANCH  13  29
ENDBRANCH  11  12
ENDBRANCH  10  11
ENDBRANCH   6  10
ENDBRANCH   5   6
ENDBRANCH   1   5
BRANCH   1  31
ATOM     31  O   UNL     1       7.204   2.283  21.697  0.00  0.00    -0.284 OA
BRANCH  31  32
ATOM     32  C   UNL     1       8.541   1.761  21.690  0.00  0.00    +0.206 C 
BRANCH  32  36
ATOM     33  C   UNL     1       7.854  -0.599  24.375  0.00  0.00    +0.253 C 
ATOM     34  C   UNL     1       9.079   0.143  24.919  0.00  0.00    +0.195 C 
ATOM     35  C   UNL     1       9.719   0.772  23.681  0.00  0.00    +0.178 C 
ATOM     36  C   UNL     1       8.699   0.522  22.560  0.00  0.00    +0.178 C 
ATOM     37  O   UNL     1       7.465   0.165  23.203  0.00  0.00    -0.346 OA
BRANCH  33  45
ATOM     38  N   UNL     1       7.484  -6.279  22.235  0.00  0.00    -0.341 N 
ATOM     39  H   UNL     1       8.473  -6.387  22.419  0.00  0.00    +0.144 HD
ATOM     40  H   UNL     1       7.127  -6.692  21.381  0.00  0.00    +0.144 HD
ATOM     41  C   UNL     1       7.050  -4.962  22.365  0.00  0.00    +0.147 A 
ATOM     42  C   UNL     1       7.712  -3.993  23.143  0.00  0.00    +0.147 A 
ATOM     43  N   UNL     1       8.849  -4.043  23.926  0.00  0.00    -0.231 NA
ATOM     44  C   UNL     1       8.973  -2.823  24.405  0.00  0.00    +0.203 A 
ATOM     45  N   UNL     1       7.969  -1.987  23.975  0.00  0.00    -0.286 N 
ATOM     46  C   UNL     1       7.159  -2.721  23.156  0.00  0.00    +0.167 A 
ATOM     47  N   UNL     1       6.068  -2.323  22.490  0.00  0.00    -0.216 NA
ATOM     48  C   UNL     1       5.515  -3.325  21.787  0.00  0.00    +0.225 A 
ATOM     49  N   UNL     1       5.943  -4.599  21.681  0.00  0.00    -0.219 NA
ENDBRANCH  33  45
BRANCH  35  50
ATOM     50  O   UNL     1      10.971   0.179  23.360  0.00  0.00    -0.386 OA
ATOM     51  H   UNL     1      11.011   0.041  22.398  0.00  0.00    +0.210 HD
ENDBRANCH  35  50
BRANCH  34  52
ATOM     52  O   UNL     1       8.648   1.197  25.807  0.00  0.00    -0.385 OA
ATOM     53  H   UNL     1       9.167   2.003  25.616  0.00  0.00    +0.210 HD
ENDBRANCH  34  52
ENDBRANCH  32  36
ENDBRANCH  31  32
ENDBRANCH   1  31
TORSDOF 18
ENDMDL
MODEL 8
REMARK VINA RESULT:      -8.1      3.200      6.100
REMARK  Name = 
REMARK  18 active torsions:
REMARK  status: ('A' for Active; 'I' for Inactive)
REMARK    1  A    between atoms: N_10  and  C_11
REMARK    2  A    between atoms: C_14  and  C_16
REMARK    3  A    between atoms: C_16  and  O_17
REMARK    4  A    between atoms: O_17  and  P_18
REMARK    5  A    between atoms: P_18  and  O_19
REMARK    6  A    between atoms: P_18  and  O_21
REMARK    7  A    between atoms: O_21  and  P_22
REMARK    8  A    between atoms: P_22  and  O_23
REMARK    9  A    between atoms: P_22  and  O_25
REMARK   10  A    between atoms: O_25  and  C_26
REMARK   11  A    between atoms: C_26  and  C_27
REMARK   12  A    between atoms: C_30  and  N_38
REMARK   13  A    between atoms: C_32  and  O_34
REMARK   14  A    between atoms: C_35  and  O_37
REMARK   15  A    between atoms: C_42  and  C_44
REMARK   16  A    between atoms: C_44  and  O_45
REMARK   17  A    between atoms: C_47  and  O_49
REMARK   18  A    between atoms: C_50  and  O_52
REMARK                            x       y       z     vdW  Elec       q    Type
REMARK                         _______ _______ _______ _____ _____    ______ ____
ROOT
ATOM      1  P   UNL     1       9.188  -0.178  23.056  0.00  0.00    +0.483 P 
ATOM      2  O   UNL     1       9.752  -0.503  21.675  0.00  0.00    -0.227 OA
ENDROOT
BRANCH   1   3
ATOM      3  O   UNL     1       7.727  -0.999  22.622  0.00  0.00    -0.302 OA
ATOM      4  H   UNL     1       7.048  -0.832  23.301  0.00  0.00    +0.222 HD
ENDBRANCH   1   3
BRANCH   1   5
ATOM      5  O   UNL     1      10.647   0.642  23.489  0.00  0.00    -0.186 OA
BRANCH   5   6
ATOM      6  P   UNL     1      10.348   2.344  23.577  0.00  0.00    +0.483 P 
ATOM      7  O   UNL     1       8.940   2.023  24.107  0.00  0.00    -0.227 OA
BRANCH   6   8
ATOM      8  O   UNL     1      10.156   2.386  21.954  0.00  0.00    -0.302 OA
ATOM      9  H   UNL     1      10.906   2.862  21.547  0.00  0.00    +0.222 HD
ENDBRANCH   6   8
BRANCH   6  10
ATOM     10  O   UNL     1      10.049   4.045  23.665  0.00  0.00    -0.284 OA
BRANCH  10  11
ATOM     11  C   UNL     1       8.943   4.462  24.468  0.00  0.00    +0.206 C 
BRANCH  11  12
ATOM     12  C   UNL     1       7.899   5.266  23.691  0.00  0.00    +0.183 C 
ATOM     13  C   UNL     1       7.827   4.922  22.204  0.00  0.00    +0.183 C 
ATOM     14  C   UNL     1       6.716   3.877  22.092  0.00  0.00    +0.244 C 
ATOM     15  C   UNL     1       6.152   3.774  23.510  0.00  0.00    +0.439 C 
ATOM     16  O   UNL     1       6.579   4.951  24.205  0.00  0.00    -0.309 OA
BRANCH  15  17
ATOM     17  N   UNL     1       4.673   3.639  23.461  0.00  0.00    -0.173 N 
ATOM     18  C   UNL     1       4.033   3.439  22.287  0.00  0.00    +0.326 A 
ATOM     19  C   UNL     1       2.641   3.293  22.239  0.00  0.00    +0.122 A 
ATOM     20  C   UNL     1       1.915   3.350  23.428  0.00  0.00    +0.027 A 
ATOM     21  C   UNL     1       2.591   3.575  24.625  0.00  0.00    +0.071 A 
ATOM     22  C   UNL     1       3.972   3.735  24.618  0.00  0.00    +0.311 A 
BRANCH  19  23
ATOM     23  C   UNL     1       2.064   3.087  20.888  0.00  0.00    +0.343 C 
ATOM     24  O   UNL     1       2.036   4.013  20.095  0.00  0.00    -0.245 OA
BRANCH  23  25
ATOM     25  O   UNL     1       1.585   1.870  20.599  0.00  0.00    -0.477 OA
ATOM     26  H   UNL     1       0.700   1.594  20.889  0.00  0.00    +0.295 HD
ENDBRANCH  23  25
ENDBRANCH  19  23
ENDBRANCH  15  17
BRANCH  14  27
ATOM     27  O   UNL     1       7.153   2.594  21.652  0.00  0.00    -0.380 OA
ATOM     28  H   UNL     1       6.871   2.487  20.719  0.00  0.00    +0.210 HD
ENDBRANCH  14  27
BRANCH  13  29
ATOM     29  O   UNL     1       7.368   6.047  21.440  0.00  0.00    -0.386 OA
ATOM     30  H   UNL     1       8.058   6.355  20.823  0.00  0.00    +0.210 HD
ENDBRANCH  13  29
ENDBRANCH  11  12
ENDBRANCH  10  11
ENDBRANCH   6  10
ENDBRANCH   5   6
ENDBRANCH   1   5
BRANCH   1  31
ATOM     31  O   UNL     1       9.539  -1.404  24.123  0.00  0.00    -0.284 OA
BRANCH  31  32
ATOM     32  C   UNL     1       8.639  -1.620  25.220  0.00  0.00    +0.206 C 
BRANCH  32  36
ATOM     33  C   UNL     1       8.336  -5.097  26.256  0.00  0.00    +0.253 C 
ATOM     34  C   UNL     1       9.038  -5.236  24.901  0.00  0.00    +0.195 C 
ATOM     35  C   UNL     1       8.751  -3.913  24.191  0.00  0.00    +0.178 C 
ATOM     36  C   UNL     1       8.092  -3.040  25.269  0.00  0.00    +0.178 C 
ATOM     37  O   UNL     1       8.366  -3.671  26.530  0.00  0.00    -0.346 OA
BRANCH  33  45
ATOM     38  N   UNL     1       2.838  -7.168  27.822  0.00  0.00    -0.341 N 
ATOM     39  H   UNL     1       2.457  -6.706  27.005  0.00  0.00    +0.144 HD
ATOM     40  H   UNL     1       2.283  -7.134  28.670  0.00  0.00    +0.144 HD
ATOM     41  C   UNL     1       4.158  -6.809  28.082  0.00  0.00    +0.147 A 
ATOM     42  C   UNL     1       5.039  -6.311  27.104  0.00  0.00    +0.147 A 
ATOM     43  N   UNL     1       4.891  -6.062  25.753  0.00  0.00    -0.231 NA
ATOM     44  C   UNL     1       6.063  -5.600  25.372  0.00  0.00    +0.203 A 
ATOM     45  N   UNL     1       6.966  -5.543  26.409  0.00  0.00    -0.286 N 
ATOM     46  C   UNL     1       6.320  -5.986  27.528  0.00  0.00    +0.167 A 
ATOM     47  N   UNL     1       6.792  -6.085  28.777  0.00  0.00    -0.216 NA
ATOM     48  C   UNL     1       5.871  -6.574  29.624  0.00  0.00    +0.225 A 
ATOM     49  N   UNL     1       4.599  -6.928  29.353  0.00  0.00    -0.219 NA
ENDBRANCH  33  45
BRANCH  35  50
ATOM     50  O   UNL     1       7.880  -4.076  23.078  0.00  0.00    -0.386 OA
ATOM     51  H   UNL     1       6.997  -4.314  23.408  0.00  0.00    +0.210 HD
ENDBRANCH  35  50
BRANCH  34  52
ATOM     52  O   UNL     1      10.463  -5.353  25.107  0.00  0.00    -0.385 OA
ATOM     53  H   UNL     1      10.669  -5.112  26.031  0.00  0.00    +0.210 HD
ENDBRANCH  34  52
ENDBRANCH  32  36
ENDBRANCH  31  32
ENDBRANCH   1  31
TORSDOF 18
ENDMDL
MODEL 9
REMARK VINA RESULT:      -7.9      2.469      4.111
REMARK  Name = 
REMARK  18 active torsions:
REMARK  status: ('A' for Active; 'I' for Inactive)
REMARK    1  A    between atoms: N_10  and  C_11
REMARK    2  A    between atoms: C_14  and  C_16
REMARK    3  A    between atoms: C_16  and  O_17
REMARK    4  A    between atoms: O_17  and  P_18
REMARK    5  A    between atoms: P_18  and  O_19
REMARK    6  A    between atoms: P_18  and  O_21
REMARK    7  A    between atoms: O_21  and  P_22
REMARK    8  A    between atoms: P_22  and  O_23
REMARK    9  A    between atoms: P_22  and  O_25
REMARK   10  A    between atoms: O_25  and  C_26
REMARK   11  A    between atoms: C_26  and  C_27
REMARK   12  A    between atoms: C_30  and  N_38
REMARK   13  A    between atoms: C_32  and  O_34
REMARK   14  A    between atoms: C_35  and  O_37
REMARK   15  A    between atoms: C_42  and  C_44
REMARK   16  A    between atoms: C_44  and  O_45
REMARK   17  A    between atoms: C_47  and  O_49
REMARK   18  A    between atoms: C_50  and  O_52
REMARK                            x       y       z     vdW  Elec       q    Type
REMARK                         _______ _______ _______ _____ _____    ______ ____
ROOT
ATOM      1  P   UNL     1       6.805  -5.031  22.087  0.00  0.00    +0.483 P 
ATOM      2  O   UNL     1       7.489  -6.376  21.862  0.00  0.00    -0.227 OA
ENDROOT
BRANCH   1   3
ATOM      3  O   UNL     1       5.935  -5.256  20.608  0.00  0.00    -0.302 OA
ATOM      4  H   UNL     1       5.041  -5.590  20.806  0.00  0.00    +0.222 HD
ENDBRANCH   1   3
BRANCH   1   5
ATOM      5  O   UNL     1       7.675  -4.805  23.565  0.00  0.00    -0.186 OA
BRANCH   5   6
ATOM      6  P   UNL     1       8.013  -3.123  23.785  0.00  0.00    +0.483 P 
ATOM      7  O   UNL     1       8.632  -3.472  25.150  0.00  0.00    -0.227 OA
BRANCH   6   8
ATOM      8  O   UNL     1       6.437  -2.859  24.126  0.00  0.00    -0.302 OA
ATOM      9  H   UNL     1       6.356  -2.102  24.741  0.00  0.00    +0.222 HD
ENDBRANCH   6   8
BRANCH   6  10
ATOM     10  O   UNL     1       8.352  -1.441  24.004  0.00  0.00    -0.284 OA
BRANCH  10  11
ATOM     11  C   UNL     1       9.710  -1.032  23.830  0.00  0.00    +0.206 C 
BRANCH  11  12
ATOM     12  C   UNL     1       9.899  -0.022  22.696  0.00  0.00    +0.183 C 
ATOM     13  C   UNL     1       8.596   0.591  22.185  0.00  0.00    +0.183 C 
ATOM     14  C   UNL     1       8.439   1.897  22.964  0.00  0.00    +0.244 C 
ATOM     15  C   UNL     1       9.721   1.997  23.791  0.00  0.00    +0.439 C 
ATOM     16  O   UNL     1      10.667   1.106  23.189  0.00  0.00    -0.309 OA
BRANCH  15  17
ATOM     17  N   UNL     1      10.198   3.405  23.824  0.00  0.00    -0.173 N 
ATOM     18  C   UNL     1      11.394   3.744  23.292  0.00  0.00    +0.326 A 
ATOM     19  C   UNL     1      11.839   5.072  23.304  0.00  0.00    +0.122 A 
ATOM     20  C   UNL     1      11.024   6.051  23.871  0.00  0.00    +0.027 A 
ATOM     21  C   UNL     1       9.803   5.678  24.429  0.00  0.00    +0.071 A 
ATOM     22  C   UNL     1       9.416   4.344  24.412  0.00  0.00    +0.311 A 
BRANCH  19  23
ATOM     23  C   UNL     1      13.171   5.308  22.697  0.00  0.00    +0.343 C 
ATOM     24  O   UNL     1      13.250   5.829  21.597  0.00  0.00    -0.245 OA
BRANCH  23  25
ATOM     25  O   UNL     1      14.247   4.925  23.397  0.00  0.00    -0.477 OA
ATOM     26  H   UNL     1      15.119   4.847  22.978  0.00  0.00    +0.295 HD
ENDBRANCH  23  25
ENDBRANCH  19  23
ENDBRANCH  15  17
BRANCH  14  27
ATOM     27  O   UNL     1       7.304   1.940  23.824  0.00  0.00    -0.380 OA
ATOM     28  H   UNL     1       6.546   1.554  23.337  0.00  0.00    +0.210 HD
ENDBRANCH  14  27
BRANCH  13  29
ATOM     29  O   UNL     1       8.720   0.982  20.809  0.00  0.00    -0.386 OA
ATOM     30  H   UNL     1       8.545   0.228  20.214  0.00  0.00    +0.210 HD
ENDBRANCH  13  29
ENDBRANCH  11  12
ENDBRANCH  10  11
ENDBRANCH   6  10
ENDBRANCH   5   6
ENDBRANCH   1   5
BRANCH   1  31
ATOM     31  O   UNL     1       5.389  -5.241  22.932  0.00  0.00    -0.284 OA
BRANCH  31  32
ATOM     32  C   UNL     1       5.391  -6.165  24.031  0.00  0.00    +0.206 C 
BRANCH  32  36
ATOM     33  C   UNL     1       5.191  -5.053  27.492  0.00  0.00    +0.253 C 
ATOM     34  C   UNL     1       4.456  -6.396  27.553  0.00  0.00    +0.195 C 
ATOM     35  C   UNL     1       4.059  -6.675  26.103  0.00  0.00    +0.178 C 
ATOM     36  C   UNL     1       4.779  -5.583  25.297  0.00  0.00    +0.178 C 
ATOM     37  O   UNL     1       5.781  -5.029  26.165  0.00  0.00    -0.346 OA
BRANCH  33  45
ATOM     38  N   UNL     1       2.945   0.574  27.992  0.00  0.00    -0.341 N 
ATOM     39  H   UNL     1       2.013   0.183  27.929  0.00  0.00    +0.144 HD
ATOM     40  H   UNL     1       3.109   1.449  27.506  0.00  0.00    +0.144 HD
ATOM     41  C   UNL     1       3.943  -0.350  27.695  0.00  0.00    +0.147 A 
ATOM     42  C   UNL     1       3.776  -1.744  27.810  0.00  0.00    +0.147 A 
ATOM     43  N   UNL     1       2.710  -2.527  28.209  0.00  0.00    -0.231 NA
ATOM     44  C   UNL     1       3.153  -3.763  28.107  0.00  0.00    +0.203 A 
ATOM     45  N   UNL     1       4.455  -3.818  27.666  0.00  0.00    -0.286 N 
ATOM     46  C   UNL     1       4.864  -2.531  27.462  0.00  0.00    +0.167 A 
ATOM     47  N   UNL     1       6.049  -2.095  27.013  0.00  0.00    -0.216 NA
ATOM     48  C   UNL     1       6.098  -0.754  26.948  0.00  0.00    +0.225 A 
ATOM     49  N   UNL     1       5.125   0.127  27.250  0.00  0.00    -0.219 NA
ENDBRANCH  33  45
BRANCH  35  50
ATOM     50  O   UNL     1       2.652  -6.598  25.904  0.00  0.00    -0.386 OA
ATOM     51  H   UNL     1       2.316  -5.812  26.368  0.00  0.00    +0.210 HD
ENDBRANCH  35  50
BRANCH  34  52
ATOM     52  O   UNL     1       5.369  -7.426  27.991  0.00  0.00    -0.385 OA
ATOM     53  H   UNL     1       5.033  -7.812  28.823  0.00  0.00    +0.210 HD
ENDBRANCH  34  52
ENDBRANCH  32  36
ENDBRANCH  31  32
ENDBRANCH   1  31
TORSDOF 18
ENDMDL
