MODEL 1
REMARK VINA RESULT:      -7.8      0.000      0.000
REMARK  Name = 
REMARK  6 active torsions:
REMARK  status: ('A' for Active; 'I' for Inactive)
REMARK    1  A    between atoms: C_1  and  C_2
REMARK    2  A    between atoms: C_7  and  C_8
REMARK    3  A    between atoms: N_10  and  C_11
REMARK    4  A    between atoms: C_13  and  C_14
REMARK    5  A    between atoms: C_15  and  C_18
REMARK    6  A    between atoms: C_24  and  O_26
REMARK                            x       y       z     vdW  Elec       q    Type
REMARK                         _______ _______ _______ _____ _____    ______ ____
ROOT
ATOM      1  C   UNL     1       7.606  -1.242  24.163  0.00  0.00    +0.034 A 
ATOM      2  C   UNL     1       7.878  -0.468  25.291  0.00  0.00    +0.024 A 
ATOM      3  C   UNL     1       8.648   0.701  25.194  0.00  0.00    +0.015 A 
ATOM      4  C   UNL     1       9.119   1.176  23.959  0.00  0.00    +0.040 A 
ATOM      5  C   UNL     1       8.881   0.381  22.817  0.00  0.00    -0.037 A 
ATOM      6  C   UNL     1       9.446   0.716  21.460  0.00  0.00    +0.044 C 
ATOM      7  C   UNL     1       8.118  -0.809  22.937  0.00  0.00    +0.027 A 
ENDROOT
BRANCH   4   8
ATOM      8  C   UNL     1       9.904   2.474  23.876  0.00  0.00    +0.251 C 
ATOM      9  N   UNL     1       9.234   3.720  23.871  0.00  0.00    -0.267 N 
ATOM     10  C   UNL     1       7.846   3.874  23.628  0.00  0.00    +0.042 A 
ATOM     11  C   UNL     1       7.269   3.339  22.467  0.00  0.00    +0.025 A 
ATOM     12  C   UNL     1       5.905   3.496  22.236  0.00  0.00    +0.022 A 
ATOM     13  C   UNL     1       5.117   4.175  23.159  0.00  0.00    +0.041 A 
ATOM     14  C   UNL     1       5.687   4.708  24.315  0.00  0.00    +0.028 A 
ATOM     15 CL   UNL     1       3.432   4.360  22.876  0.00  0.00    -0.084 Cl
ATOM     16  C   UNL     1       7.066   4.581  24.563  0.00  0.00    +0.004 A 
ATOM     17  C   UNL     1       7.706   5.145  25.811  0.00  0.00    +0.146 C 
ATOM     18  C   UNL     1       8.607   6.327  25.456  0.00  0.00    +0.038 C 
ATOM     19  C   UNL     1       9.989   5.889  24.961  0.00  0.00    +0.022 C 
ATOM     20  C   UNL     1      10.007   4.971  23.735  0.00  0.00    +0.114 C 
ATOM     21  O   UNL     1      11.130   2.411  23.848  0.00  0.00    -0.270 OA
BRANCH  17  22
ATOM     22  O   UNL     1       6.712   5.541  26.754  0.00  0.00    -0.387 OA
ATOM     23  H   UNL     1       6.104   4.799  26.885  0.00  0.00    +0.210 HD
ENDBRANCH  17  22
ENDBRANCH   4   8
BRANCH   1  25
ATOM     24  C   UNL     1       7.337  -3.739  24.186  0.00  0.00    +0.249 C 
ATOM     25  N   UNL     1       6.876  -2.446  24.352  0.00  0.00    -0.281 N 
ATOM     26  H   UNL     1       5.945  -2.334  24.726  0.00  0.00    +0.155 HD
ATOM     27  O   UNL     1       8.455  -4.044  23.773  0.00  0.00    -0.270 OA
BRANCH  24  30
ATOM     28  C   UNL     1       7.021  -4.872  27.110  0.00  0.00    +0.044 C 
ATOM     29  C   UNL     1       6.269  -5.368  25.908  0.00  0.00    -0.038 A 
ATOM     30  C   UNL     1       6.432  -4.863  24.602  0.00  0.00    +0.040 A 
ATOM     31  C   UNL     1       5.633  -5.388  23.564  0.00  0.00    +0.013 A 
ATOM     32  C   UNL     1       4.694  -6.392  23.799  0.00  0.00    +0.001 A 
ATOM     33  C   UNL     1       4.536  -6.894  25.083  0.00  0.00    +0.000 A 
ATOM     34  C   UNL     1       5.318  -6.392  26.124  0.00  0.00    +0.004 A 
ENDBRANCH  24  30
ENDBRANCH   1  25
TORSDOF 4
ENDMDL
MODEL 2
REMARK VINA RESULT:      -7.6      1.390      2.034
REMARK  Name = 
REMARK  6 active torsions:
REMARK  status: ('A' for Active; 'I' for Inactive)
REMARK    1  A    between atoms: C_1  and  C_2
REMARK    2  A    between atoms: C_7  and  C_8
REMARK    3  A    between atoms: N_10  and  C_11
REMARK    4  A    between atoms: C_13  and  C_14
REMARK    5  A    between atoms: C_15  and  C_18
REMARK    6  A    between atoms: C_24  and  O_26
REMARK                            x       y       z     vdW  Elec       q    Type
REMARK                         _______ _______ _______ _____ _____    ______ ____
ROOT
ATOM      1  C   UNL     1       8.010  -2.026  25.221  0.00  0.00    +0.034 A 
ATOM      2  C   UNL     1       8.261  -0.965  26.090  0.00  0.00    +0.024 A 
ATOM      3  C   UNL     1       9.131   0.074  25.726  0.00  0.00    +0.015 A 
ATOM      4  C   UNL     1       9.732   0.126  24.458  0.00  0.00    +0.040 A 
ATOM      5  C   UNL     1       9.514  -0.962  23.585  0.00  0.00    -0.037 A 
ATOM      6  C   UNL     1      10.205  -1.085  22.251  0.00  0.00    +0.044 C 
ATOM      7  C   UNL     1       8.648  -2.014  23.977  0.00  0.00    +0.027 A 
ENDROOT
BRANCH   4   8
ATOM      8  C   UNL     1      10.627   1.291  24.071  0.00  0.00    +0.251 C 
ATOM      9  N   UNL     1      10.065   2.533  23.691  0.00  0.00    -0.267 N 
ATOM     10  C   UNL     1       8.704   2.715  23.338  0.00  0.00    +0.042 A 
ATOM     11  C   UNL     1       8.124   1.925  22.335  0.00  0.00    +0.025 A 
ATOM     12  C   UNL     1       6.786   2.111  21.994  0.00  0.00    +0.022 A 
ATOM     13  C   UNL     1       6.028   3.072  22.654  0.00  0.00    +0.041 A 
ATOM     14  C   UNL     1       6.601   3.859  23.652  0.00  0.00    +0.028 A 
ATOM     15 CL   UNL     1       4.375   3.294  22.236  0.00  0.00    -0.084 Cl
ATOM     16  C   UNL     1       7.956   3.705  24.001  0.00  0.00    +0.004 A 
ATOM     17  C   UNL     1       8.598   4.542  25.084  0.00  0.00    +0.146 C 
ATOM     18  C   UNL     1       9.608   5.513  24.473  0.00  0.00    +0.038 C 
ATOM     19  C   UNL     1      10.964   4.857  24.193  0.00  0.00    +0.022 C 
ATOM     20  C   UNL     1      10.946   3.640  23.264  0.00  0.00    +0.114 C 
ATOM     21  O   UNL     1      11.843   1.135  24.129  0.00  0.00    -0.270 OA
BRANCH  17  22
ATOM     22  O   UNL     1       7.610   5.253  25.827  0.00  0.00    -0.387 OA
ATOM     23  H   UNL     1       7.701   5.013  26.761  0.00  0.00    +0.210 HD
ENDBRANCH  17  22
ENDBRANCH   4   8
BRANCH   1  25
ATOM     24  C   UNL     1       7.527  -4.388  25.927  0.00  0.00    +0.249 C 
ATOM     25  N   UNL     1       7.171  -3.073  25.687  0.00  0.00    -0.281 N 
ATOM     26  H   UNL     1       6.235  -2.795  25.943  0.00  0.00    +0.155 HD
ATOM     27  O   UNL     1       8.634  -4.874  25.701  0.00  0.00    -0.270 OA
BRANCH  24  30
ATOM     28  C   UNL     1       5.229  -5.952  24.441  0.00  0.00    +0.044 C 
ATOM     29  C   UNL     1       5.486  -6.000  25.920  0.00  0.00    -0.038 A 
ATOM     30  C   UNL     1       6.508  -5.281  26.574  0.00  0.00    +0.040 A 
ATOM     31  C   UNL     1       6.673  -5.445  27.967  0.00  0.00    +0.013 A 
ATOM     32  C   UNL     1       5.849  -6.294  28.706  0.00  0.00    +0.001 A 
ATOM     33  C   UNL     1       4.839  -6.997  28.065  0.00  0.00    +0.000 A 
ATOM     34  C   UNL     1       4.656  -6.848  26.689  0.00  0.00    +0.004 A 
ENDBRANCH  24  30
ENDBRANCH   1  25
TORSDOF 4
ENDMDL
MODEL 3
REMARK VINA RESULT:      -7.4      3.060      9.130
REMARK  Name = 
REMARK  6 active torsions:
REMARK  status: ('A' for Active; 'I' for Inactive)
REMARK    1  A    between atoms: C_1  and  C_2
REMARK    2  A    between atoms: C_7  and  C_8
REMARK    3  A    between atoms: N_10  and  C_11
REMARK    4  A    between atoms: C_13  and  C_14
REMARK    5  A    between atoms: C_15  and  C_18
REMARK    6  A    between atoms: C_24  and  O_26
REMARK                            x       y       z     vdW  Elec       q    Type
REMARK                         _______ _______ _______ _____ _____    ______ ____
ROOT
ATOM      1  C   UNL     1       7.543   1.243  26.012  0.00  0.00    +0.034 A 
ATOM      2  C   UNL     1       8.056   0.052  26.526  0.00  0.00    +0.024 A 
ATOM      3  C   UNL     1       7.209  -0.908  27.101  0.00  0.00    +0.015 A 
ATOM      4  C   UNL     1       5.815  -0.744  27.126  0.00  0.00    +0.040 A 
ATOM      5  C   UNL     1       5.289   0.473  26.643  0.00  0.00    -0.037 A 
ATOM      6  C   UNL     1       3.825   0.820  26.735  0.00  0.00    +0.044 C 
ATOM      7  C   UNL     1       6.161   1.441  26.083  0.00  0.00    +0.027 A 
ENDROOT
BRANCH   4   8
ATOM      8  C   UNL     1       4.918  -1.825  27.706  0.00  0.00    +0.251 C 
ATOM      9  N   UNL     1       4.910  -3.126  27.152  0.00  0.00    -0.267 N 
ATOM     10  C   UNL     1       5.453  -3.453  25.883  0.00  0.00    +0.042 A 
ATOM     11  C   UNL     1       5.042  -2.753  24.739  0.00  0.00    +0.025 A 
ATOM     12  C   UNL     1       5.579  -3.080  23.496  0.00  0.00    +0.022 A 
ATOM     13  C   UNL     1       6.526  -4.094  23.394  0.00  0.00    +0.041 A 
ATOM     14  C   UNL     1       6.937  -4.792  24.529  0.00  0.00    +0.028 A 
ATOM     15 CL   UNL     1       7.193  -4.491  21.860  0.00  0.00    -0.084 Cl
ATOM     16  C   UNL     1       6.395  -4.494  25.793  0.00  0.00    +0.004 A 
ATOM     17  C   UNL     1       6.830  -5.233  27.039  0.00  0.00    +0.146 C 
ATOM     18  C   UNL     1       5.693  -6.115  27.555  0.00  0.00    +0.038 C 
ATOM     19  C   UNL     1       4.671  -5.335  28.388  0.00  0.00    +0.022 C 
ATOM     20  C   UNL     1       3.994  -4.151  27.691  0.00  0.00    +0.114 C 
ATOM     21  O   UNL     1       4.230  -1.546  28.684  0.00  0.00    -0.270 OA
BRANCH  17  22
ATOM     22  O   UNL     1       7.993  -6.017  26.783  0.00  0.00    -0.387 OA
ATOM     23  H   UNL     1       7.752  -6.725  26.168  0.00  0.00    +0.210 HD
ENDBRANCH  17  22
ENDBRANCH   4   8
BRANCH   1  25
ATOM     24  C   UNL     1       8.714   2.500  24.180  0.00  0.00    +0.249 C 
ATOM     25  N   UNL     1       8.469   2.194  25.506  0.00  0.00    -0.281 N 
ATOM     26  H   UNL     1       8.935   2.757  26.202  0.00  0.00    +0.155 HD
ATOM     27  O   UNL     1       8.202   1.931  23.216  0.00  0.00    -0.270 OA
BRANCH  24  30
ATOM     28  C   UNL     1       7.947   5.550  24.388  0.00  0.00    +0.044 C 
ATOM     29  C   UNL     1       9.298   5.027  23.991  0.00  0.00    -0.038 A 
ATOM     30  C   UNL     1       9.622   3.659  23.885  0.00  0.00    +0.040 A 
ATOM     31  C   UNL     1      10.943   3.296  23.543  0.00  0.00    +0.013 A 
ATOM     32  C   UNL     1      11.927   4.256  23.303  0.00  0.00    +0.001 A 
ATOM     33  C   UNL     1      11.607   5.602  23.401  0.00  0.00    +0.000 A 
ATOM     34  C   UNL     1      10.307   5.983  23.735  0.00  0.00    +0.004 A 
ENDBRANCH  24  30
ENDBRANCH   1  25
TORSDOF 4
ENDMDL
MODEL 4
REMARK VINA RESULT:      -7.4      2.686      8.964
REMARK  Name = 
REMARK  6 active torsions:
REMARK  status: ('A' for Active; 'I' for Inactive)
REMARK    1  A    between atoms: C_1  and  C_2
REMARK    2  A    between atoms: C_7  and  C_8
REMARK    3  A    between atoms: N_10  and  C_11
REMARK    4  A    between atoms: C_13  and  C_14
REMARK    5  A    between atoms: C_15  and  C_18
REMARK    6  A    between atoms: C_24  and  O_26
REMARK                            x       y       z     vdW  Elec       q    Type
REMARK                         _______ _______ _______ _____ _____    ______ ____
ROOT
ATOM      1  C   UNL     1       8.489  -0.372  23.853  0.00  0.00    +0.034 A 
ATOM      2  C   UNL     1       7.284  -0.579  23.183  0.00  0.00    +0.024 A 
ATOM      3  C   UNL     1       6.799  -1.876  22.956  0.00  0.00    +0.015 A 
ATOM      4  C   UNL     1       7.465  -3.011  23.446  0.00  0.00    +0.040 A 
ATOM      5  C   UNL     1       8.704  -2.816  24.093  0.00  0.00    -0.037 A 
ATOM      6  C   UNL     1       9.575  -3.960  24.547  0.00  0.00    +0.044 C 
ATOM      7  C   UNL     1       9.189  -1.498  24.296  0.00  0.00    +0.027 A 
ENDROOT
BRANCH   4   8
ATOM      8  C   UNL     1       6.889  -4.401  23.232  0.00  0.00    +0.251 C 
ATOM      9  N   UNL     1       5.831  -4.873  24.044  0.00  0.00    -0.267 N 
ATOM     10  C   UNL     1       5.442  -4.274  25.269  0.00  0.00    +0.042 A 
ATOM     11  C   UNL     1       6.387  -4.065  26.284  0.00  0.00    +0.025 A 
ATOM     12  C   UNL     1       5.996  -3.477  27.485  0.00  0.00    +0.022 A 
ATOM     13  C   UNL     1       4.673  -3.090  27.671  0.00  0.00    +0.041 A 
ATOM     14  C   UNL     1       3.730  -3.296  26.664  0.00  0.00    +0.028 A 
ATOM     15 CL   UNL     1       4.194  -2.357  29.150  0.00  0.00    -0.084 Cl
ATOM     16  C   UNL     1       4.095  -3.906  25.449  0.00  0.00    +0.004 A 
ATOM     17  C   UNL     1       3.092  -4.134  24.341  0.00  0.00    +0.146 C 
ATOM     18  C   UNL     1       2.812  -5.628  24.180  0.00  0.00    +0.038 C 
ATOM     19  C   UNL     1       3.879  -6.343  23.345  0.00  0.00    +0.022 C 
ATOM     20  C   UNL     1       5.318  -6.245  23.861  0.00  0.00    +0.114 C 
ATOM     21  O   UNL     1       7.343  -5.084  22.319  0.00  0.00    -0.270 OA
BRANCH  17  22
ATOM     22  O   UNL     1       1.883  -3.424  24.598  0.00  0.00    -0.387 OA
ATOM     23  H   UNL     1       2.092  -2.658  25.151  0.00  0.00    +0.210 HD
ENDBRANCH  17  22
ENDBRANCH   4   8
BRANCH   1  25
ATOM     24  C   UNL     1       9.685   1.692  23.071  0.00  0.00    +0.249 C 
ATOM     25  N   UNL     1       8.946   0.965  23.987  0.00  0.00    -0.281 N 
ATOM     26  H   UNL     1       8.622   1.454  24.808  0.00  0.00    +0.155 HD
ATOM     27  O   UNL     1      10.126   1.254  22.010  0.00  0.00    -0.270 OA
BRANCH  24  30
ATOM     28  C   UNL     1       7.461   3.817  23.759  0.00  0.00    +0.044 C 
ATOM     29  C   UNL     1       8.933   4.105  23.682  0.00  0.00    -0.038 A 
ATOM     30  C   UNL     1       9.916   3.149  23.357  0.00  0.00    +0.040 A 
ATOM     31  C   UNL     1      11.273   3.538  23.360  0.00  0.00    +0.013 A 
ATOM     32  C   UNL     1      11.660   4.841  23.672  0.00  0.00    +0.001 A 
ATOM     33  C   UNL     1      10.693   5.785  23.986  0.00  0.00    +0.000 A 
ATOM     34  C   UNL     1       9.346   5.423  23.986  0.00  0.00    +0.004 A 
ENDBRANCH  24  30
ENDBRANCH   1  25
TORSDOF 4
ENDMDL
MODEL 5
REMARK VINA RESULT:      -7.3      2.569      8.790
REMARK  Name = 
REMARK  6 active torsions:
REMARK  status: ('A' for Active; 'I' for Inactive)
REMARK    1  A    between atoms: C_1  and  C_2
REMARK    2  A    between atoms: C_7  and  C_8
REMARK    3  A    between atoms: N_10  and  C_11
REMARK    4  A    between atoms: C_13  and  C_14
REMARK    5  A    between atoms: C_15  and  C_18
REMARK    6  A    between atoms: C_24  and  O_26
REMARK                            x       y       z     vdW  Elec       q    Type
REMARK                         _______ _______ _______ _____ _____    ______ ____
ROOT
ATOM      1  C   UNL     1       8.810  -0.236  23.481  0.00  0.00    +0.034 A 
ATOM      2  C   UNL     1       9.467  -1.017  24.432  0.00  0.00    +0.024 A 
ATOM      3  C   UNL     1       9.048  -2.328  24.703  0.00  0.00    +0.015 A 
ATOM      4  C   UNL     1       8.000  -2.932  23.988  0.00  0.00    +0.040 A 
ATOM      5  C   UNL     1       7.305  -2.139  23.049  0.00  0.00    -0.037 A 
ATOM      6  C   UNL     1       6.083  -2.631  22.315  0.00  0.00    +0.044 C 
ATOM      7  C   UNL     1       7.730  -0.808  22.804  0.00  0.00    +0.027 A 
ENDROOT
BRANCH   4   8
ATOM      8  C   UNL     1       7.603  -4.373  24.264  0.00  0.00    +0.251 C 
ATOM      9  N   UNL     1       6.422  -4.667  24.985  0.00  0.00    -0.267 N 
ATOM     10  C   UNL     1       5.706  -3.718  25.757  0.00  0.00    +0.042 A 
ATOM     11  C   UNL     1       6.362  -2.979  26.753  0.00  0.00    +0.025 A 
ATOM     12  C   UNL     1       5.650  -2.049  27.508  0.00  0.00    +0.022 A 
ATOM     13  C   UNL     1       4.295  -1.851  27.268  0.00  0.00    +0.041 A 
ATOM     14  C   UNL     1       3.639  -2.583  26.279  0.00  0.00    +0.028 A 
ATOM     15 CL   UNL     1       3.421  -0.697  28.196  0.00  0.00    -0.084 Cl
ATOM     16  C   UNL     1       4.330  -3.543  25.516  0.00  0.00    +0.004 A 
ATOM     17  C   UNL     1       3.643  -4.345  24.435  0.00  0.00    +0.146 C 
ATOM     18  C   UNL     1       3.527  -5.810  24.855  0.00  0.00    +0.038 C 
ATOM     19  C   UNL     1       4.816  -6.600  24.605  0.00  0.00    +0.022 C 
ATOM     20  C   UNL     1       6.078  -6.070  25.292  0.00  0.00    +0.114 C 
ATOM     21  O   UNL     1       8.314  -5.267  23.816  0.00  0.00    -0.270 OA
BRANCH  17  22
ATOM     22  O   UNL     1       2.355  -3.806  24.146  0.00  0.00    -0.387 OA
ATOM     23  H   UNL     1       2.452  -3.141  23.449  0.00  0.00    +0.210 HD
ENDBRANCH  17  22
ENDBRANCH   4   8
BRANCH   1  25
ATOM     24  C   UNL     1       9.072   2.160  24.184  0.00  0.00    +0.249 C 
ATOM     25  N   UNL     1       9.252   1.103  23.311  0.00  0.00    -0.281 N 
ATOM     26  H   UNL     1       9.827   1.269  22.499  0.00  0.00    +0.155 HD
ATOM     27  O   UNL     1       8.428   2.112  25.231  0.00  0.00    -0.270 OA
BRANCH  24  30
ATOM     28  C   UNL     1       7.796   5.037  24.354  0.00  0.00    +0.044 C 
ATOM     29  C   UNL     1       9.216   4.747  23.958  0.00  0.00    -0.038 A 
ATOM     30  C   UNL     1       9.769   3.453  23.871  0.00  0.00    +0.040 A 
ATOM     31  C   UNL     1      11.132   3.316  23.528  0.00  0.00    +0.013 A 
ATOM     32  C   UNL     1      11.937   4.425  23.272  0.00  0.00    +0.001 A 
ATOM     33  C   UNL     1      11.393   5.699  23.352  0.00  0.00    +0.000 A 
ATOM     34  C   UNL     1      10.047   5.858  23.686  0.00  0.00    +0.004 A 
ENDBRANCH  24  30
ENDBRANCH   1  25
TORSDOF 4
ENDMDL
MODEL 6
REMARK VINA RESULT:      -7.3      3.998      9.775
REMARK  Name = 
REMARK  6 active torsions:
REMARK  status: ('A' for Active; 'I' for Inactive)
REMARK    1  A    between atoms: C_1  and  C_2
REMARK    2  A    between atoms: C_7  and  C_8
REMARK    3  A    between atoms: N_10  and  C_11
REMARK    4  A    between atoms: C_13  and  C_14
REMARK    5  A    between atoms: C_15  and  C_18
REMARK    6  A    between atoms: C_24  and  O_26
REMARK                            x       y       z     vdW  Elec       q    Type
REMARK                         _______ _______ _______ _____ _____    ______ ____
ROOT
ATOM      1  C   UNL     1       6.657  -2.723  23.819  0.00  0.00    +0.034 A 
ATOM      2  C   UNL     1       5.390  -2.462  24.340  0.00  0.00    +0.024 A 
ATOM      3  C   UNL     1       4.368  -3.421  24.262  0.00  0.00    +0.015 A 
ATOM      4  C   UNL     1       4.591  -4.698  23.722  0.00  0.00    +0.040 A 
ATOM      5  C   UNL     1       5.859  -4.959  23.159  0.00  0.00    -0.037 A 
ATOM      6  C   UNL     1       6.179  -6.242  22.436  0.00  0.00    +0.044 C 
ATOM      7  C   UNL     1       6.874  -3.971  23.228  0.00  0.00    +0.027 A 
ENDROOT
BRANCH   4   8
ATOM      8  C   UNL     1       3.481  -5.735  23.701  0.00  0.00    +0.251 C 
ATOM      9  N   UNL     1       2.966  -6.261  24.909  0.00  0.00    -0.267 N 
ATOM     10  C   UNL     1       3.605  -6.132  26.168  0.00  0.00    +0.042 A 
ATOM     11  C   UNL     1       4.935  -6.546  26.329  0.00  0.00    +0.025 A 
ATOM     12  C   UNL     1       5.556  -6.417  27.570  0.00  0.00    +0.022 A 
ATOM     13  C   UNL     1       4.858  -5.871  28.642  0.00  0.00    +0.041 A 
ATOM     14  C   UNL     1       3.535  -5.459  28.486  0.00  0.00    +0.028 A 
ATOM     15 CL   UNL     1       5.628  -5.706  30.170  0.00  0.00    -0.084 Cl
ATOM     16  C   UNL     1       2.879  -5.597  27.248  0.00  0.00    +0.004 A 
ATOM     17  C   UNL     1       1.447  -5.152  27.053  0.00  0.00    +0.146 C 
ATOM     18  C   UNL     1       0.538  -6.365  26.858  0.00  0.00    +0.038 C 
ATOM     19  C   UNL     1       0.557  -6.893  25.420  0.00  0.00    +0.022 C 
ATOM     20  C   UNL     1       1.925  -7.309  24.872  0.00  0.00    +0.114 C 
ATOM     21  O   UNL     1       3.025  -6.077  22.614  0.00  0.00    -0.270 OA
BRANCH  17  22
ATOM     22  O   UNL     1       1.005  -4.370  28.160  0.00  0.00    -0.387 OA
ATOM     23  H   UNL     1       0.258  -4.825  28.575  0.00  0.00    +0.210 HD
ENDBRANCH  17  22
ENDBRANCH   4   8
BRANCH   1  25
ATOM     24  C   UNL     1       8.545  -1.342  22.906  0.00  0.00    +0.249 C 
ATOM     25  N   UNL     1       7.619  -1.680  23.876  0.00  0.00    -0.281 N 
ATOM     26  H   UNL     1       7.555  -1.076  24.682  0.00  0.00    +0.155 HD
ATOM     27  O   UNL     1       8.724  -1.954  21.855  0.00  0.00    -0.270 OA
BRANCH  24  30
ATOM     28  C   UNL     1       8.195   1.374  21.345  0.00  0.00    +0.044 C 
ATOM     29  C   UNL     1       9.197   1.132  22.437  0.00  0.00    -0.038 A 
ATOM     30  C   UNL     1       9.354  -0.094  23.116  0.00  0.00    +0.040 A 
ATOM     31  C   UNL     1      10.306  -0.180  24.156  0.00  0.00    +0.013 A 
ATOM     32  C   UNL     1      11.093   0.913  24.520  0.00  0.00    +0.001 A 
ATOM     33  C   UNL     1      10.943   2.118  23.849  0.00  0.00    +0.000 A 
ATOM     34  C   UNL     1      10.010   2.224  22.816  0.00  0.00    +0.004 A 
ENDBRANCH  24  30
ENDBRANCH   1  25
TORSDOF 4
ENDMDL
MODEL 7
REMARK VINA RESULT:      -7.1      3.025      9.204
REMARK  Name = 
REMARK  6 active torsions:
REMARK  status: ('A' for Active; 'I' for Inactive)
REMARK    1  A    between atoms: C_1  and  C_2
REMARK    2  A    between atoms: C_7  and  C_8
REMARK    3  A    between atoms: N_10  and  C_11
REMARK    4  A    between atoms: C_13  and  C_14
REMARK    5  A    between atoms: C_15  and  C_18
REMARK    6  A    between atoms: C_24  and  O_26
REMARK                            x       y       z     vdW  Elec       q    Type
REMARK                         _______ _______ _______ _____ _____    ______ ____
ROOT
ATOM      1  C   UNL     1       7.601  -1.602  23.508  0.00  0.00    +0.034 A 
ATOM      2  C   UNL     1       6.312  -1.796  23.013  0.00  0.00    +0.024 A 
ATOM      3  C   UNL     1       5.736  -3.076  22.985  0.00  0.00    +0.015 A 
ATOM      4  C   UNL     1       6.400  -4.197  23.510  0.00  0.00    +0.040 A 
ATOM      5  C   UNL     1       7.719  -4.018  23.979  0.00  0.00    -0.037 A 
ATOM      6  C   UNL     1       8.580  -5.164  24.444  0.00  0.00    +0.044 C 
ATOM      7  C   UNL     1       8.293  -2.720  23.980  0.00  0.00    +0.027 A 
ENDROOT
BRANCH   4   8
ATOM      8  C   UNL     1       5.731  -5.561  23.516  0.00  0.00    +0.251 C 
ATOM      9  N   UNL     1       4.761  -5.881  24.495  0.00  0.00    -0.267 N 
ATOM     10  C   UNL     1       4.560  -5.140  25.686  0.00  0.00    +0.042 A 
ATOM     11  C   UNL     1       5.635  -4.892  26.553  0.00  0.00    +0.025 A 
ATOM     12  C   UNL     1       5.429  -4.163  27.722  0.00  0.00    +0.022 A 
ATOM     13  C   UNL     1       4.161  -3.676  28.023  0.00  0.00    +0.041 A 
ATOM     14  C   UNL     1       3.091  -3.921  27.164  0.00  0.00    +0.028 A 
ATOM     15 CL   UNL     1       3.911  -2.771  29.463  0.00  0.00    -0.084 Cl
ATOM     16  C   UNL     1       3.268  -4.671  25.987  0.00  0.00    +0.004 A 
ATOM     17  C   UNL     1       2.123  -4.944  25.037  0.00  0.00    +0.146 C 
ATOM     18  C   UNL     1       1.749  -6.425  25.072  0.00  0.00    +0.038 C 
ATOM     19  C   UNL     1       2.664  -7.287  24.196  0.00  0.00    +0.022 C 
ATOM     20  C   UNL     1       4.159  -7.230  24.522  0.00  0.00    +0.114 C 
ATOM     21  O   UNL     1       6.031  -6.360  22.634  0.00  0.00    -0.270 OA
BRANCH  17  22
ATOM     22  O   UNL     1       0.994  -4.136  25.361  0.00  0.00    -0.387 OA
ATOM     23  H   UNL     1       0.279  -4.351  24.744  0.00  0.00    +0.210 HD
ENDBRANCH  17  22
ENDBRANCH   4   8
BRANCH   1  25
ATOM     24  C   UNL     1       8.079   0.690  24.417  0.00  0.00    +0.249 C 
ATOM     25  N   UNL     1       8.139  -0.289  23.442  0.00  0.00    -0.281 N 
ATOM     26  H   UNL     1       8.692  -0.089  22.622  0.00  0.00    +0.155 HD
ATOM     27  O   UNL     1       7.476   0.590  25.484  0.00  0.00    -0.270 OA
BRANCH  24  30
ATOM     28  C   UNL     1      11.218   0.910  24.244  0.00  0.00    +0.044 C 
ATOM     29  C   UNL     1      10.265   2.061  24.095  0.00  0.00    -0.038 A 
ATOM     30  C   UNL     1       8.863   1.951  24.191  0.00  0.00    +0.040 A 
ATOM     31  C   UNL     1       8.073   3.104  23.989  0.00  0.00    +0.013 A 
ATOM     32  C   UNL     1       8.646   4.343  23.702  0.00  0.00    +0.001 A 
ATOM     33  C   UNL     1      10.026   4.453  23.613  0.00  0.00    +0.000 A 
ATOM     34  C   UNL     1      10.826   3.328  23.813  0.00  0.00    +0.004 A 
ENDBRANCH  24  30
ENDBRANCH   1  25
TORSDOF 4
ENDMDL
MODEL 8
REMARK VINA RESULT:      -7.1      1.337      1.389
REMARK  Name = 
REMARK  6 active torsions:
REMARK  status: ('A' for Active; 'I' for Inactive)
REMARK    1  A    between atoms: C_1  and  C_2
REMARK    2  A    between atoms: C_7  and  C_8
REMARK    3  A    between atoms: N_10  and  C_11
REMARK    4  A    between atoms: C_13  and  C_14
REMARK    5  A    between atoms: C_15  and  C_18
REMARK    6  A    between atoms: C_24  and  O_26
REMARK                            x       y       z     vdW  Elec       q    Type
REMARK                         _______ _______ _______ _____ _____    ______ ____
ROOT
ATOM      1  C   UNL     1       8.107  -1.976  24.835  0.00  0.00    +0.034 A 
ATOM      2  C   UNL     1       8.326  -0.994  25.801  0.00  0.00    +0.024 A 
ATOM      3  C   UNL     1       9.140   0.117  25.527  0.00  0.00    +0.015 A 
ATOM      4  C   UNL     1       9.710   0.321  24.260  0.00  0.00    +0.040 A 
ATOM      5  C   UNL     1       9.525  -0.684  23.288  0.00  0.00    -0.037 A 
ATOM      6  C   UNL     1      10.193  -0.643  21.937  0.00  0.00    +0.044 C 
ATOM      7  C   UNL     1       8.716  -1.811  23.588  0.00  0.00    +0.027 A 
ENDROOT
BRANCH   4   8
ATOM      8  C   UNL     1      10.542   1.561  23.976  0.00  0.00    +0.251 C 
ATOM      9  N   UNL     1       9.916   2.796  23.688  0.00  0.00    -0.267 N 
ATOM     10  C   UNL     1       8.549   2.931  23.336  0.00  0.00    +0.042 A 
ATOM     11  C   UNL     1       8.020   2.192  22.267  0.00  0.00    +0.025 A 
ATOM     12  C   UNL     1       6.677   2.330  21.926  0.00  0.00    +0.022 A 
ATOM     13  C   UNL     1       5.862   3.194  22.651  0.00  0.00    +0.041 A 
ATOM     14  C   UNL     1       6.384   3.930  23.714  0.00  0.00    +0.028 A 
ATOM     15 CL   UNL     1       4.202   3.358  22.233  0.00  0.00    -0.084 Cl
ATOM     16  C   UNL     1       7.742   3.823  24.066  0.00  0.00    +0.004 A 
ATOM     17  C   UNL     1       8.329   4.606  25.218  0.00  0.00    +0.146 C 
ATOM     18  C   UNL     1       9.288   5.676  24.696  0.00  0.00    +0.038 C 
ATOM     19  C   UNL     1      10.680   5.119  24.382  0.00  0.00    +0.022 C 
ATOM     20  C   UNL     1      10.736   3.979  23.360  0.00  0.00    +0.114 C 
ATOM     21  O   UNL     1      11.764   1.467  24.036  0.00  0.00    -0.270 OA
BRANCH  17  22
ATOM     22  O   UNL     1       7.298   5.201  26.003  0.00  0.00    -0.387 OA
ATOM     23  H   UNL     1       6.862   4.502  26.511  0.00  0.00    +0.210 HD
ENDBRANCH  17  22
ENDBRANCH   4   8
BRANCH   1  25
ATOM     24  C   UNL     1       5.967  -3.277  25.021  0.00  0.00    +0.249 C 
ATOM     25  N   UNL     1       7.326  -3.102  25.208  0.00  0.00    -0.281 N 
ATOM     26  H   UNL     1       7.845  -3.885  25.576  0.00  0.00    +0.155 HD
ATOM     27  O   UNL     1       5.202  -2.434  24.554  0.00  0.00    -0.270 OA
BRANCH  24  30
ATOM     28  C   UNL     1       5.117  -4.275  27.887  0.00  0.00    +0.044 C 
ATOM     29  C   UNL     1       4.983  -5.074  26.622  0.00  0.00    -0.038 A 
ATOM     30  C   UNL     1       5.383  -4.622  25.348  0.00  0.00    +0.040 A 
ATOM     31  C   UNL     1       5.164  -5.454  24.229  0.00  0.00    +0.013 A 
ATOM     32  C   UNL     1       4.568  -6.709  24.356  0.00  0.00    +0.001 A 
ATOM     33  C   UNL     1       4.179  -7.158  25.610  0.00  0.00    +0.000 A 
ATOM     34  C   UNL     1       4.390  -6.353  26.731  0.00  0.00    +0.004 A 
ENDBRANCH  24  30
ENDBRANCH   1  25
TORSDOF 4
ENDMDL
MODEL 9
REMARK VINA RESULT:      -7.0      3.204      9.317
REMARK  Name = 
REMARK  6 active torsions:
REMARK  status: ('A' for Active; 'I' for Inactive)
REMARK    1  A    between atoms: C_1  and  C_2
REMARK    2  A    between atoms: C_7  and  C_8
REMARK    3  A    between atoms: N_10  and  C_11
REMARK    4  A    between atoms: C_13  and  C_14
REMARK    5  A    between atoms: C_15  and  C_18
REMARK    6  A    between atoms: C_24  and  O_26
REMARK                            x       y       z     vdW  Elec       q    Type
REMARK                         _______ _______ _______ _____ _____    ______ ____
ROOT
ATOM      1  C   UNL     1       6.731   0.006  24.119  0.00  0.00    +0.034 A 
ATOM      2  C   UNL     1       6.040  -0.290  25.293  0.00  0.00    +0.024 A 
ATOM      3  C   UNL     1       5.256  -1.450  25.396  0.00  0.00    +0.015 A 
ATOM      4  C   UNL     1       5.186  -2.390  24.354  0.00  0.00    +0.040 A 
ATOM      5  C   UNL     1       5.852  -2.082  23.148  0.00  0.00    -0.037 A 
ATOM      6  C   UNL     1       5.746  -2.946  21.917  0.00  0.00    +0.044 C 
ATOM      7  C   UNL     1       6.623  -0.895  23.055  0.00  0.00    +0.027 A 
ENDROOT
BRANCH   4   8
ATOM      8  C   UNL     1       4.374  -3.664  24.513  0.00  0.00    +0.251 C 
ATOM      9  N   UNL     1       4.959  -4.823  25.075  0.00  0.00    -0.267 N 
ATOM     10  C   UNL     1       6.354  -5.010  25.237  0.00  0.00    +0.042 A 
ATOM     11  C   UNL     1       7.217  -4.872  24.139  0.00  0.00    +0.025 A 
ATOM     12  C   UNL     1       8.587  -5.058  24.306  0.00  0.00    +0.022 A 
ATOM     13  C   UNL     1       9.097  -5.373  25.562  0.00  0.00    +0.041 A 
ATOM     14  C   UNL     1       8.243  -5.512  26.655  0.00  0.00    +0.028 A 
ATOM     15 CL   UNL     1      10.789  -5.595  25.767  0.00  0.00    -0.084 Cl
ATOM     16  C   UNL     1       6.853  -5.348  26.509  0.00  0.00    +0.004 A 
ATOM     17  C   UNL     1       5.908  -5.488  27.681  0.00  0.00    +0.146 C 
ATOM     18  C   UNL     1       5.054  -6.745  27.525  0.00  0.00    +0.038 C 
ATOM     19  C   UNL     1       3.853  -6.533  26.598  0.00  0.00    +0.022 C 
ATOM     20  C   UNL     1       4.173  -6.070  25.173  0.00  0.00    +0.114 C 
ATOM     21  O   UNL     1       3.195  -3.648  24.173  0.00  0.00    -0.270 OA
BRANCH  17  22
ATOM     22  O   UNL     1       6.629  -5.523  28.911  0.00  0.00    -0.387 OA
ATOM     23  H   UNL     1       7.390  -4.930  28.835  0.00  0.00    +0.210 HD
ENDBRANCH  17  22
ENDBRANCH   4   8
BRANCH   1  25
ATOM     24  C   UNL     1       8.723   1.473  24.546  0.00  0.00    +0.249 C 
ATOM     25  N   UNL     1       7.448   1.230  24.069  0.00  0.00    -0.281 N 
ATOM     26  H   UNL     1       7.000   1.974  23.556  0.00  0.00    +0.155 HD
ATOM     27  O   UNL     1       9.415   0.663  25.161  0.00  0.00    -0.270 OA
BRANCH  24  30
ATOM     28  C   UNL     1       7.587   4.287  25.397  0.00  0.00    +0.044 C 
ATOM     29  C   UNL     1       8.856   4.069  24.624  0.00  0.00    -0.038 A 
ATOM     30  C   UNL     1       9.345   2.805  24.235  0.00  0.00    +0.040 A 
ATOM     31  C   UNL     1      10.576   2.731  23.548  0.00  0.00    +0.013 A 
ATOM     32  C   UNL     1      11.312   3.876  23.242  0.00  0.00    +0.001 A 
ATOM     33  C   UNL     1      10.830   5.121  23.619  0.00  0.00    +0.000 A 
ATOM     34  C   UNL     1       9.614   5.217  24.297  0.00  0.00    +0.004 A 
ENDBRANCH  24  30
ENDBRANCH   1  25
TORSDOF 4
ENDMDL
