MODEL 1
REMARK VINA RESULT:      -7.9      0.000      0.000
REMARK  Name = 
REMARK  6 active torsions:
REMARK  status: ('A' for Active; 'I' for Inactive)
REMARK    1  A    between atoms: C_1  and  O_2
REMARK    2  A    between atoms: O_2  and  C_3
REMARK    3  A    between atoms: N_9  and  S_10
REMARK    4  A    between atoms: S_10  and  C_13
REMARK    5  A    between atoms: C_22  and  C_24
REMARK    6  A    between atoms: C_26  and  N_27
REMARK                            x       y       z     vdW  Elec       q    Type
REMARK                         _______ _______ _______ _____ _____    ______ ____
ROOT
ATOM      1  C   UNL     1      10.000   3.873  23.601  0.00  0.00    +0.123 A 
ATOM      2  C   UNL     1       8.603   3.964  23.659  0.00  0.00    +0.058 A 
ATOM      3  C   UNL     1       7.748   2.839  23.552  0.00  0.00    +0.030 A 
ATOM      4  C   UNL     1       8.430   1.627  23.392  0.00  0.00    +0.165 A 
ATOM      5  O   UNL     1       7.900   0.366  23.302  0.00  0.00    -0.423 OA
ATOM      6  C   UNL     1       8.976  -0.442  23.094  0.00  0.00    +0.308 A 
ATOM      7  N   UNL     1      10.130   0.181  23.026  0.00  0.00    -0.194 NA
ATOM      8  N   UNL     1       8.849  -1.808  22.791  0.00  0.00    -0.169 N 
ATOM      9  H   UNL     1       9.612  -2.100  22.181  0.00  0.00    +0.178 HD
ATOM     10  C   UNL     1       9.806   1.493  23.279  0.00  0.00    +0.115 A 
ATOM     11  C   UNL     1      10.617   2.631  23.408  0.00  0.00    +0.077 A 
ENDROOT
BRANCH   3  12
ATOM     12  C   UNL     1       6.278   2.951  23.601  0.00  0.00    -0.012 A 
ATOM     13  C   UNL     1       5.546   2.629  24.754  0.00  0.00    +0.009 A 
ATOM     14  C   UNL     1       4.155   2.752  24.787  0.00  0.00    +0.002 A 
ATOM     15  C   UNL     1       3.469   3.233  23.674  0.00  0.00    +0.023 A 
ATOM     16  C   UNL     1       4.162   3.615  22.530  0.00  0.00    +0.025 A 
ATOM     17  C   UNL     1       5.545   3.404  22.482  0.00  0.00    +0.031 A 
BRANCH  16  18
ATOM     18  N   UNL     1       3.464   3.989  21.373  0.00  0.00    -0.358 N 
ATOM     19  H   UNL     1       2.459   3.867  21.450  0.00  0.00    +0.142 HD
ATOM     20  H   UNL     1       3.711   4.907  21.020  0.00  0.00    +0.142 HD
ENDBRANCH  16  18
ENDBRANCH   3  12
BRANCH   8  21
ATOM     21  S   UNL     1       8.958  -2.779  24.165  0.00  0.00    +0.077 S 
ATOM     22  O   UNL     1       8.604  -1.983  25.318  0.00  0.00    -0.150 OA
ATOM     23  O   UNL     1      10.252  -3.428  24.122  0.00  0.00    -0.150 OA
BRANCH  21  24
ATOM     24  C   UNL     1       7.734  -4.044  23.982  0.00  0.00    +0.128 A 
ATOM     25  C   UNL     1       7.051  -4.583  25.074  0.00  0.00    +0.068 A 
ATOM     26 CL   UNL     1       7.360  -4.156  26.715  0.00  0.00    -0.082 Cl
ATOM     27  C   UNL     1       6.046  -5.535  24.847  0.00  0.00    +0.023 A 
ATOM     28  C   UNL     1       5.720  -5.934  23.549  0.00  0.00    +0.021 A 
ATOM     29  C   UNL     1       6.399  -5.382  22.467  0.00  0.00    +0.043 A 
ATOM     30 CL   UNL     1       5.986  -5.854  20.867  0.00  0.00    -0.083 Cl
ATOM     31  C   UNL     1       7.404  -4.441  22.675  0.00  0.00    +0.050 A 
ENDBRANCH  21  24
ENDBRANCH   8  21
BRANCH   1  33
ATOM     32  C   UNL     1      12.217   4.712  23.335  0.00  0.00    +0.277 C 
ATOM     33  O   UNL     1      10.863   4.931  23.719  0.00  0.00    -0.495 OA
ENDBRANCH   1  33
TORSDOF 5
ENDMDL
MODEL 2
REMARK VINA RESULT:      -7.6      1.554      1.619
REMARK  Name = 
REMARK  6 active torsions:
REMARK  status: ('A' for Active; 'I' for Inactive)
REMARK    1  A    between atoms: C_1  and  O_2
REMARK    2  A    between atoms: O_2  and  C_3
REMARK    3  A    between atoms: N_9  and  S_10
REMARK    4  A    between atoms: S_10  and  C_13
REMARK    5  A    between atoms: C_22  and  C_24
REMARK    6  A    between atoms: C_26  and  N_27
REMARK                            x       y       z     vdW  Elec       q    Type
REMARK                         _______ _______ _______ _____ _____    ______ ____
ROOT
ATOM      1  C   UNL     1      10.662   4.769  23.733  0.00  0.00    +0.123 A 
ATOM      2  C   UNL     1       9.288   4.968  23.925  0.00  0.00    +0.058 A 
ATOM      3  C   UNL     1       8.324   3.945  23.741  0.00  0.00    +0.030 A 
ATOM      4  C   UNL     1       8.875   2.716  23.359  0.00  0.00    +0.165 A 
ATOM      5  O   UNL     1       8.222   1.529  23.145  0.00  0.00    -0.423 OA
ATOM      6  C   UNL     1       9.197   0.672  22.735  0.00  0.00    +0.308 A 
ATOM      7  N   UNL     1      10.397   1.200  22.651  0.00  0.00    -0.194 NA
ATOM      8  N   UNL     1       8.918  -0.620  22.261  0.00  0.00    -0.169 N 
ATOM      9  H   UNL     1       9.602  -0.885  21.552  0.00  0.00    +0.178 HD
ATOM     10  C   UNL     1      10.218   2.485  23.108  0.00  0.00    +0.115 A 
ATOM     11  C   UNL     1      11.142   3.521  23.319  0.00  0.00    +0.077 A 
ENDROOT
BRANCH   3  12
ATOM     12  C   UNL     1       6.879   4.171  23.934  0.00  0.00    -0.012 A 
ATOM     13  C   UNL     1       6.308   4.283  25.211  0.00  0.00    +0.009 A 
ATOM     14  C   UNL     1       4.940   4.508  25.376  0.00  0.00    +0.002 A 
ATOM     15  C   UNL     1       4.118   4.660  24.261  0.00  0.00    +0.023 A 
ATOM     16  C   UNL     1       4.653   4.612  22.978  0.00  0.00    +0.025 A 
ATOM     17  C   UNL     1       6.009   4.299  22.829  0.00  0.00    +0.031 A 
BRANCH  16  18
ATOM     18  N   UNL     1       3.810   4.649  21.859  0.00  0.00    -0.358 N 
ATOM     19  H   UNL     1       3.471   5.581  21.639  0.00  0.00    +0.142 HD
ATOM     20  H   UNL     1       4.185   4.179  21.043  0.00  0.00    +0.142 HD
ENDBRANCH  16  18
ENDBRANCH   3  12
BRANCH   8  21
ATOM     21  S   UNL     1       9.038  -1.784  23.475  0.00  0.00    +0.077 S 
ATOM     22  O   UNL     1       9.030  -1.114  24.755  0.00  0.00    -0.150 OA
ATOM     23  O   UNL     1      10.153  -2.641  23.130  0.00  0.00    -0.150 OA
BRANCH  21  24
ATOM     24  C   UNL     1       7.571  -2.769  23.370  0.00  0.00    +0.128 A 
ATOM     25  C   UNL     1       6.317  -2.279  23.741  0.00  0.00    +0.068 A 
ATOM     26 CL   UNL     1       6.050  -0.715  24.413  0.00  0.00    -0.082 Cl
ATOM     27  C   UNL     1       5.188  -3.093  23.567  0.00  0.00    +0.023 A 
ATOM     28  C   UNL     1       5.308  -4.373  23.019  0.00  0.00    +0.021 A 
ATOM     29  C   UNL     1       6.561  -4.847  22.642  0.00  0.00    +0.043 A 
ATOM     30 CL   UNL     1       6.709  -6.412  21.949  0.00  0.00    -0.083 Cl
ATOM     31  C   UNL     1       7.692  -4.054  22.815  0.00  0.00    +0.050 A 
ENDBRANCH  21  24
ENDBRANCH   8  21
BRANCH   1  33
ATOM     32  C   UNL     1      12.831   5.584  23.168  0.00  0.00    +0.277 C 
ATOM     33  O   UNL     1      11.627   5.724  23.918  0.00  0.00    -0.495 OA
ENDBRANCH   1  33
TORSDOF 5
ENDMDL
MODEL 3
REMARK VINA RESULT:      -7.3      1.121      2.013
REMARK  Name = 
REMARK  6 active torsions:
REMARK  status: ('A' for Active; 'I' for Inactive)
REMARK    1  A    between atoms: C_1  and  O_2
REMARK    2  A    between atoms: O_2  and  C_3
REMARK    3  A    between atoms: N_9  and  S_10
REMARK    4  A    between atoms: S_10  and  C_13
REMARK    5  A    between atoms: C_22  and  C_24
REMARK    6  A    between atoms: C_26  and  N_27
REMARK                            x       y       z     vdW  Elec       q    Type
REMARK                         _______ _______ _______ _____ _____    ______ ____
ROOT
ATOM      1  C   UNL     1      10.405   2.940  23.396  0.00  0.00    +0.123 A 
ATOM      2  C   UNL     1       9.035   3.205  23.520  0.00  0.00    +0.058 A 
ATOM      3  C   UNL     1       8.050   2.187  23.564  0.00  0.00    +0.030 A 
ATOM      4  C   UNL     1       8.575   0.892  23.482  0.00  0.00    +0.165 A 
ATOM      5  O   UNL     1       7.898  -0.299  23.539  0.00  0.00    -0.423 OA
ATOM      6  C   UNL     1       8.857  -1.246  23.349  0.00  0.00    +0.308 A 
ATOM      7  N   UNL     1      10.068  -0.776  23.161  0.00  0.00    -0.194 NA
ATOM      8  N   UNL     1       8.553  -2.608  23.182  0.00  0.00    -0.169 N 
ATOM      9  H   UNL     1       9.236  -3.042  22.562  0.00  0.00    +0.178 HD
ATOM     10  C   UNL     1       9.915   0.583  23.308  0.00  0.00    +0.115 A 
ATOM     11  C   UNL     1      10.860   1.621  23.286  0.00  0.00    +0.077 A 
ENDROOT
BRANCH   3  12
ATOM     12  C   UNL     1       6.609   2.480  23.683  0.00  0.00    -0.012 A 
ATOM     13  C   UNL     1       5.909   2.298  24.885  0.00  0.00    +0.009 A 
ATOM     14  C   UNL     1       4.547   2.591  24.983  0.00  0.00    +0.002 A 
ATOM     15  C   UNL     1       3.863   3.108  23.884  0.00  0.00    +0.023 A 
ATOM     16  C   UNL     1       4.532   3.356  22.690  0.00  0.00    +0.025 A 
ATOM     17  C   UNL     1       5.875   2.975  22.582  0.00  0.00    +0.031 A 
BRANCH  16  18
ATOM     18  N   UNL     1       3.821   3.766  21.554  0.00  0.00    -0.358 N 
ATOM     19  H   UNL     1       2.974   3.230  21.391  0.00  0.00    +0.142 HD
ATOM     20  H   UNL     1       3.654   4.765  21.509  0.00  0.00    +0.142 HD
ENDBRANCH  16  18
ENDBRANCH   3  12
BRANCH   8  21
ATOM     21  S   UNL     1       8.637  -3.462  24.633  0.00  0.00    +0.077 S 
ATOM     22  O   UNL     1       8.693  -2.514  25.721  0.00  0.00    -0.150 OA
ATOM     23  O   UNL     1       9.697  -4.438  24.487  0.00  0.00    -0.150 OA
BRANCH  21  24
ATOM     24  C   UNL     1       7.118  -4.360  24.773  0.00  0.00    +0.128 A 
ATOM     25  C   UNL     1       6.698  -5.268  23.799  0.00  0.00    +0.068 A 
ATOM     26 CL   UNL     1       7.541  -5.567  22.326  0.00  0.00    -0.082 Cl
ATOM     27  C   UNL     1       5.516  -5.994  24.009  0.00  0.00    +0.023 A 
ATOM     28  C   UNL     1       4.772  -5.825  25.179  0.00  0.00    +0.021 A 
ATOM     29  C   UNL     1       5.206  -4.925  26.148  0.00  0.00    +0.043 A 
ATOM     30 CL   UNL     1       4.304  -4.730  27.598  0.00  0.00    -0.083 Cl
ATOM     31  C   UNL     1       6.373  -4.192  25.952  0.00  0.00    +0.050 A 
ENDBRANCH  21  24
ENDBRANCH   8  21
BRANCH   1  33
ATOM     32  C   UNL     1      11.023   5.219  23.735  0.00  0.00    +0.277 C 
ATOM     33  O   UNL     1      11.390   3.892  23.367  0.00  0.00    -0.495 OA
ENDBRANCH   1  33
TORSDOF 5
ENDMDL
MODEL 4
REMARK VINA RESULT:      -7.2      3.653      8.618
REMARK  Name = 
REMARK  6 active torsions:
REMARK  status: ('A' for Active; 'I' for Inactive)
REMARK    1  A    between atoms: C_1  and  O_2
REMARK    2  A    between atoms: O_2  and  C_3
REMARK    3  A    between atoms: N_9  and  S_10
REMARK    4  A    between atoms: S_10  and  C_13
REMARK    5  A    between atoms: C_22  and  C_24
REMARK    6  A    between atoms: C_26  and  N_27
REMARK                            x       y       z     vdW  Elec       q    Type
REMARK                         _______ _______ _______ _____ _____    ______ ____
ROOT
ATOM      1  C   UNL     1       7.231  -5.055  22.944  0.00  0.00    +0.123 A 
ATOM      2  C   UNL     1       6.699  -5.290  24.219  0.00  0.00    +0.058 A 
ATOM      3  C   UNL     1       6.747  -4.337  25.266  0.00  0.00    +0.030 A 
ATOM      4  C   UNL     1       7.367  -3.135  24.904  0.00  0.00    +0.165 A 
ATOM      5  O   UNL     1       7.534  -2.008  25.668  0.00  0.00    -0.423 OA
ATOM      6  C   UNL     1       8.246  -1.161  24.875  0.00  0.00    +0.308 A 
ATOM      7  N   UNL     1       8.561  -1.643  23.695  0.00  0.00    -0.194 NA
ATOM      8  N   UNL     1       8.764   0.058  25.343  0.00  0.00    -0.169 N 
ATOM      9  H   UNL     1       9.637   0.272  24.863  0.00  0.00    +0.178 HD
ATOM     10  C   UNL     1       7.952  -2.876  23.675  0.00  0.00    +0.115 A 
ATOM     11  C   UNL     1       7.867  -3.841  22.660  0.00  0.00    +0.077 A 
ENDROOT
BRANCH   3  12
ATOM     12  C   UNL     1       6.194  -4.601  26.608  0.00  0.00    -0.012 A 
ATOM     13  C   UNL     1       5.217  -3.777  27.186  0.00  0.00    +0.009 A 
ATOM     14  C   UNL     1       4.697  -4.048  28.453  0.00  0.00    +0.002 A 
ATOM     15  C   UNL     1       5.119  -5.175  29.155  0.00  0.00    +0.023 A 
ATOM     16  C   UNL     1       6.045  -6.049  28.595  0.00  0.00    +0.025 A 
ATOM     17  C   UNL     1       6.621  -5.716  27.363  0.00  0.00    +0.031 A 
BRANCH  16  18
ATOM     18  N   UNL     1       6.554  -7.116  29.346  0.00  0.00    -0.358 N 
ATOM     19  H   UNL     1       6.592  -6.927  30.344  0.00  0.00    +0.142 HD
ATOM     20  H   UNL     1       6.118  -8.010  29.145  0.00  0.00    +0.142 HD
ENDBRANCH  16  18
ENDBRANCH   3  12
BRANCH   8  21
ATOM     21  S   UNL     1       7.732   1.353  25.025  0.00  0.00    +0.077 S 
ATOM     22  O   UNL     1       7.018   1.680  26.238  0.00  0.00    -0.150 OA
ATOM     23  O   UNL     1       6.984   1.014  23.832  0.00  0.00    -0.150 OA
BRANCH  21  24
ATOM     24  C   UNL     1       8.768   2.729  24.617  0.00  0.00    +0.128 A 
ATOM     25  C   UNL     1       9.862   2.608  23.758  0.00  0.00    +0.068 A 
ATOM     26 CL   UNL     1      10.386   1.121  23.061  0.00  0.00    -0.082 Cl
ATOM     27  C   UNL     1      10.599   3.755  23.426  0.00  0.00    +0.023 A 
ATOM     28  C   UNL     1      10.240   5.006  23.935  0.00  0.00    +0.021 A 
ATOM     29  C   UNL     1       9.142   5.116  24.782  0.00  0.00    +0.043 A 
ATOM     30 CL   UNL     1       8.685   6.657  25.393  0.00  0.00    -0.083 Cl
ATOM     31  C   UNL     1       8.404   3.987  25.126  0.00  0.00    +0.050 A 
ENDBRANCH  21  24
ENDBRANCH   8  21
BRANCH   1  33
ATOM     32  C   UNL     1       6.089  -5.836  21.001  0.00  0.00    +0.277 C 
ATOM     33  O   UNL     1       7.190  -5.941  21.900  0.00  0.00    -0.495 OA
ENDBRANCH   1  33
TORSDOF 5
ENDMDL
MODEL 5
REMARK VINA RESULT:      -7.1      2.847      4.937
REMARK  Name = 
REMARK  6 active torsions:
REMARK  status: ('A' for Active; 'I' for Inactive)
REMARK    1  A    between atoms: C_1  and  O_2
REMARK    2  A    between atoms: O_2  and  C_3
REMARK    3  A    between atoms: N_9  and  S_10
REMARK    4  A    between atoms: S_10  and  C_13
REMARK    5  A    between atoms: C_22  and  C_24
REMARK    6  A    between atoms: C_26  and  N_27
REMARK                            x       y       z     vdW  Elec       q    Type
REMARK                         _______ _______ _______ _____ _____    ______ ____
ROOT
ATOM      1  C   UNL     1       4.363   0.409  26.427  0.00  0.00    +0.123 A 
ATOM      2  C   UNL     1       5.292   1.151  25.684  0.00  0.00    +0.058 A 
ATOM      3  C   UNL     1       6.587   0.673  25.365  0.00  0.00    +0.030 A 
ATOM      4  C   UNL     1       6.848  -0.613  25.853  0.00  0.00    +0.165 A 
ATOM      5  O   UNL     1       7.980  -1.368  25.680  0.00  0.00    -0.423 OA
ATOM      6  C   UNL     1       7.749  -2.499  26.401  0.00  0.00    +0.308 A 
ATOM      7  N   UNL     1       6.594  -2.530  27.026  0.00  0.00    -0.194 NA
ATOM      8  N   UNL     1       8.737  -3.475  26.615  0.00  0.00    -0.169 N 
ATOM      9  H   UNL     1       8.600  -3.913  27.526  0.00  0.00    +0.178 HD
ATOM     10  C   UNL     1       5.982  -1.363  26.633  0.00  0.00    +0.115 A 
ATOM     11  C   UNL     1       4.702  -0.859  26.912  0.00  0.00    +0.077 A 
ENDROOT
BRANCH   3  12
ATOM     12  C   UNL     1       7.560   1.469  24.593  0.00  0.00    -0.012 A 
ATOM     13  C   UNL     1       8.232   2.567  25.151  0.00  0.00    +0.009 A 
ATOM     14  C   UNL     1       9.159   3.303  24.411  0.00  0.00    +0.002 A 
ATOM     15  C   UNL     1       9.459   2.932  23.101  0.00  0.00    +0.023 A 
ATOM     16  C   UNL     1       8.857   1.817  22.528  0.00  0.00    +0.025 A 
ATOM     17  C   UNL     1       7.867   1.143  23.254  0.00  0.00    +0.031 A 
BRANCH  16  18
ATOM     18  N   UNL     1       9.071   1.514  21.177  0.00  0.00    -0.358 N 
ATOM     19  H   UNL     1      10.043   1.315  20.956  0.00  0.00    +0.142 HD
ATOM     20  H   UNL     1       8.445   0.807  20.807  0.00  0.00    +0.142 HD
ENDBRANCH  16  18
ENDBRANCH   3  12
BRANCH   8  21
ATOM     21  S   UNL     1       8.655  -4.723  25.484  0.00  0.00    +0.077 S 
ATOM     22  O   UNL     1       8.040  -5.870  26.111  0.00  0.00    -0.150 OA
ATOM     23  O   UNL     1       9.975  -4.854  24.904  0.00  0.00    -0.150 OA
BRANCH  21  24
ATOM     24  C   UNL     1       7.574  -4.163  24.199  0.00  0.00    +0.128 A 
ATOM     25  C   UNL     1       7.993  -3.271  23.211  0.00  0.00    +0.068 A 
ATOM     26 CL   UNL     1       9.557  -2.550  23.157  0.00  0.00    -0.082 Cl
ATOM     27  C   UNL     1       7.102  -2.923  22.185  0.00  0.00    +0.023 A 
ATOM     28  C   UNL     1       5.816  -3.467  22.140  0.00  0.00    +0.021 A 
ATOM     29  C   UNL     1       5.412  -4.364  23.125  0.00  0.00    +0.043 A 
ATOM     30 CL   UNL     1       3.838  -5.051  23.063  0.00  0.00    -0.083 Cl
ATOM     31  C   UNL     1       6.282  -4.714  24.154  0.00  0.00    +0.050 A 
ENDBRANCH  21  24
ENDBRANCH   8  21
BRANCH   1  33
ATOM     32  C   UNL     1       2.383   0.063  27.710  0.00  0.00    +0.277 C 
ATOM     33  O   UNL     1       3.096   0.826  26.741  0.00  0.00    -0.495 OA
ENDBRANCH   1  33
TORSDOF 5
ENDMDL
MODEL 6
REMARK VINA RESULT:      -7.1      2.203      3.382
REMARK  Name = 
REMARK  6 active torsions:
REMARK  status: ('A' for Active; 'I' for Inactive)
REMARK    1  A    between atoms: C_1  and  O_2
REMARK    2  A    between atoms: O_2  and  C_3
REMARK    3  A    between atoms: N_9  and  S_10
REMARK    4  A    between atoms: S_10  and  C_13
REMARK    5  A    between atoms: C_22  and  C_24
REMARK    6  A    between atoms: C_26  and  N_27
REMARK                            x       y       z     vdW  Elec       q    Type
REMARK                         _______ _______ _______ _____ _____    ______ ____
ROOT
ATOM      1  C   UNL     1       9.678   1.469  22.882  0.00  0.00    +0.123 A 
ATOM      2  C   UNL     1       8.736   1.710  23.891  0.00  0.00    +0.058 A 
ATOM      3  C   UNL     1       7.755   0.763  24.277  0.00  0.00    +0.030 A 
ATOM      4  C   UNL     1       7.822  -0.439  23.563  0.00  0.00    +0.165 A 
ATOM      5  O   UNL     1       7.050  -1.561  23.724  0.00  0.00    -0.423 OA
ATOM      6  C   UNL     1       7.475  -2.411  22.748  0.00  0.00    +0.308 A 
ATOM      7  N   UNL     1       8.425  -1.934  21.976  0.00  0.00    -0.194 NA
ATOM      8  N   UNL     1       6.828  -3.625  22.468  0.00  0.00    -0.169 N 
ATOM      9  H   UNL     1       6.906  -3.839  21.474  0.00  0.00    +0.178 HD
ATOM     10  C   UNL     1       8.701  -0.704  22.524  0.00  0.00    +0.115 A 
ATOM     11  C   UNL     1       9.668   0.256  22.184  0.00  0.00    +0.077 A 
ENDROOT
BRANCH   3  12
ATOM     12  C   UNL     1       6.761   1.033  25.333  0.00  0.00    -0.012 A 
ATOM     13  C   UNL     1       6.978   0.670  26.670  0.00  0.00    +0.009 A 
ATOM     14  C   UNL     1       6.032   0.944  27.659  0.00  0.00    +0.002 A 
ATOM     15  C   UNL     1       4.858   1.621  27.334  0.00  0.00    +0.023 A 
ATOM     16  C   UNL     1       4.628   2.048  26.031  0.00  0.00    +0.025 A 
ATOM     17  C   UNL     1       5.546   1.689  25.036  0.00  0.00    +0.031 A 
BRANCH  16  18
ATOM     18  N   UNL     1       3.400   2.625  25.682  0.00  0.00    -0.358 N 
ATOM     19  H   UNL     1       3.307   3.592  25.980  0.00  0.00    +0.142 HD
ATOM     20  H   UNL     1       3.146   2.502  24.708  0.00  0.00    +0.142 HD
ENDBRANCH  16  18
ENDBRANCH   3  12
BRANCH   8  21
ATOM     21  S   UNL     1       7.534  -4.926  23.277  0.00  0.00    +0.077 S 
ATOM     22  O   UNL     1       8.727  -4.457  23.944  0.00  0.00    -0.150 OA
ATOM     23  O   UNL     1       7.634  -6.011  22.324  0.00  0.00    -0.150 OA
BRANCH  21  24
ATOM     24  C   UNL     1       6.379  -5.428  24.520  0.00  0.00    +0.128 A 
ATOM     25  C   UNL     1       5.094  -5.874  24.206  0.00  0.00    +0.068 A 
ATOM     26 CL   UNL     1       4.448  -5.917  22.608  0.00  0.00    -0.082 Cl
ATOM     27  C   UNL     1       4.255  -6.320  25.238  0.00  0.00    +0.023 A 
ATOM     28  C   UNL     1       4.698  -6.332  26.563  0.00  0.00    +0.021 A 
ATOM     29  C   UNL     1       5.984  -5.895  26.864  0.00  0.00    +0.043 A 
ATOM     30 CL   UNL     1       6.539  -5.927  28.490  0.00  0.00    -0.083 Cl
ATOM     31  C   UNL     1       6.826  -5.443  25.852  0.00  0.00    +0.050 A 
ENDBRANCH  21  24
ENDBRANCH   8  21
BRANCH   1  33
ATOM     32  C   UNL     1      10.960   3.417  23.383  0.00  0.00    +0.277 C 
ATOM     33  O   UNL     1      10.653   2.350  22.490  0.00  0.00    -0.495 OA
ENDBRANCH   1  33
TORSDOF 5
ENDMDL
MODEL 7
REMARK VINA RESULT:      -7.0      1.909      2.050
REMARK  Name = 
REMARK  6 active torsions:
REMARK  status: ('A' for Active; 'I' for Inactive)
REMARK    1  A    between atoms: C_1  and  O_2
REMARK    2  A    between atoms: O_2  and  C_3
REMARK    3  A    between atoms: N_9  and  S_10
REMARK    4  A    between atoms: S_10  and  C_13
REMARK    5  A    between atoms: C_22  and  C_24
REMARK    6  A    between atoms: C_26  and  N_27
REMARK                            x       y       z     vdW  Elec       q    Type
REMARK                         _______ _______ _______ _____ _____    ______ ____
ROOT
ATOM      1  C   UNL     1      10.645   4.579  23.732  0.00  0.00    +0.123 A 
ATOM      2  C   UNL     1       9.466   4.677  24.484  0.00  0.00    +0.058 A 
ATOM      3  C   UNL     1       8.580   3.589  24.682  0.00  0.00    +0.030 A 
ATOM      4  C   UNL     1       8.998   2.404  24.064  0.00  0.00    +0.165 A 
ATOM      5  O   UNL     1       8.392   1.174  24.099  0.00  0.00    -0.423 OA
ATOM      6  C   UNL     1       9.160   0.392  23.292  0.00  0.00    +0.308 A 
ATOM      7  N   UNL     1      10.179   1.006  22.735  0.00  0.00    -0.194 NA
ATOM      8  N   UNL     1       8.791  -0.915  22.932  0.00  0.00    -0.169 N 
ATOM      9  H   UNL     1       9.132  -1.125  21.994  0.00  0.00    +0.178 HD
ATOM     10  C   UNL     1      10.126   2.272  23.269  0.00  0.00    +0.115 A 
ATOM     11  C   UNL     1      10.986   3.370  23.113  0.00  0.00    +0.077 A 
ENDROOT
BRANCH   3  12
ATOM     12  C   UNL     1       7.337   3.709  25.466  0.00  0.00    -0.012 A 
ATOM     13  C   UNL     1       7.142   3.006  26.665  0.00  0.00    +0.009 A 
ATOM     14  C   UNL     1       5.963   3.140  27.400  0.00  0.00    +0.002 A 
ATOM     15  C   UNL     1       4.964   4.010  26.967  0.00  0.00    +0.023 A 
ATOM     16  C   UNL     1       5.140   4.767  25.814  0.00  0.00    +0.025 A 
ATOM     17  C   UNL     1       6.289   4.556  25.043  0.00  0.00    +0.031 A 
BRANCH  16  18
ATOM     18  N   UNL     1       4.092   5.553  25.317  0.00  0.00    -0.358 N 
ATOM     19  H   UNL     1       4.405   6.397  24.846  0.00  0.00    +0.142 HD
ATOM     20  H   UNL     1       3.414   5.039  24.765  0.00  0.00    +0.142 HD
ENDBRANCH  16  18
ENDBRANCH   3  12
BRANCH   8  21
ATOM     21  S   UNL     1       9.479  -2.073  23.946  0.00  0.00    +0.077 S 
ATOM     22  O   UNL     1       9.706  -1.473  25.240  0.00  0.00    -0.150 OA
ATOM     23  O   UNL     1      10.595  -2.653  23.228  0.00  0.00    -0.150 OA
BRANCH  21  24
ATOM     24  C   UNL     1       8.267  -3.348  24.143  0.00  0.00    +0.128 A 
ATOM     25  C   UNL     1       8.510  -4.495  24.901  0.00  0.00    +0.068 A 
ATOM     26 CL   UNL     1      10.016  -4.852  25.661  0.00  0.00    -0.082 Cl
ATOM     27  C   UNL     1       7.480  -5.432  25.069  0.00  0.00    +0.023 A 
ATOM     28  C   UNL     1       6.223  -5.221  24.499  0.00  0.00    +0.021 A 
ATOM     29  C   UNL     1       5.988  -4.069  23.754  0.00  0.00    +0.043 A 
ATOM     30 CL   UNL     1       4.436  -3.795  23.068  0.00  0.00    -0.083 Cl
ATOM     31  C   UNL     1       7.002  -3.132  23.572  0.00  0.00    +0.050 A 
ENDBRANCH  21  24
ENDBRANCH   8  21
BRANCH   1  33
ATOM     32  C   UNL     1      12.802   5.257  22.974  0.00  0.00    +0.277 C 
ATOM     33  O   UNL     1      11.536   5.600  23.532  0.00  0.00    -0.495 OA
ENDBRANCH   1  33
TORSDOF 5
ENDMDL
MODEL 8
REMARK VINA RESULT:      -7.0      3.862      8.657
REMARK  Name = 
REMARK  6 active torsions:
REMARK  status: ('A' for Active; 'I' for Inactive)
REMARK    1  A    between atoms: C_1  and  O_2
REMARK    2  A    between atoms: O_2  and  C_3
REMARK    3  A    between atoms: N_9  and  S_10
REMARK    4  A    between atoms: S_10  and  C_13
REMARK    5  A    between atoms: C_22  and  C_24
REMARK    6  A    between atoms: C_26  and  N_27
REMARK                            x       y       z     vdW  Elec       q    Type
REMARK                         _______ _______ _______ _____ _____    ______ ____
ROOT
ATOM      1  C   UNL     1       3.527  -5.257  23.573  0.00  0.00    +0.123 A 
ATOM      2  C   UNL     1       3.564  -5.613  24.929  0.00  0.00    +0.058 A 
ATOM      3  C   UNL     1       4.572  -5.167  25.819  0.00  0.00    +0.030 A 
ATOM      4  C   UNL     1       5.523  -4.333  25.219  0.00  0.00    +0.165 A 
ATOM      5  O   UNL     1       6.591  -3.708  25.811  0.00  0.00    -0.423 OA
ATOM      6  C   UNL     1       7.227  -3.076  24.787  0.00  0.00    +0.308 A 
ATOM      7  N   UNL     1       6.681  -3.250  23.606  0.00  0.00    -0.194 NA
ATOM      8  N   UNL     1       8.470  -2.441  24.946  0.00  0.00    -0.169 N 
ATOM      9  H   UNL     1       9.007  -2.508  24.081  0.00  0.00    +0.178 HD
ATOM     10  C   UNL     1       5.557  -3.996  23.875  0.00  0.00    +0.115 A 
ATOM     11  C   UNL     1       4.529  -4.444  23.031  0.00  0.00    +0.077 A 
ENDROOT
BRANCH   3  12
ATOM     12  C   UNL     1       4.606  -5.559  27.241  0.00  0.00    -0.012 A 
ATOM     13  C   UNL     1       3.579  -5.215  28.132  0.00  0.00    +0.009 A 
ATOM     14  C   UNL     1       3.621  -5.603  29.472  0.00  0.00    +0.002 A 
ATOM     15  C   UNL     1       4.681  -6.376  29.942  0.00  0.00    +0.023 A 
ATOM     16  C   UNL     1       5.692  -6.786  29.080  0.00  0.00    +0.025 A 
ATOM     17  C   UNL     1       5.679  -6.315  27.761  0.00  0.00    +0.031 A 
BRANCH  16  18
ATOM     18  N   UNL     1       6.813  -7.463  29.576  0.00  0.00    -0.358 N 
ATOM     19  H   UNL     1       7.684  -7.186  29.132  0.00  0.00    +0.142 HD
ATOM     20  H   UNL     1       6.885  -7.460  30.588  0.00  0.00    +0.142 HD
ENDBRANCH  16  18
ENDBRANCH   3  12
BRANCH   8  21
ATOM     21  S   UNL     1       8.308  -0.792  25.262  0.00  0.00    +0.077 S 
ATOM     22  O   UNL     1       9.392  -0.383  26.126  0.00  0.00    -0.150 OA
ATOM     23  O   UNL     1       6.941  -0.577  25.689  0.00  0.00    -0.150 OA
BRANCH  21  24
ATOM     24  C   UNL     1       8.507   0.036  23.711  0.00  0.00    +0.128 A 
ATOM     25  C   UNL     1       9.403  -0.411  22.738  0.00  0.00    +0.068 A 
ATOM     26 CL   UNL     1      10.468  -1.750  22.945  0.00  0.00    -0.082 Cl
ATOM     27  C   UNL     1       9.459   0.257  21.506  0.00  0.00    +0.023 A 
ATOM     28  C   UNL     1       8.625   1.346  21.244  0.00  0.00    +0.021 A 
ATOM     29  C   UNL     1       7.728   1.777  22.218  0.00  0.00    +0.043 A 
ATOM     30 CL   UNL     1       6.686   3.104  21.893  0.00  0.00    -0.083 Cl
ATOM     31  C   UNL     1       7.665   1.130  23.449  0.00  0.00    +0.050 A 
ENDBRANCH  21  24
ENDBRANCH   8  21
BRANCH   1  33
ATOM     32  C   UNL     1       1.213  -5.308  22.996  0.00  0.00    +0.277 C 
ATOM     33  O   UNL     1       2.561  -5.650  22.684  0.00  0.00    -0.495 OA
ENDBRANCH   1  33
TORSDOF 5
ENDMDL
MODEL 9
REMARK VINA RESULT:      -6.9      1.754      2.140
REMARK  Name = 
REMARK  6 active torsions:
REMARK  status: ('A' for Active; 'I' for Inactive)
REMARK    1  A    between atoms: C_1  and  O_2
REMARK    2  A    between atoms: O_2  and  C_3
REMARK    3  A    between atoms: N_9  and  S_10
REMARK    4  A    between atoms: S_10  and  C_13
REMARK    5  A    between atoms: C_22  and  C_24
REMARK    6  A    between atoms: C_26  and  N_27
REMARK                            x       y       z     vdW  Elec       q    Type
REMARK                         _______ _______ _______ _____ _____    ______ ____
ROOT
ATOM      1  C   UNL     1       9.857   3.707  23.538  0.00  0.00    +0.123 A 
ATOM      2  C   UNL     1       8.465   3.836  23.635  0.00  0.00    +0.058 A 
ATOM      3  C   UNL     1       7.573   2.748  23.469  0.00  0.00    +0.030 A 
ATOM      4  C   UNL     1       8.213   1.531  23.208  0.00  0.00    +0.165 A 
ATOM      5  O   UNL     1       7.642   0.295  23.041  0.00  0.00    -0.423 OA
ATOM      6  C   UNL     1       8.687  -0.528  22.751  0.00  0.00    +0.308 A 
ATOM      7  N   UNL     1       9.859   0.064  22.700  0.00  0.00    -0.194 NA
ATOM      8  N   UNL     1       8.511  -1.864  22.355  0.00  0.00    -0.169 N 
ATOM      9  H   UNL     1       9.251  -2.134  21.708  0.00  0.00    +0.178 HD
ATOM     10  C   UNL     1       9.581   1.364  23.052  0.00  0.00    +0.115 A 
ATOM     11  C   UNL     1      10.430   2.465  23.242  0.00  0.00    +0.077 A 
ENDROOT
BRANCH   3  12
ATOM     12  C   UNL     1       6.109   2.899  23.561  0.00  0.00    -0.012 A 
ATOM     13  C   UNL     1       5.406   2.636  24.747  0.00  0.00    +0.009 A 
ATOM     14  C   UNL     1       4.021   2.796  24.820  0.00  0.00    +0.002 A 
ATOM     15  C   UNL     1       3.312   3.257  23.713  0.00  0.00    +0.023 A 
ATOM     16  C   UNL     1       3.976   3.583  22.535  0.00  0.00    +0.025 A 
ATOM     17  C   UNL     1       5.351   3.334  22.451  0.00  0.00    +0.031 A 
BRANCH  16  18
ATOM     18  N   UNL     1       3.251   3.935  21.389  0.00  0.00    -0.358 N 
ATOM     19  H   UNL     1       3.404   4.895  21.092  0.00  0.00    +0.142 HD
ATOM     20  H   UNL     1       3.347   3.280  20.621  0.00  0.00    +0.142 HD
ENDBRANCH  16  18
ENDBRANCH   3  12
BRANCH   8  21
ATOM     21  S   UNL     1       8.619  -2.933  23.654  0.00  0.00    +0.077 S 
ATOM     22  O   UNL     1       9.868  -2.696  24.340  0.00  0.00    -0.150 OA
ATOM     23  O   UNL     1       8.333  -4.256  23.137  0.00  0.00    -0.150 OA
BRANCH  21  24
ATOM     24  C   UNL     1       7.303  -2.511  24.760  0.00  0.00    +0.128 A 
ATOM     25  C   UNL     1       7.475  -1.609  25.812  0.00  0.00    +0.068 A 
ATOM     26 CL   UNL     1       8.978  -0.867  26.214  0.00  0.00    -0.082 Cl
ATOM     27  C   UNL     1       6.371  -1.270  26.607  0.00  0.00    +0.023 A 
ATOM     28  C   UNL     1       5.111  -1.815  26.349  0.00  0.00    +0.021 A 
ATOM     29  C   UNL     1       4.948  -2.705  25.291  0.00  0.00    +0.043 A 
ATOM     30 CL   UNL     1       3.395  -3.360  24.957  0.00  0.00    -0.083 Cl
ATOM     31  C   UNL     1       6.035  -3.056  24.496  0.00  0.00    +0.050 A 
ENDBRANCH  21  24
ENDBRANCH   8  21
BRANCH   1  33
ATOM     32  C   UNL     1      12.090   4.501  23.269  0.00  0.00    +0.277 C 
ATOM     33  O   UNL     1      10.755   4.729  23.710  0.00  0.00    -0.495 OA
ENDBRANCH   1  33
TORSDOF 5
ENDMDL
