MODEL 1
REMARK VINA RESULT:      -6.1      0.000      0.000
REMARK  Name = 
REMARK  7 active torsions:
REMARK  status: ('A' for Active; 'I' for Inactive)
REMARK    1  A    between atoms: C_1  and  C_2
REMARK    2  A    between atoms: C_2  and  C_3
REMARK    3  A    between atoms: C_4  and  C_5
REMARK    4  A    between atoms: C_11  and  O_12
REMARK    5  A    between atoms: O_12  and  C_13
REMARK    6  A    between atoms: C_17  and  C_18
REMARK    7  A    between atoms: C_19  and  C_20
REMARK                            x       y       z     vdW  Elec       q    Type
REMARK                         _______ _______ _______ _____ _____    ______ ____
ROOT
ATOM      1  C   UNL     1       8.052   3.044  24.486  0.00  0.00    +0.015 A 
ATOM      2  C   UNL     1       9.495   3.350  24.228  0.00  0.00    +0.151 A 
ATOM      3  C   UNL     1       9.857   4.608  23.869  0.00  0.00    +0.120 A 
ATOM      4  I   UNL     1      11.797   5.147  23.352  0.00  0.00    -0.034 I 
ATOM      5  C   UNL     1       8.810   5.676  23.721  0.00  0.00    +0.266 A 
ATOM      6  O   UNL     1       9.069   6.858  23.524  0.00  0.00    -0.267 OA
ATOM      7  N   UNL     1       7.520   5.247  23.793  0.00  0.00    -0.325 N 
ATOM      8  H   UNL     1       6.830   5.972  23.649  0.00  0.00    +0.169 HD
ATOM      9  C   UNL     1       7.128   3.994  24.189  0.00  0.00    +0.023 A 
ATOM     10  C   UNL     1       5.631   3.834  24.332  0.00  0.00    +0.064 C 
ENDROOT
BRANCH   1  12
ATOM     11  C   UNL     1       7.049   0.663  24.448  0.00  0.00    +0.009 C 
ATOM     12  C   UNL     1       7.539   1.846  25.257  0.00  0.00    +0.037 C 
ENDBRANCH   1  12
BRANCH   2  13
ATOM     13  O   UNL     1      10.460   2.347  24.018  0.00  0.00    -0.454 OA
BRANCH  13  14
ATOM     14  C   UNL     1      10.308   1.200  23.289  0.00  0.00    +0.129 A 
ATOM     15  C   UNL     1      10.656  -0.074  23.725  0.00  0.00    +0.054 A 
ATOM     16  C   UNL     1      10.100  -1.193  23.086  0.00  0.00    -0.021 A 
ATOM     17  C   UNL     1       9.505  -1.016  21.826  0.00  0.00    +0.008 A 
ATOM     18  C   UNL     1       9.384   0.255  21.267  0.00  0.00    +0.004 A 
ATOM     19  C   UNL     1       9.746   1.367  22.021  0.00  0.00    +0.046 A 
BRANCH  16  20
ATOM     20  C   UNL     1       9.882  -2.491  23.766  0.00  0.00    +0.019 C 
ATOM     21  C   UNL     1       9.011  -2.764  24.753  0.00  0.00    +0.089 C 
BRANCH  21  22
ATOM     22  C   UNL     1       8.758  -4.105  25.170  0.00  0.00    +0.091 C 
ATOM     23  N   UNL     1       8.588  -5.197  25.513  0.00  0.00    -0.191 NA
ENDBRANCH  21  22
ENDBRANCH  16  20
ENDBRANCH  13  14
ENDBRANCH   2  13
TORSDOF 5
ENDMDL
MODEL 2
REMARK VINA RESULT:      -6.0      4.369      6.209
REMARK  Name = 
REMARK  7 active torsions:
REMARK  status: ('A' for Active; 'I' for Inactive)
REMARK    1  A    between atoms: C_1  and  C_2
REMARK    2  A    between atoms: C_2  and  C_3
REMARK    3  A    between atoms: C_4  and  C_5
REMARK    4  A    between atoms: C_11  and  O_12
REMARK    5  A    between atoms: O_12  and  C_13
REMARK    6  A    between atoms: C_17  and  C_18
REMARK    7  A    between atoms: C_19  and  C_20
REMARK                            x       y       z     vdW  Elec       q    Type
REMARK                         _______ _______ _______ _____ _____    ______ ____
ROOT
ATOM      1  C   UNL     1       9.831  -1.171  23.970  0.00  0.00    +0.015 A 
ATOM      2  C   UNL     1       8.830  -2.153  24.496  0.00  0.00    +0.151 A 
ATOM      3  C   UNL     1       8.194  -1.896  25.667  0.00  0.00    +0.120 A 
ATOM      4  I   UNL     1       6.884  -3.224  26.584  0.00  0.00    -0.034 I 
ATOM      5  C   UNL     1       8.506  -0.639  26.429  0.00  0.00    +0.266 A 
ATOM      6  O   UNL     1       7.886  -0.275  27.423  0.00  0.00    -0.267 OA
ATOM      7  N   UNL     1       9.560   0.085  25.961  0.00  0.00    -0.325 N 
ATOM      8  H   UNL     1       9.781   0.905  26.511  0.00  0.00    +0.169 HD
ATOM      9  C   UNL     1      10.195  -0.131  24.765  0.00  0.00    +0.023 A 
ATOM     10  C   UNL     1      11.228   0.917  24.418  0.00  0.00    +0.064 C 
ENDROOT
BRANCH   1  12
ATOM     11  C   UNL     1       9.483  -0.301  21.562  0.00  0.00    +0.009 C 
ATOM     12  C   UNL     1      10.318  -1.104  22.537  0.00  0.00    +0.037 C 
ENDBRANCH   1  12
BRANCH   2  13
ATOM     13  O   UNL     1       8.743  -3.477  24.025  0.00  0.00    -0.454 OA
BRANCH  13  14
ATOM     14  C   UNL     1       7.758  -4.006  23.239  0.00  0.00    +0.129 A 
ATOM     15  C   UNL     1       7.228  -5.285  23.378  0.00  0.00    +0.054 A 
ATOM     16  C   UNL     1       5.979  -5.575  22.806  0.00  0.00    -0.021 A 
ATOM     17  C   UNL     1       5.474  -4.705  21.827  0.00  0.00    +0.008 A 
ATOM     18  C   UNL     1       6.148  -3.528  21.502  0.00  0.00    +0.004 A 
ATOM     19  C   UNL     1       7.268  -3.160  22.242  0.00  0.00    +0.046 A 
BRANCH  16  20
ATOM     20  C   UNL     1       5.057  -6.601  23.347  0.00  0.00    +0.019 C 
ATOM     21  C   UNL     1       4.570  -6.688  24.598  0.00  0.00    +0.089 C 
BRANCH  21  22
ATOM     22  C   UNL     1       3.527  -7.604  24.926  0.00  0.00    +0.091 C 
ATOM     23  N   UNL     1       2.668  -8.345  25.158  0.00  0.00    -0.191 NA
ENDBRANCH  21  22
ENDBRANCH  16  20
ENDBRANCH  13  14
ENDBRANCH   2  13
TORSDOF 5
ENDMDL
MODEL 3
REMARK VINA RESULT:      -5.9      4.379      8.022
REMARK  Name = 
REMARK  7 active torsions:
REMARK  status: ('A' for Active; 'I' for Inactive)
REMARK    1  A    between atoms: C_1  and  C_2
REMARK    2  A    between atoms: C_2  and  C_3
REMARK    3  A    between atoms: C_4  and  C_5
REMARK    4  A    between atoms: C_11  and  O_12
REMARK    5  A    between atoms: O_12  and  C_13
REMARK    6  A    between atoms: C_17  and  C_18
REMARK    7  A    between atoms: C_19  and  C_20
REMARK                            x       y       z     vdW  Elec       q    Type
REMARK                         _______ _______ _______ _____ _____    ______ ____
ROOT
ATOM      1  C   UNL     1       7.231  -4.333  25.711  0.00  0.00    +0.015 A 
ATOM      2  C   UNL     1       7.236  -4.415  24.215  0.00  0.00    +0.151 A 
ATOM      3  C   UNL     1       6.370  -5.251  23.589  0.00  0.00    +0.120 A 
ATOM      4  I   UNL     1       6.353  -5.568  21.535  0.00  0.00    -0.034 I 
ATOM      5  C   UNL     1       5.426  -6.095  24.399  0.00  0.00    +0.266 A 
ATOM      6  O   UNL     1       4.533  -6.777  23.907  0.00  0.00    -0.267 OA
ATOM      7  N   UNL     1       5.634  -6.084  25.743  0.00  0.00    -0.325 N 
ATOM      8  H   UNL     1       5.016  -6.690  26.267  0.00  0.00    +0.169 HD
ATOM      9  C   UNL     1       6.474  -5.223  26.403  0.00  0.00    +0.023 A 
ATOM     10  C   UNL     1       6.396  -5.321  27.910  0.00  0.00    +0.064 C 
ENDROOT
BRANCH   1  12
ATOM     11  C   UNL     1       7.114  -1.866  26.469  0.00  0.00    +0.009 C 
ATOM     12  C   UNL     1       7.824  -3.202  26.525  0.00  0.00    +0.037 C 
ENDBRANCH   1  12
BRANCH   2  13
ATOM     13  O   UNL     1       8.297  -3.925  23.430  0.00  0.00    -0.454 OA
BRANCH  13  14
ATOM     14  C   UNL     1       8.598  -2.615  23.181  0.00  0.00    +0.129 A 
ATOM     15  C   UNL     1       7.705  -1.671  22.687  0.00  0.00    +0.054 A 
ATOM     16  C   UNL     1       7.990  -0.306  22.848  0.00  0.00    -0.021 A 
ATOM     17  C   UNL     1       9.304   0.068  23.171  0.00  0.00    +0.008 A 
ATOM     18  C   UNL     1      10.279  -0.896  23.422  0.00  0.00    +0.004 A 
ATOM     19  C   UNL     1       9.912  -2.238  23.470  0.00  0.00    +0.046 A 
BRANCH  16  20
ATOM     20  C   UNL     1       6.941   0.736  22.942  0.00  0.00    +0.019 C 
ATOM     21  C   UNL     1       6.999   2.001  22.489  0.00  0.00    +0.089 C 
BRANCH  21  22
ATOM     22  C   UNL     1       5.839   2.832  22.459  0.00  0.00    +0.091 C 
ATOM     23  N   UNL     1       4.878   3.477  22.436  0.00  0.00    -0.191 NA
ENDBRANCH  21  22
ENDBRANCH  16  20
ENDBRANCH  13  14
ENDBRANCH   2  13
TORSDOF 5
ENDMDL
MODEL 4
REMARK VINA RESULT:      -5.9      3.684      7.561
REMARK  Name = 
REMARK  7 active torsions:
REMARK  status: ('A' for Active; 'I' for Inactive)
REMARK    1  A    between atoms: C_1  and  C_2
REMARK    2  A    between atoms: C_2  and  C_3
REMARK    3  A    between atoms: C_4  and  C_5
REMARK    4  A    between atoms: C_11  and  O_12
REMARK    5  A    between atoms: O_12  and  C_13
REMARK    6  A    between atoms: C_17  and  C_18
REMARK    7  A    between atoms: C_19  and  C_20
REMARK                            x       y       z     vdW  Elec       q    Type
REMARK                         _______ _______ _______ _____ _____    ______ ____
ROOT
ATOM      1  C   UNL     1       5.879  -4.391  23.708  0.00  0.00    +0.015 A 
ATOM      2  C   UNL     1       6.632  -3.204  24.226  0.00  0.00    +0.151 A 
ATOM      3  C   UNL     1       7.228  -3.270  25.443  0.00  0.00    +0.120 A 
ATOM      4  I   UNL     1       8.189  -1.664  26.346  0.00  0.00    -0.034 I 
ATOM      5  C   UNL     1       7.120  -4.525  26.263  0.00  0.00    +0.266 A 
ATOM      6  O   UNL     1       7.732  -4.708  27.310  0.00  0.00    -0.267 OA
ATOM      7  N   UNL     1       6.261  -5.467  25.784  0.00  0.00    -0.325 N 
ATOM      8  H   UNL     1       6.169  -6.286  26.372  0.00  0.00    +0.169 HD
ATOM      9  C   UNL     1       5.676  -5.442  24.545  0.00  0.00    +0.023 A 
ATOM     10  C   UNL     1       4.894  -6.691  24.207  0.00  0.00    +0.064 C 
ENDROOT
BRANCH   1  12
ATOM     11  C   UNL     1       6.558  -5.272  21.375  0.00  0.00    +0.009 C 
ATOM     12  C   UNL     1       5.511  -4.625  22.257  0.00  0.00    +0.037 C 
ENDBRANCH   1  12
BRANCH   2  13
ATOM     13  O   UNL     1       6.488  -1.914  23.679  0.00  0.00    -0.454 OA
BRANCH  13  14
ATOM     14  C   UNL     1       7.397  -1.241  22.913  0.00  0.00    +0.129 A 
ATOM     15  C   UNL     1       7.401   0.134  22.703  0.00  0.00    +0.054 A 
ATOM     16  C   UNL     1       8.575   0.755  22.250  0.00  0.00    -0.021 A 
ATOM     17  C   UNL     1       9.583  -0.046  21.690  0.00  0.00    +0.008 A 
ATOM     18  C   UNL     1       9.461  -1.435  21.671  0.00  0.00    +0.004 A 
ATOM     19  C   UNL     1       8.387  -2.032  22.324  0.00  0.00    +0.046 A 
BRANCH  16  20
ATOM     20  C   UNL     1       8.917   2.165  22.555  0.00  0.00    +0.019 C 
ATOM     21  C   UNL     1       9.509   2.644  23.663  0.00  0.00    +0.089 C 
BRANCH  21  22
ATOM     22  C   UNL     1       9.969   3.993  23.734  0.00  0.00    +0.091 C 
ATOM     23  N   UNL     1      10.324   5.091  23.822  0.00  0.00    -0.191 NA
ENDBRANCH  21  22
ENDBRANCH  16  20
ENDBRANCH  13  14
ENDBRANCH   2  13
TORSDOF 5
ENDMDL
MODEL 5
REMARK VINA RESULT:      -5.8      5.399      8.842
REMARK  Name = 
REMARK  7 active torsions:
REMARK  status: ('A' for Active; 'I' for Inactive)
REMARK    1  A    between atoms: C_1  and  C_2
REMARK    2  A    between atoms: C_2  and  C_3
REMARK    3  A    between atoms: C_4  and  C_5
REMARK    4  A    between atoms: C_11  and  O_12
REMARK    5  A    between atoms: O_12  and  C_13
REMARK    6  A    between atoms: C_17  and  C_18
REMARK    7  A    between atoms: C_19  and  C_20
REMARK                            x       y       z     vdW  Elec       q    Type
REMARK                         _______ _______ _______ _____ _____    ______ ____
ROOT
ATOM      1  C   UNL     1       6.618  -5.221  23.877  0.00  0.00    +0.015 A 
ATOM      2  C   UNL     1       6.226  -5.406  25.311  0.00  0.00    +0.151 A 
ATOM      3  C   UNL     1       5.214  -6.256  25.622  0.00  0.00    +0.120 A 
ATOM      4  I   UNL     1       4.474  -6.512  27.547  0.00  0.00    -0.034 I 
ATOM      5  C   UNL     1       4.491  -6.991  24.529  0.00  0.00    +0.266 A 
ATOM      6  O   UNL     1       3.655  -7.865  24.736  0.00  0.00    -0.267 OA
ATOM      7  N   UNL     1       4.799  -6.608  23.260  0.00  0.00    -0.325 N 
ATOM      8  H   UNL     1       4.271  -7.084  22.540  0.00  0.00    +0.169 HD
ATOM      9  C   UNL     1       5.838  -5.782  22.917  0.00  0.00    +0.023 A 
ATOM     10  C   UNL     1       6.053  -5.649  21.426  0.00  0.00    +0.064 C 
ENDROOT
BRANCH   1  12
ATOM     11  C   UNL     1       7.960  -3.172  23.052  0.00  0.00    +0.009 C 
ATOM     12  C   UNL     1       7.936  -4.646  23.400  0.00  0.00    +0.037 C 
ENDBRANCH   1  12
BRANCH   2  13
ATOM     13  O   UNL     1       6.619  -4.515  26.328  0.00  0.00    -0.454 OA
BRANCH  13  14
ATOM     14  C   UNL     1       6.458  -3.158  26.338  0.00  0.00    +0.129 A 
ATOM     15  C   UNL     1       7.480  -2.235  26.533  0.00  0.00    +0.054 A 
ATOM     16  C   UNL     1       7.288  -0.904  26.132  0.00  0.00    -0.021 A 
ATOM     17  C   UNL     1       5.978  -0.463  25.882  0.00  0.00    +0.008 A 
ATOM     18  C   UNL     1       4.905  -1.351  25.937  0.00  0.00    +0.004 A 
ATOM     19  C   UNL     1       5.153  -2.708  26.122  0.00  0.00    +0.046 A 
BRANCH  16  20
ATOM     20  C   UNL     1       8.397  -0.013  25.717  0.00  0.00    +0.019 C 
ATOM     21  C   UNL     1       9.545  -0.361  25.108  0.00  0.00    +0.089 C 
BRANCH  21  22
ATOM     22  C   UNL     1      10.431   0.623  24.576  0.00  0.00    +0.091 C 
ATOM     23  N   UNL     1      11.138   1.444  24.171  0.00  0.00    -0.191 NA
ENDBRANCH  21  22
ENDBRANCH  16  20
ENDBRANCH  13  14
ENDBRANCH   2  13
TORSDOF 5
ENDMDL
MODEL 6
REMARK VINA RESULT:      -5.7      2.833      4.047
REMARK  Name = 
REMARK  7 active torsions:
REMARK  status: ('A' for Active; 'I' for Inactive)
REMARK    1  A    between atoms: C_1  and  C_2
REMARK    2  A    between atoms: C_2  and  C_3
REMARK    3  A    between atoms: C_4  and  C_5
REMARK    4  A    between atoms: C_11  and  O_12
REMARK    5  A    between atoms: O_12  and  C_13
REMARK    6  A    between atoms: C_17  and  C_18
REMARK    7  A    between atoms: C_19  and  C_20
REMARK                            x       y       z     vdW  Elec       q    Type
REMARK                         _______ _______ _______ _____ _____    ______ ____
ROOT
ATOM      1  C   UNL     1       9.492   2.141  24.207  0.00  0.00    +0.015 A 
ATOM      2  C   UNL     1       8.020   1.931  24.390  0.00  0.00    +0.151 A 
ATOM      3  C   UNL     1       7.145   2.783  23.798  0.00  0.00    +0.120 A 
ATOM      4  I   UNL     1       5.086   2.696  24.071  0.00  0.00    -0.034 I 
ATOM      5  C   UNL     1       7.658   3.932  22.977  0.00  0.00    +0.266 A 
ATOM      6  O   UNL     1       6.936   4.667  22.311  0.00  0.00    -0.267 OA
ATOM      7  N   UNL     1       9.002   4.139  23.032  0.00  0.00    -0.325 N 
ATOM      8  H   UNL     1       9.323   4.943  22.507  0.00  0.00    +0.169 HD
ATOM      9  C   UNL     1       9.910   3.277  23.590  0.00  0.00    +0.023 A 
ATOM     10  C   UNL     1      11.353   3.675  23.373  0.00  0.00    +0.064 C 
ENDROOT
BRANCH   1  12
ATOM     11  C   UNL     1      10.538  -0.132  23.563  0.00  0.00    +0.009 C 
ATOM     12  C   UNL     1      10.559   1.094  24.451  0.00  0.00    +0.037 C 
ENDBRANCH   1  12
BRANCH   2  13
ATOM     13  O   UNL     1       7.489   1.104  25.399  0.00  0.00    -0.454 OA
BRANCH  13  14
ATOM     14  C   UNL     1       7.507  -0.262  25.436  0.00  0.00    +0.129 A 
ATOM     15  C   UNL     1       6.851  -1.093  24.534  0.00  0.00    +0.054 A 
ATOM     16  C   UNL     1       7.253  -2.432  24.418  0.00  0.00    -0.021 A 
ATOM     17  C   UNL     1       8.042  -2.985  25.439  0.00  0.00    +0.008 A 
ATOM     18  C   UNL     1       8.496  -2.195  26.495  0.00  0.00    +0.004 A 
ATOM     19  C   UNL     1       8.264  -0.823  26.467  0.00  0.00    +0.046 A 
BRANCH  16  20
ATOM     20  C   UNL     1       7.106  -3.219  23.170  0.00  0.00    +0.019 C 
ATOM     21  C   UNL     1       6.425  -4.366  23.000  0.00  0.00    +0.089 C 
BRANCH  21  22
ATOM     22  C   UNL     1       6.191  -4.903  21.698  0.00  0.00    +0.091 C 
ATOM     23  N   UNL     1       6.036  -5.348  20.641  0.00  0.00    -0.191 NA
ENDBRANCH  21  22
ENDBRANCH  16  20
ENDBRANCH  13  14
ENDBRANCH   2  13
TORSDOF 5
ENDMDL
MODEL 7
REMARK VINA RESULT:      -5.5      3.139      5.056
REMARK  Name = 
REMARK  7 active torsions:
REMARK  status: ('A' for Active; 'I' for Inactive)
REMARK    1  A    between atoms: C_1  and  C_2
REMARK    2  A    between atoms: C_2  and  C_3
REMARK    3  A    between atoms: C_4  and  C_5
REMARK    4  A    between atoms: C_11  and  O_12
REMARK    5  A    between atoms: O_12  and  C_13
REMARK    6  A    between atoms: C_17  and  C_18
REMARK    7  A    between atoms: C_19  and  C_20
REMARK                            x       y       z     vdW  Elec       q    Type
REMARK                         _______ _______ _______ _____ _____    ______ ____
ROOT
ATOM      1  C   UNL     1       9.395   0.031  23.702  0.00  0.00    +0.015 A 
ATOM      2  C   UNL     1       8.633  -0.302  24.948  0.00  0.00    +0.151 A 
ATOM      3  C   UNL     1       7.811   0.628  25.497  0.00  0.00    +0.120 A 
ATOM      4  I   UNL     1       6.798   0.355  27.291  0.00  0.00    -0.034 I 
ATOM      5  C   UNL     1       7.682   1.982  24.860  0.00  0.00    +0.266 A 
ATOM      6  O   UNL     1       6.869   2.828  25.222  0.00  0.00    -0.267 OA
ATOM      7  N   UNL     1       8.555   2.242  23.850  0.00  0.00    -0.325 N 
ATOM      8  H   UNL     1       8.481   3.174  23.462  0.00  0.00    +0.169 HD
ATOM      9  C   UNL     1       9.368   1.313  23.252  0.00  0.00    +0.023 A 
ATOM     10  C   UNL     1      10.120   1.835  22.049  0.00  0.00    +0.064 C 
ENDROOT
BRANCH   1  12
ATOM     11  C   UNL     1       9.091  -1.703  21.810  0.00  0.00    +0.009 C 
ATOM     12  C   UNL     1      10.020  -0.981  22.764  0.00  0.00    +0.037 C 
ENDBRANCH   1  12
BRANCH   2  13
ATOM     13  O   UNL     1       8.960  -1.399  25.768  0.00  0.00    -0.454 OA
BRANCH  13  14
ATOM     14  C   UNL     1       8.400  -2.645  25.735  0.00  0.00    +0.129 A 
ATOM     15  C   UNL     1       7.541  -3.108  24.743  0.00  0.00    +0.054 A 
ATOM     16  C   UNL     1       7.354  -4.490  24.589  0.00  0.00    -0.021 A 
ATOM     17  C   UNL     1       7.741  -5.339  25.638  0.00  0.00    +0.008 A 
ATOM     18  C   UNL     1       8.386  -4.831  26.765  0.00  0.00    +0.004 A 
ATOM     19  C   UNL     1       8.754  -3.489  26.791  0.00  0.00    +0.046 A 
BRANCH  16  20
ATOM     20  C   UNL     1       7.005  -5.122  23.295  0.00  0.00    +0.019 C 
ATOM     21  C   UNL     1       6.182  -4.645  22.344  0.00  0.00    +0.089 C 
BRANCH  21  22
ATOM     22  C   UNL     1       6.102  -5.256  21.057  0.00  0.00    +0.091 C 
ATOM     23  N   UNL     1       6.003  -5.763  20.022  0.00  0.00    -0.191 NA
ENDBRANCH  21  22
ENDBRANCH  16  20
ENDBRANCH  13  14
ENDBRANCH   2  13
TORSDOF 5
ENDMDL
MODEL 8
REMARK VINA RESULT:      -5.5      4.705      7.428
REMARK  Name = 
REMARK  7 active torsions:
REMARK  status: ('A' for Active; 'I' for Inactive)
REMARK    1  A    between atoms: C_1  and  C_2
REMARK    2  A    between atoms: C_2  and  C_3
REMARK    3  A    between atoms: C_4  and  C_5
REMARK    4  A    between atoms: C_11  and  O_12
REMARK    5  A    between atoms: O_12  and  C_13
REMARK    6  A    between atoms: C_17  and  C_18
REMARK    7  A    between atoms: C_19  and  C_20
REMARK                            x       y       z     vdW  Elec       q    Type
REMARK                         _______ _______ _______ _____ _____    ______ ____
ROOT
ATOM      1  C   UNL     1       5.402  -2.724  24.899  0.00  0.00    +0.015 A 
ATOM      2  C   UNL     1       6.122  -3.477  23.822  0.00  0.00    +0.151 A 
ATOM      3  C   UNL     1       5.456  -4.418  23.106  0.00  0.00    +0.120 A 
ATOM      4  I   UNL     1       6.355  -5.631  21.677  0.00  0.00    -0.034 I 
ATOM      5  C   UNL     1       4.012  -4.705  23.406  0.00  0.00    +0.266 A 
ATOM      6  O   UNL     1       3.310  -5.447  22.725  0.00  0.00    -0.267 OA
ATOM      7  N   UNL     1       3.513  -4.104  24.521  0.00  0.00    -0.325 N 
ATOM      8  H   UNL     1       2.552  -4.343  24.731  0.00  0.00    +0.169 HD
ATOM      9  C   UNL     1       4.149  -3.124  25.239  0.00  0.00    +0.023 A 
ATOM     10  C   UNL     1       3.304  -2.518  26.337  0.00  0.00    +0.064 C 
ENDROOT
BRANCH   1  12
ATOM     11  C   UNL     1       6.951  -1.472  26.545  0.00  0.00    +0.009 C 
ATOM     12  C   UNL     1       5.858  -1.410  25.498  0.00  0.00    +0.037 C 
ENDBRANCH   1  12
BRANCH   2  13
ATOM     13  O   UNL     1       7.526  -3.503  23.720  0.00  0.00    -0.454 OA
BRANCH  13  14
ATOM     14  C   UNL     1       8.332  -2.520  23.219  0.00  0.00    +0.129 A 
ATOM     15  C   UNL     1       7.898  -1.455  22.436  0.00  0.00    +0.054 A 
ATOM     16  C   UNL     1       8.709  -0.316  22.318  0.00  0.00    -0.021 A 
ATOM     17  C   UNL     1      10.060  -0.415  22.686  0.00  0.00    +0.008 A 
ATOM     18  C   UNL     1      10.561  -1.590  23.247  0.00  0.00    +0.004 A 
ATOM     19  C   UNL     1       9.684  -2.625  23.553  0.00  0.00    +0.046 A 
BRANCH  16  20
ATOM     20  C   UNL     1       8.170   1.041  22.067  0.00  0.00    +0.019 C 
ATOM     21  C   UNL     1       7.026   1.570  22.538  0.00  0.00    +0.089 C 
BRANCH  21  22
ATOM     22  C   UNL     1       6.734   2.959  22.390  0.00  0.00    +0.091 C 
ATOM     23  N   UNL     1       6.462   4.078  22.274  0.00  0.00    -0.191 NA
ENDBRANCH  21  22
ENDBRANCH  16  20
ENDBRANCH  13  14
ENDBRANCH   2  13
TORSDOF 5
ENDMDL
MODEL 9
REMARK VINA RESULT:      -5.4      3.961      7.009
REMARK  Name = 
REMARK  7 active torsions:
REMARK  status: ('A' for Active; 'I' for Inactive)
REMARK    1  A    between atoms: C_1  and  C_2
REMARK    2  A    between atoms: C_2  and  C_3
REMARK    3  A    between atoms: C_4  and  C_5
REMARK    4  A    between atoms: C_11  and  O_12
REMARK    5  A    between atoms: O_12  and  C_13
REMARK    6  A    between atoms: C_17  and  C_18
REMARK    7  A    between atoms: C_19  and  C_20
REMARK                            x       y       z     vdW  Elec       q    Type
REMARK                         _______ _______ _______ _____ _____    ______ ____
ROOT
ATOM      1  C   UNL     1       6.429  -1.894  26.280  0.00  0.00    +0.015 A 
ATOM      2  C   UNL     1       7.653  -2.584  25.762  0.00  0.00    +0.151 A 
ATOM      3  C   UNL     1       7.842  -3.901  26.033  0.00  0.00    +0.120 A 
ATOM      4  I   UNL     1       9.551  -4.955  25.496  0.00  0.00    -0.034 I 
ATOM      5  C   UNL     1       6.832  -4.648  26.858  0.00  0.00    +0.266 A 
ATOM      6  O   UNL     1       6.867  -5.861  27.039  0.00  0.00    -0.267 OA
ATOM      7  N   UNL     1       5.863  -3.885  27.432  0.00  0.00    -0.325 N 
ATOM      8  H   UNL     1       5.218  -4.400  28.018  0.00  0.00    +0.169 HD
ATOM      9  C   UNL     1       5.627  -2.565  27.147  0.00  0.00    +0.023 A 
ATOM     10  C   UNL     1       4.389  -2.003  27.808  0.00  0.00    +0.064 C 
ENDROOT
BRANCH   1  12
ATOM     11  C   UNL     1       6.423   0.689  26.364  0.00  0.00    +0.009 C 
ATOM     12  C   UNL     1       5.878  -0.585  25.753  0.00  0.00    +0.037 C 
ENDBRANCH   1  12
BRANCH   2  13
ATOM     13  O   UNL     1       8.779  -1.884  25.289  0.00  0.00    -0.454 OA
BRANCH  13  14
ATOM     14  C   UNL     1       8.895  -1.222  24.098  0.00  0.00    +0.129 A 
ATOM     15  C   UNL     1       9.131   0.142  23.964  0.00  0.00    +0.054 A 
ATOM     16  C   UNL     1       9.624   0.635  22.746  0.00  0.00    -0.021 A 
ATOM     17  C   UNL     1       9.529  -0.180  21.607  0.00  0.00    +0.008 A 
ATOM     18  C   UNL     1       9.046  -1.484  21.701  0.00  0.00    +0.004 A 
ATOM     19  C   UNL     1       8.771  -2.018  22.957  0.00  0.00    +0.046 A 
BRANCH  16  20
ATOM     20  C   UNL     1      10.459   1.855  22.643  0.00  0.00    +0.019 C 
ATOM     21  C   UNL     1      10.450   2.926  23.456  0.00  0.00    +0.089 C 
BRANCH  21  22
ATOM     22  C   UNL     1      11.453   3.937  23.364  0.00  0.00    +0.091 C 
ATOM     23  N   UNL     1      12.274   4.752  23.324  0.00  0.00    -0.191 NA
ENDBRANCH  21  22
ENDBRANCH  16  20
ENDBRANCH  13  14
ENDBRANCH   2  13
TORSDOF 5
ENDMDL
