MODEL 1
REMARK VINA RESULT:      -4.5      0.000      0.000
REMARK  Name = 
REMARK  7 active torsions:
REMARK  status: ('A' for Active; 'I' for Inactive)
REMARK    1  A    between atoms: N_1  and  CA_2
REMARK    2  A    between atoms: CA_2  and  C_4
REMARK    3  A    between atoms: CA_2  and  C_7
REMARK    4  A    between atoms: C_4  and  O_5
REMARK    5  A    between atoms: C_7  and  O_9
REMARK    6  A    between atoms: O_9  and  S_10
REMARK    7  A    between atoms: S_10  and  O_11
REMARK                            x       y       z     vdW  Elec       q    Type
REMARK                         _______ _______ _______ _____ _____    ______ ____
ROOT
ATOM      1  CA  UNL     1       9.441  -1.147  24.542  0.00  0.00    +0.272 C 
ENDROOT
BRANCH   1   2
ATOM      2  N   UNL     1       7.952  -1.193  24.544  0.00  0.00    -0.309 NA
ATOM      3  H1  UNL     1       7.603  -0.233  24.451  0.00  0.00    +0.119 HD
ATOM      4  H2  UNL     1       7.587  -1.689  23.733  0.00  0.00    +0.119 HD
ENDBRANCH   1   2
BRANCH   1   5
ATOM      5  C   UNL     1       9.948   0.154  23.932  0.00  0.00    +0.363 C 
ATOM      6  O   UNL     1      11.075   0.618  24.083  0.00  0.00    -0.246 OA
BRANCH   5   7
ATOM      7  O   UNL     1       8.934   0.801  23.328  0.00  0.00    -0.284 OA
BRANCH   7   8
ATOM      8  S   UNL     1       8.985   1.172  21.756  0.00  0.00    +0.254 S 
ATOM      9  O   UNL     1       7.776   1.905  21.452  0.00  0.00    -0.108 OA
ATOM     10  O   UNL     1       9.347  -0.018  21.020  0.00  0.00    -0.108 OA
BRANCH   8  11
ATOM     11  O   UNL     1      10.225   2.193  21.641  0.00  0.00    -0.222 OA
ATOM     12  H   UNL     1      11.022   1.762  22.025  0.00  0.00    +0.248 HD
ENDBRANCH   8  11
ENDBRANCH   7   8
ENDBRANCH   5   7
ENDBRANCH   1   5
BRANCH   1  13
ATOM     13  C   UNL     1      10.017  -2.314  23.746  0.00  0.00    +0.333 C 
ATOM     14  OXT UNL     1       9.993  -3.479  24.110  0.00  0.00    -0.249 OA
BRANCH  13  15
ATOM     15  O   UNL     1      10.576  -1.939  22.567  0.00  0.00    -0.479 OA
ATOM     16  H   UNL     1      11.516  -1.689  22.631  0.00  0.00    +0.295 HD
ENDBRANCH  13  15
ENDBRANCH   1  13
TORSDOF 7
ENDMDL
MODEL 2
REMARK VINA RESULT:      -4.4      2.139      3.806
REMARK  Name = 
REMARK  7 active torsions:
REMARK  status: ('A' for Active; 'I' for Inactive)
REMARK    1  A    between atoms: N_1  and  CA_2
REMARK    2  A    between atoms: CA_2  and  C_4
REMARK    3  A    between atoms: CA_2  and  C_7
REMARK    4  A    between atoms: C_4  and  O_5
REMARK    5  A    between atoms: C_7  and  O_9
REMARK    6  A    between atoms: O_9  and  S_10
REMARK    7  A    between atoms: S_10  and  O_11
REMARK                            x       y       z     vdW  Elec       q    Type
REMARK                         _______ _______ _______ _____ _____    ______ ____
ROOT
ATOM      1  CA  UNL     1       9.899   1.586  24.021  0.00  0.00    +0.272 C 
ENDROOT
BRANCH   1   2
ATOM      2  N   UNL     1      10.930   0.662  24.572  0.00  0.00    -0.309 NA
ATOM      3  H1  UNL     1      11.705   0.612  23.902  0.00  0.00    +0.119 HD
ATOM      4  H2  UNL     1      11.343   1.021  25.430  0.00  0.00    +0.119 HD
ENDBRANCH   1   2
BRANCH   1   5
ATOM      5  C   UNL     1       8.789   0.812  23.320  0.00  0.00    +0.363 C 
ATOM      6  O   UNL     1       7.799   1.311  22.793  0.00  0.00    -0.246 OA
BRANCH   5   7
ATOM      7  O   UNL     1       8.973  -0.510  23.495  0.00  0.00    -0.284 OA
BRANCH   7   8
ATOM      8  S   UNL     1       9.412  -1.472  22.273  0.00  0.00    +0.254 S 
ATOM      9  O   UNL     1       8.341  -2.423  22.075  0.00  0.00    -0.108 OA
ATOM     10  O   UNL     1      10.770  -1.907  22.504  0.00  0.00    -0.108 OA
BRANCH   8  11
ATOM     11  O   UNL     1       9.441  -0.487  20.999  0.00  0.00    -0.222 OA
ATOM     12  H   UNL     1       9.586  -1.026  20.189  0.00  0.00    +0.248 HD
ENDBRANCH   8  11
ENDBRANCH   7   8
ENDBRANCH   5   7
ENDBRANCH   1   5
BRANCH   1  13
ATOM     13  C   UNL     1      10.522   2.555  23.022  0.00  0.00    +0.333 C 
ATOM     14  OXT UNL     1      11.204   3.521  23.327  0.00  0.00    -0.249 OA
BRANCH  13  15
ATOM     15  O   UNL     1      10.245   2.249  21.728  0.00  0.00    -0.479 OA
ATOM     16  H   UNL     1       9.592   1.534  21.617  0.00  0.00    +0.295 HD
ENDBRANCH  13  15
ENDBRANCH   1  13
TORSDOF 7
ENDMDL
MODEL 3
REMARK VINA RESULT:      -4.3      3.421      4.754
REMARK  Name = 
REMARK  7 active torsions:
REMARK  status: ('A' for Active; 'I' for Inactive)
REMARK    1  A    between atoms: N_1  and  CA_2
REMARK    2  A    between atoms: CA_2  and  C_4
REMARK    3  A    between atoms: CA_2  and  C_7
REMARK    4  A    between atoms: C_4  and  O_5
REMARK    5  A    between atoms: C_7  and  O_9
REMARK    6  A    between atoms: O_9  and  S_10
REMARK    7  A    between atoms: S_10  and  O_11
REMARK                            x       y       z     vdW  Elec       q    Type
REMARK                         _______ _______ _______ _____ _____    ______ ____
ROOT
ATOM      1  CA  UNL     1       8.722  -5.406  25.303  0.00  0.00    +0.272 C 
ENDROOT
BRANCH   1   2
ATOM      2  N   UNL     1      10.195  -5.583  25.439  0.00  0.00    -0.309 NA
ATOM      3  H1  UNL     1      10.590  -4.705  25.794  0.00  0.00    +0.119 HD
ATOM      4  H2  UNL     1      10.431  -6.283  26.138  0.00  0.00    +0.119 HD
ENDBRANCH   1   2
BRANCH   1   5
ATOM      5  C   UNL     1       8.389  -4.411  24.198  0.00  0.00    +0.363 C 
ATOM      6  O   UNL     1       7.298  -4.302  23.645  0.00  0.00    -0.246 OA
BRANCH   5   7
ATOM      7  O   UNL     1       9.506  -3.772  23.807  0.00  0.00    -0.284 OA
BRANCH   7   8
ATOM      8  S   UNL     1       9.518  -2.179  23.532  0.00  0.00    +0.254 S 
ATOM      9  O   UNL     1      10.635  -1.906  22.657  0.00  0.00    -0.108 OA
ATOM     10  O   UNL     1       9.371  -1.499  24.799  0.00  0.00    -0.108 OA
BRANCH   8  11
ATOM     11  O   UNL     1       8.163  -1.923  22.699  0.00  0.00    -0.222 OA
ATOM     12  H   UNL     1       7.986  -0.956  22.678  0.00  0.00    +0.248 HD
ENDBRANCH   8  11
ENDBRANCH   7   8
ENDBRANCH   5   7
ENDBRANCH   1   5
BRANCH   1  13
ATOM     13  C   UNL     1       8.116  -4.901  26.609  0.00  0.00    +0.333 C 
ATOM     14  OXT UNL     1       7.739  -5.621  27.521  0.00  0.00    -0.249 OA
BRANCH  13  15
ATOM     15  O   UNL     1       8.026  -3.548  26.675  0.00  0.00    -0.479 OA
ATOM     16  H   UNL     1       8.668  -3.133  27.280  0.00  0.00    +0.295 HD
ENDBRANCH  13  15
ENDBRANCH   1  13
TORSDOF 7
ENDMDL
MODEL 4
REMARK VINA RESULT:      -4.2      3.383      5.906
REMARK  Name = 
REMARK  7 active torsions:
REMARK  status: ('A' for Active; 'I' for Inactive)
REMARK    1  A    between atoms: N_1  and  CA_2
REMARK    2  A    between atoms: CA_2  and  C_4
REMARK    3  A    between atoms: CA_2  and  C_7
REMARK    4  A    between atoms: C_4  and  O_5
REMARK    5  A    between atoms: C_7  and  O_9
REMARK    6  A    between atoms: O_9  and  S_10
REMARK    7  A    between atoms: S_10  and  O_11
REMARK                            x       y       z     vdW  Elec       q    Type
REMARK                         _______ _______ _______ _____ _____    ______ ____
ROOT
ATOM      1  CA  UNL     1       7.848  -3.197  23.378  0.00  0.00    +0.272 C 
ENDROOT
BRANCH   1   2
ATOM      2  N   UNL     1       6.971  -2.414  24.292  0.00  0.00    -0.309 NA
ATOM      3  H1  UNL     1       6.148  -2.986  24.511  0.00  0.00    +0.119 HD
ATOM      4  H2  UNL     1       7.418  -2.237  25.189  0.00  0.00    +0.119 HD
ENDBRANCH   1   2
BRANCH   1   5
ATOM      5  C   UNL     1       7.875  -4.669  23.771  0.00  0.00    +0.363 C 
ATOM      6  O   UNL     1       8.195  -5.597  23.033  0.00  0.00    -0.246 OA
BRANCH   5   7
ATOM      7  O   UNL     1       7.349  -4.823  25.001  0.00  0.00    -0.284 OA
BRANCH   7   8
ATOM      8  S   UNL     1       8.283  -5.074  26.295  0.00  0.00    +0.254 S 
ATOM      9  O   UNL     1       7.548  -5.943  27.188  0.00  0.00    -0.108 OA
ATOM     10  O   UNL     1       8.794  -3.798  26.740  0.00  0.00    -0.108 OA
BRANCH   8  11
ATOM     11  O   UNL     1       9.533  -5.907  25.712  0.00  0.00    -0.222 OA
ATOM     12  H   UNL     1       9.992  -6.348  26.462  0.00  0.00    +0.248 HD
ENDBRANCH   8  11
ENDBRANCH   7   8
ENDBRANCH   5   7
ENDBRANCH   1   5
BRANCH   1  13
ATOM     13  C   UNL     1       9.276  -2.661  23.409  0.00  0.00    +0.333 C 
ATOM     14  OXT UNL     1       9.641  -1.632  22.861  0.00  0.00    -0.249 OA
BRANCH  13  15
ATOM     15  O   UNL     1      10.132  -3.445  24.114  0.00  0.00    -0.479 OA
ATOM     16  H   UNL     1      10.094  -4.390  23.881  0.00  0.00    +0.295 HD
ENDBRANCH  13  15
ENDBRANCH   1  13
TORSDOF 7
ENDMDL
MODEL 5
REMARK VINA RESULT:      -4.2      1.990      3.648
REMARK  Name = 
REMARK  7 active torsions:
REMARK  status: ('A' for Active; 'I' for Inactive)
REMARK    1  A    between atoms: N_1  and  CA_2
REMARK    2  A    between atoms: CA_2  and  C_4
REMARK    3  A    between atoms: CA_2  and  C_7
REMARK    4  A    between atoms: C_4  and  O_5
REMARK    5  A    between atoms: C_7  and  O_9
REMARK    6  A    between atoms: O_9  and  S_10
REMARK    7  A    between atoms: S_10  and  O_11
REMARK                            x       y       z     vdW  Elec       q    Type
REMARK                         _______ _______ _______ _____ _____    ______ ____
ROOT
ATOM      1  CA  UNL     1       9.072   1.129  23.439  0.00  0.00    +0.272 C 
ENDROOT
BRANCH   1   2
ATOM      2  N   UNL     1       8.996   2.461  24.100  0.00  0.00    -0.309 NA
ATOM      3  H1  UNL     1       9.554   2.423  24.960  0.00  0.00    +0.119 HD
ATOM      4  H2  UNL     1       9.426   3.190  23.535  0.00  0.00    +0.119 HD
ENDBRANCH   1   2
BRANCH   1   5
ATOM      5  C   UNL     1      10.084   0.228  24.137  0.00  0.00    +0.363 C 
ATOM      6  O   UNL     1      11.278   0.474  24.276  0.00  0.00    -0.246 OA
BRANCH   5   7
ATOM      7  O   UNL     1       9.509  -0.949  24.448  0.00  0.00    -0.284 OA
BRANCH   7   8
ATOM      8  S   UNL     1       9.575  -2.214  23.445  0.00  0.00    +0.254 S 
ATOM      9  O   UNL     1       8.313  -2.266  22.741  0.00  0.00    -0.108 OA
ATOM     10  O   UNL     1      10.072  -3.353  24.183  0.00  0.00    -0.108 OA
BRANCH   8  11
ATOM     11  O   UNL     1      10.717  -1.805  22.384  0.00  0.00    -0.222 OA
ATOM     12  H   UNL     1      10.358  -1.106  21.792  0.00  0.00    +0.248 HD
ENDBRANCH   8  11
ENDBRANCH   7   8
ENDBRANCH   5   7
ENDBRANCH   1   5
BRANCH   1  13
ATOM     13  C   UNL     1       9.480   1.274  21.976  0.00  0.00    +0.333 C 
ATOM     14  OXT UNL     1       9.118   0.529  21.079  0.00  0.00    -0.249 OA
BRANCH  13  15
ATOM     15  O   UNL     1      10.304   2.329  21.747  0.00  0.00    -0.479 OA
ATOM     16  H   UNL     1      11.103   2.341  22.306  0.00  0.00    +0.295 HD
ENDBRANCH  13  15
ENDBRANCH   1  13
TORSDOF 7
ENDMDL
MODEL 6
REMARK VINA RESULT:      -4.2      5.572      6.875
REMARK  Name = 
REMARK  7 active torsions:
REMARK  status: ('A' for Active; 'I' for Inactive)
REMARK    1  A    between atoms: N_1  and  CA_2
REMARK    2  A    between atoms: CA_2  and  C_4
REMARK    3  A    between atoms: CA_2  and  C_7
REMARK    4  A    between atoms: C_4  and  O_5
REMARK    5  A    between atoms: C_7  and  O_9
REMARK    6  A    between atoms: O_9  and  S_10
REMARK    7  A    between atoms: S_10  and  O_11
REMARK                            x       y       z     vdW  Elec       q    Type
REMARK                         _______ _______ _______ _____ _____    ______ ____
ROOT
ATOM      1  CA  UNL     1       9.088  -4.588  25.015  0.00  0.00    +0.272 C 
ENDROOT
BRANCH   1   2
ATOM      2  N   UNL     1       9.930  -5.785  25.293  0.00  0.00    -0.309 NA
ATOM      3  H1  UNL     1       9.933  -6.375  24.453  0.00  0.00    +0.119 HD
ATOM      4  H2  UNL     1      10.905  -5.537  25.447  0.00  0.00    +0.119 HD
ENDBRANCH   1   2
BRANCH   1   5
ATOM      5  C   UNL     1       8.400  -4.097  26.283  0.00  0.00    +0.363 C 
ATOM      6  O   UNL     1       8.171  -2.922  26.557  0.00  0.00    -0.246 OA
BRANCH   5   7
ATOM      7  O   UNL     1       8.215  -5.125  27.130  0.00  0.00    -0.284 OA
BRANCH   7   8
ATOM      8  S   UNL     1       6.735  -5.622  27.548  0.00  0.00    +0.254 S 
ATOM      9  O   UNL     1       6.864  -6.336  28.799  0.00  0.00    -0.108 OA
ATOM     10  O   UNL     1       6.119  -6.234  26.393  0.00  0.00    -0.108 OA
BRANCH   8  11
ATOM     11  O   UNL     1       5.938  -4.253  27.840  0.00  0.00    -0.222 OA
ATOM     12  H   UNL     1       5.201  -4.446  28.463  0.00  0.00    +0.248 HD
ENDBRANCH   8  11
ENDBRANCH   7   8
ENDBRANCH   5   7
ENDBRANCH   1   5
BRANCH   1  13
ATOM     13  C   UNL     1       8.020  -4.908  23.975  0.00  0.00    +0.333 C 
ATOM     14  OXT UNL     1       8.201  -5.602  22.987  0.00  0.00    -0.249 OA
BRANCH  13  15
ATOM     15  O   UNL     1       6.816  -4.341  24.245  0.00  0.00    -0.479 OA
ATOM     16  H   UNL     1       6.105  -4.981  24.433  0.00  0.00    +0.295 HD
ENDBRANCH  13  15
ENDBRANCH   1  13
TORSDOF 7
ENDMDL
MODEL 7
REMARK VINA RESULT:      -4.2      1.801      2.456
REMARK  Name = 
REMARK  7 active torsions:
REMARK  status: ('A' for Active; 'I' for Inactive)
REMARK    1  A    between atoms: N_1  and  CA_2
REMARK    2  A    between atoms: CA_2  and  C_4
REMARK    3  A    between atoms: CA_2  and  C_7
REMARK    4  A    between atoms: C_4  and  O_5
REMARK    5  A    between atoms: C_7  and  O_9
REMARK    6  A    between atoms: O_9  and  S_10
REMARK    7  A    between atoms: S_10  and  O_11
REMARK                            x       y       z     vdW  Elec       q    Type
REMARK                         _______ _______ _______ _____ _____    ______ ____
ROOT
ATOM      1  CA  UNL     1       9.075  -1.789  22.452  0.00  0.00    +0.272 C 
ENDROOT
BRANCH   1   2
ATOM      2  N   UNL     1      10.174  -1.488  21.492  0.00  0.00    -0.309 NA
ATOM      3  H1  UNL     1      10.653  -0.639  21.812  0.00  0.00    +0.119 HD
ATOM      4  H2  UNL     1      10.888  -2.213  21.493  0.00  0.00    +0.119 HD
ENDBRANCH   1   2
BRANCH   1   5
ATOM      5  C   UNL     1       8.165  -0.580  22.639  0.00  0.00    +0.363 C 
ATOM      6  O   UNL     1       7.123  -0.569  23.287  0.00  0.00    -0.246 OA
BRANCH   5   7
ATOM      7  O   UNL     1       8.590   0.435  21.864  0.00  0.00    -0.284 OA
BRANCH   7   8
ATOM      8  S   UNL     1       9.042   1.851  22.499  0.00  0.00    +0.254 S 
ATOM      9  O   UNL     1       9.551   1.581  23.824  0.00  0.00    -0.108 OA
ATOM     10  O   UNL     1       7.978   2.805  22.282  0.00  0.00    -0.108 OA
BRANCH   8  11
ATOM     11  O   UNL     1      10.280   2.309  21.575  0.00  0.00    -0.222 OA
ATOM     12  H   UNL     1       9.954   2.961  20.914  0.00  0.00    +0.248 HD
ENDBRANCH   8  11
ENDBRANCH   7   8
ENDBRANCH   5   7
ENDBRANCH   1   5
BRANCH   1  13
ATOM     13  C   UNL     1       9.639  -2.187  23.812  0.00  0.00    +0.333 C 
ATOM     14  OXT UNL     1      10.064  -3.298  24.087  0.00  0.00    -0.249 OA
BRANCH  13  15
ATOM     15  O   UNL     1       9.628  -1.176  24.718  0.00  0.00    -0.479 OA
ATOM     16  H   UNL     1       8.915  -0.525  24.584  0.00  0.00    +0.295 HD
ENDBRANCH  13  15
ENDBRANCH   1  13
TORSDOF 7
ENDMDL
MODEL 8
REMARK VINA RESULT:      -4.2      4.360      5.835
REMARK  Name = 
REMARK  7 active torsions:
REMARK  status: ('A' for Active; 'I' for Inactive)
REMARK    1  A    between atoms: N_1  and  CA_2
REMARK    2  A    between atoms: CA_2  and  C_4
REMARK    3  A    between atoms: CA_2  and  C_7
REMARK    4  A    between atoms: C_4  and  O_5
REMARK    5  A    between atoms: C_7  and  O_9
REMARK    6  A    between atoms: O_9  and  S_10
REMARK    7  A    between atoms: S_10  and  O_11
REMARK                            x       y       z     vdW  Elec       q    Type
REMARK                         _______ _______ _______ _____ _____    ______ ____
ROOT
ATOM      1  CA  UNL     1       8.524  -4.477  24.379  0.00  0.00    +0.272 C 
ENDROOT
BRANCH   1   2
ATOM      2  N   UNL     1       9.707  -5.292  24.772  0.00  0.00    -0.309 NA
ATOM      3  H1  UNL     1       9.558  -5.629  25.729  0.00  0.00    +0.119 HD
ATOM      4  H2  UNL     1       9.796  -6.132  24.204  0.00  0.00    +0.119 HD
ENDBRANCH   1   2
BRANCH   1   5
ATOM      5  C   UNL     1       7.638  -5.236  23.398  0.00  0.00    +0.363 C 
ATOM      6  O   UNL     1       8.040  -5.957  22.490  0.00  0.00    -0.246 OA
BRANCH   5   7
ATOM      7  O   UNL     1       6.353  -4.881  23.575  0.00  0.00    -0.284 OA
BRANCH   7   8
ATOM      8  S   UNL     1       5.300  -4.872  22.349  0.00  0.00    +0.254 S 
ATOM      9  O   UNL     1       5.769  -3.893  21.394  0.00  0.00    -0.108 OA
ATOM     10  O   UNL     1       3.965  -4.807  22.897  0.00  0.00    -0.108 OA
BRANCH   8  11
ATOM     11  O   UNL     1       5.469  -6.330  21.686  0.00  0.00    -0.222 OA
ATOM     12  H   UNL     1       4.574  -6.697  21.505  0.00  0.00    +0.248 HD
ENDBRANCH   8  11
ENDBRANCH   7   8
ENDBRANCH   5   7
ENDBRANCH   1   5
BRANCH   1  13
ATOM     13  C   UNL     1       8.962  -3.169  23.726  0.00  0.00    +0.333 C 
ATOM     14  OXT UNL     1       9.857  -2.452  24.145  0.00  0.00    -0.249 OA
BRANCH  13  15
ATOM     15  O   UNL     1       8.252  -2.858  22.611  0.00  0.00    -0.479 OA
ATOM     16  H   UNL     1       7.448  -3.394  22.486  0.00  0.00    +0.295 HD
ENDBRANCH  13  15
ENDBRANCH   1  13
TORSDOF 7
ENDMDL
MODEL 9
REMARK VINA RESULT:      -4.1      1.585      2.260
REMARK  Name = 
REMARK  7 active torsions:
REMARK  status: ('A' for Active; 'I' for Inactive)
REMARK    1  A    between atoms: N_1  and  CA_2
REMARK    2  A    between atoms: CA_2  and  C_4
REMARK    3  A    between atoms: CA_2  and  C_7
REMARK    4  A    between atoms: C_4  and  O_5
REMARK    5  A    between atoms: C_7  and  O_9
REMARK    6  A    between atoms: O_9  and  S_10
REMARK    7  A    between atoms: S_10  and  O_11
REMARK                            x       y       z     vdW  Elec       q    Type
REMARK                         _______ _______ _______ _____ _____    ______ ____
ROOT
ATOM      1  CA  UNL     1       8.853  -0.792  23.383  0.00  0.00    +0.272 C 
ENDROOT
BRANCH   1   2
ATOM      2  N   UNL     1       7.801  -0.059  22.625  0.00  0.00    -0.309 NA
ATOM      3  H1  UNL     1       7.111  -0.743  22.295  0.00  0.00    +0.119 HD
ATOM      4  H2  UNL     1       7.279   0.580  23.221  0.00  0.00    +0.119 HD
ENDBRANCH   1   2
BRANCH   1   5
ATOM      5  C   UNL     1       9.572   0.134  24.357  0.00  0.00    +0.363 C 
ATOM      6  O   UNL     1       9.291   0.273  25.544  0.00  0.00    -0.246 OA
BRANCH   5   7
ATOM      7  O   UNL     1      10.464   0.892  23.692  0.00  0.00    -0.284 OA
BRANCH   7   8
ATOM      8  S   UNL     1      10.079   2.361  23.138  0.00  0.00    +0.254 S 
ATOM      9  O   UNL     1      11.211   3.222  23.394  0.00  0.00    -0.108 OA
ATOM     10  O   UNL     1       8.757   2.695  23.617  0.00  0.00    -0.108 OA
BRANCH   8  11
ATOM     11  O   UNL     1       9.965   2.153  21.545  0.00  0.00    -0.222 OA
ATOM     12  H   UNL     1       9.312   2.797  21.190  0.00  0.00    +0.248 HD
ENDBRANCH   8  11
ENDBRANCH   7   8
ENDBRANCH   5   7
ENDBRANCH   1   5
BRANCH   1  13
ATOM     13  C   UNL     1       9.885  -1.392  22.432  0.00  0.00    +0.333 C 
ATOM     14  OXT UNL     1      10.632  -2.315  22.715  0.00  0.00    -0.249 OA
BRANCH  13  15
ATOM     15  O   UNL     1       9.905  -0.798  21.212  0.00  0.00    -0.479 OA
ATOM     16  H   UNL     1      10.661  -0.199  21.070  0.00  0.00    +0.295 HD
ENDBRANCH  13  15
ENDBRANCH   1  13
TORSDOF 7
ENDMDL
