MODEL 1
REMARK VINA RESULT:      -4.5      0.000      0.000
REMARK  Name = 
REMARK  9 active torsions:
REMARK  status: ('A' for Active; 'I' for Inactive)
REMARK    1  A    between atoms: O_1  and  C_2
REMARK    2  A    between atoms: C_2  and  C_4
REMARK    3  A    between atoms: C_2  and  C_13
REMARK    4  A    between atoms: C_4  and  C_6
REMARK    5  A    between atoms: C_4  and  C_10
REMARK    6  A    between atoms: C_6  and  C_7
REMARK    7  A    between atoms: C_7  and  O_8
REMARK    8  A    between atoms: C_10  and  O_11
REMARK    9  A    between atoms: C_13  and  O_14
REMARK                            x       y       z     vdW  Elec       q    Type
REMARK                         _______ _______ _______ _____ _____    ______ ____
ROOT
ATOM      1  C   UNL     1       7.743  -4.423  23.729  0.00  0.00    +0.147 C 
ENDROOT
BRANCH   1   2
ATOM      2  C   UNL     1       8.468  -3.222  23.159  0.00  0.00    +0.311 C 
ATOM      3  O   UNL     1       7.988  -2.490  22.308  0.00  0.00    -0.251 OA
BRANCH   2   4
ATOM      4  O   UNL     1       9.699  -3.009  23.677  0.00  0.00    -0.480 OA
ATOM      5  H   UNL     1      10.286  -3.794  23.638  0.00  0.00    +0.295 HD
ENDBRANCH   2   4
ENDBRANCH   1   2
BRANCH   1   6
ATOM      6  C   UNL     1       8.462  -4.847  25.007  0.00  0.00    +0.237 C 
BRANCH   6   7
ATOM      7  O   UNL     1       9.525  -5.778  24.710  0.00  0.00    -0.380 OA
ATOM      8  H   UNL     1       9.089  -6.557  24.298  0.00  0.00    +0.211 HD
ENDBRANCH   6   7
BRANCH   6   9
ATOM      9  C   UNL     1       7.495  -5.487  26.006  0.00  0.00    +0.334 C 
ATOM     10  O   UNL     1       6.305  -5.651  25.818  0.00  0.00    -0.248 OA
BRANCH   9  11
ATOM     11  O   UNL     1       8.133  -5.875  27.140  0.00  0.00    -0.479 OA
ATOM     12  H   UNL     1       9.066  -5.566  27.123  0.00  0.00    +0.295 HD
ENDBRANCH   9  11
ENDBRANCH   6   9
ENDBRANCH   1   6
BRANCH   1  13
ATOM     13  C   UNL     1       7.590  -5.518  22.672  0.00  0.00    +0.138 C 
BRANCH  13  14
ATOM     14  C   UNL     1       6.148  -5.608  22.252  0.00  0.00    +0.306 C 
ATOM     15  O   UNL     1       5.630  -5.006  21.331  0.00  0.00    -0.251 OA
BRANCH  14  16
ATOM     16  O   UNL     1       5.474  -6.531  22.960  0.00  0.00    -0.481 OA
ATOM     17  H   UNL     1       5.763  -6.397  23.889  0.00  0.00    +0.295 HD
ENDBRANCH  14  16
ENDBRANCH  13  14
ENDBRANCH   1  13
TORSDOF 9
ENDMDL
MODEL 2
REMARK VINA RESULT:      -4.4      3.900      6.037
REMARK  Name = 
REMARK  9 active torsions:
REMARK  status: ('A' for Active; 'I' for Inactive)
REMARK    1  A    between atoms: O_1  and  C_2
REMARK    2  A    between atoms: C_2  and  C_4
REMARK    3  A    between atoms: C_2  and  C_13
REMARK    4  A    between atoms: C_4  and  C_6
REMARK    5  A    between atoms: C_4  and  C_10
REMARK    6  A    between atoms: C_6  and  C_7
REMARK    7  A    between atoms: C_7  and  O_8
REMARK    8  A    between atoms: C_10  and  O_11
REMARK    9  A    between atoms: C_13  and  O_14
REMARK                            x       y       z     vdW  Elec       q    Type
REMARK                         _______ _______ _______ _____ _____    ______ ____
ROOT
ATOM      1  C   UNL     1       9.643   0.173  23.089  0.00  0.00    +0.147 C 
ENDROOT
BRANCH   1   2
ATOM      2  C   UNL     1      10.355   0.951  24.176  0.00  0.00    +0.311 C 
ATOM      3  O   UNL     1      11.085   1.902  23.950  0.00  0.00    -0.251 OA
BRANCH   2   4
ATOM      4  O   UNL     1      10.110   0.517  25.433  0.00  0.00    -0.480 OA
ATOM      5  H   UNL     1       9.320   0.926  25.846  0.00  0.00    +0.295 HD
ENDBRANCH   2   4
ENDBRANCH   1   2
BRANCH   1   6
ATOM      6  C   UNL     1      10.330  -1.183  22.950  0.00  0.00    +0.237 C 
BRANCH   6   7
ATOM      7  O   UNL     1      10.367  -1.598  21.567  0.00  0.00    -0.380 OA
ATOM      8  H   UNL     1      11.283  -1.417  21.260  0.00  0.00    +0.211 HD
ENDBRANCH   6   7
BRANCH   6   9
ATOM      9  C   UNL     1       9.624  -2.256  23.781  0.00  0.00    +0.334 C 
ATOM     10  O   UNL     1      10.083  -3.350  24.044  0.00  0.00    -0.248 OA
BRANCH   9  11
ATOM     11  O   UNL     1       8.409  -1.832  24.216  0.00  0.00    -0.479 OA
ATOM     12  H   UNL     1       8.188  -2.266  25.069  0.00  0.00    +0.295 HD
ENDBRANCH   9  11
ENDBRANCH   6   9
ENDBRANCH   1   6
BRANCH   1  13
ATOM     13  C   UNL     1       9.554   0.994  21.802  0.00  0.00    +0.138 C 
BRANCH  13  14
ATOM     14  C   UNL     1       8.391   1.944  21.895  0.00  0.00    +0.306 C 
ATOM     15  O   UNL     1       7.214   1.644  21.846  0.00  0.00    -0.251 OA
BRANCH  14  16
ATOM     16  O   UNL     1       8.789   3.204  22.144  0.00  0.00    -0.481 OA
ATOM     17  H   UNL     1       8.825   3.636  21.263  0.00  0.00    +0.295 HD
ENDBRANCH  14  16
ENDBRANCH  13  14
ENDBRANCH   1  13
TORSDOF 9
ENDMDL
MODEL 3
REMARK VINA RESULT:      -4.4      1.047      3.806
REMARK  Name = 
REMARK  9 active torsions:
REMARK  status: ('A' for Active; 'I' for Inactive)
REMARK    1  A    between atoms: O_1  and  C_2
REMARK    2  A    between atoms: C_2  and  C_4
REMARK    3  A    between atoms: C_2  and  C_13
REMARK    4  A    between atoms: C_4  and  C_6
REMARK    5  A    between atoms: C_4  and  C_10
REMARK    6  A    between atoms: C_6  and  C_7
REMARK    7  A    between atoms: C_7  and  O_8
REMARK    8  A    between atoms: C_10  and  O_11
REMARK    9  A    between atoms: C_13  and  O_14
REMARK                            x       y       z     vdW  Elec       q    Type
REMARK                         _______ _______ _______ _____ _____    ______ ____
ROOT
ATOM      1  C   UNL     1       7.744  -5.171  24.404  0.00  0.00    +0.147 C 
ENDROOT
BRANCH   1   2
ATOM      2  C   UNL     1       9.214  -4.892  24.639  0.00  0.00    +0.311 C 
ATOM      3  O   UNL     1       9.748  -3.830  24.362  0.00  0.00    -0.251 OA
BRANCH   2   4
ATOM      4  O   UNL     1       9.899  -5.915  25.198  0.00  0.00    -0.480 OA
ATOM      5  H   UNL     1      10.824  -5.689  25.435  0.00  0.00    +0.295 HD
ENDBRANCH   2   4
ENDBRANCH   1   2
BRANCH   1   6
ATOM      6  C   UNL     1       7.376  -4.638  23.022  0.00  0.00    +0.237 C 
BRANCH   6   7
ATOM      7  O   UNL     1       7.249  -3.200  23.045  0.00  0.00    -0.380 OA
ATOM      8  H   UNL     1       8.157  -2.855  23.198  0.00  0.00    +0.211 HD
ENDBRANCH   6   7
BRANCH   6   9
ATOM      9  C   UNL     1       6.069  -5.252  22.516  0.00  0.00    +0.334 C 
ATOM     10  O   UNL     1       5.038  -4.638  22.324  0.00  0.00    -0.248 OA
BRANCH   9  11
ATOM     11  O   UNL     1       6.200  -6.583  22.283  0.00  0.00    -0.479 OA
ATOM     12  H   UNL     1       6.581  -6.731  21.389  0.00  0.00    +0.295 HD
ENDBRANCH   9  11
ENDBRANCH   6   9
ENDBRANCH   1   6
BRANCH   1  13
ATOM     13  C   UNL     1       6.897  -4.630  25.558  0.00  0.00    +0.138 C 
BRANCH  13  14
ATOM     14  C   UNL     1       6.716  -5.707  26.592  0.00  0.00    +0.306 C 
ATOM     15  O   UNL     1       5.809  -6.516  26.636  0.00  0.00    -0.251 OA
BRANCH  14  16
ATOM     16  O   UNL     1       7.749  -5.759  27.451  0.00  0.00    -0.481 OA
ATOM     17  H   UNL     1       7.527  -5.108  28.152  0.00  0.00    +0.295 HD
ENDBRANCH  14  16
ENDBRANCH  13  14
ENDBRANCH   1  13
TORSDOF 9
ENDMDL
MODEL 4
REMARK VINA RESULT:      -4.3      4.687      6.645
REMARK  Name = 
REMARK  9 active torsions:
REMARK  status: ('A' for Active; 'I' for Inactive)
REMARK    1  A    between atoms: O_1  and  C_2
REMARK    2  A    between atoms: C_2  and  C_4
REMARK    3  A    between atoms: C_2  and  C_13
REMARK    4  A    between atoms: C_4  and  C_6
REMARK    5  A    between atoms: C_4  and  C_10
REMARK    6  A    between atoms: C_6  and  C_7
REMARK    7  A    between atoms: C_7  and  O_8
REMARK    8  A    between atoms: C_10  and  O_11
REMARK    9  A    between atoms: C_13  and  O_14
REMARK                            x       y       z     vdW  Elec       q    Type
REMARK                         _______ _______ _______ _____ _____    ______ ____
ROOT
ATOM      1  C   UNL     1       9.223  -0.023  22.993  0.00  0.00    +0.147 C 
ENDROOT
BRANCH   1   2
ATOM      2  C   UNL     1       9.893  -1.353  22.714  0.00  0.00    +0.311 C 
ATOM      3  O   UNL     1      10.129  -2.179  23.579  0.00  0.00    -0.251 OA
BRANCH   2   4
ATOM      4  O   UNL     1      10.205  -1.565  21.415  0.00  0.00    -0.480 OA
ATOM      5  H   UNL     1      10.323  -2.512  21.186  0.00  0.00    +0.295 HD
ENDBRANCH   2   4
ENDBRANCH   1   2
BRANCH   1   6
ATOM      6  C   UNL     1      10.259   0.908  23.616  0.00  0.00    +0.237 C 
BRANCH   6   7
ATOM      7  O   UNL     1       9.929   1.194  24.992  0.00  0.00    -0.380 OA
ATOM      8  H   UNL     1      10.534   0.638  25.531  0.00  0.00    +0.211 HD
ENDBRANCH   6   7
BRANCH   6   9
ATOM      9  C   UNL     1      10.368   2.222  22.839  0.00  0.00    +0.334 C 
ATOM     10  O   UNL     1      10.881   3.240  23.259  0.00  0.00    -0.248 OA
BRANCH   9  11
ATOM     11  O   UNL     1       9.833   2.113  21.595  0.00  0.00    -0.479 OA
ATOM     12  H   UNL     1       8.875   2.328  21.623  0.00  0.00    +0.295 HD
ENDBRANCH   9  11
ENDBRANCH   6   9
ENDBRANCH   1   6
BRANCH   1  13
ATOM     13  C   UNL     1       7.947  -0.220  23.813  0.00  0.00    +0.138 C 
BRANCH  13  14
ATOM     14  C   UNL     1       6.855   0.651  23.254  0.00  0.00    +0.306 C 
ATOM     15  O   UNL     1       6.935   1.361  22.270  0.00  0.00    -0.251 OA
BRANCH  14  16
ATOM     16  O   UNL     1       5.696   0.493  23.917  0.00  0.00    -0.481 OA
ATOM     17  H   UNL     1       5.000   0.753  23.274  0.00  0.00    +0.295 HD
ENDBRANCH  14  16
ENDBRANCH  13  14
ENDBRANCH   1  13
TORSDOF 9
ENDMDL
MODEL 5
REMARK VINA RESULT:      -4.3      4.329      6.689
REMARK  Name = 
REMARK  9 active torsions:
REMARK  status: ('A' for Active; 'I' for Inactive)
REMARK    1  A    between atoms: O_1  and  C_2
REMARK    2  A    between atoms: C_2  and  C_4
REMARK    3  A    between atoms: C_2  and  C_13
REMARK    4  A    between atoms: C_4  and  C_6
REMARK    5  A    between atoms: C_4  and  C_10
REMARK    6  A    between atoms: C_6  and  C_7
REMARK    7  A    between atoms: C_7  and  O_8
REMARK    8  A    between atoms: C_10  and  O_11
REMARK    9  A    between atoms: C_13  and  O_14
REMARK                            x       y       z     vdW  Elec       q    Type
REMARK                         _______ _______ _______ _____ _____    ______ ____
ROOT
ATOM      1  C   UNL     1       8.959   0.429  23.827  0.00  0.00    +0.147 C 
ENDROOT
BRANCH   1   2
ATOM      2  C   UNL     1       8.660   0.351  25.309  0.00  0.00    +0.311 C 
ATOM      3  O   UNL     1       7.550   0.540  25.780  0.00  0.00    -0.251 OA
BRANCH   2   4
ATOM      4  O   UNL     1       9.724   0.041  26.084  0.00  0.00    -0.480 OA
ATOM      5  H   UNL     1       9.746   0.525  26.937  0.00  0.00    +0.295 HD
ENDBRANCH   2   4
ENDBRANCH   1   2
BRANCH   1   6
ATOM      6  C   UNL     1       8.636  -0.927  23.206  0.00  0.00    +0.237 C 
BRANCH   6   7
ATOM      7  O   UNL     1       8.411  -1.918  24.232  0.00  0.00    -0.380 OA
ATOM      8  H   UNL     1       8.700  -2.773  23.843  0.00  0.00    +0.211 HD
ENDBRANCH   6   7
BRANCH   6   9
ATOM      9  C   UNL     1       9.760  -1.402  22.284  0.00  0.00    +0.334 C 
ATOM     10  O   UNL     1      10.646  -2.171  22.602  0.00  0.00    -0.248 OA
BRANCH   9  11
ATOM     11  O   UNL     1       9.644  -0.870  21.039  0.00  0.00    -0.479 OA
ATOM     12  H   UNL     1      10.360  -1.212  20.460  0.00  0.00    +0.295 HD
ENDBRANCH   9  11
ENDBRANCH   6   9
ENDBRANCH   1   6
BRANCH   1  13
ATOM     13  C   UNL     1      10.383   0.934  23.585  0.00  0.00    +0.138 C 
BRANCH  13  14
ATOM     14  C   UNL     1      10.329   2.259  22.876  0.00  0.00    +0.306 C 
ATOM     15  O   UNL     1      10.569   3.346  23.366  0.00  0.00    -0.251 OA
BRANCH  14  16
ATOM     16  O   UNL     1      10.072   2.118  21.564  0.00  0.00    -0.481 OA
ATOM     17  H   UNL     1       9.909   1.157  21.441  0.00  0.00    +0.295 HD
ENDBRANCH  14  16
ENDBRANCH  13  14
ENDBRANCH   1  13
TORSDOF 9
ENDMDL
MODEL 6
REMARK VINA RESULT:      -4.3      2.074      3.828
REMARK  Name = 
REMARK  9 active torsions:
REMARK  status: ('A' for Active; 'I' for Inactive)
REMARK    1  A    between atoms: O_1  and  C_2
REMARK    2  A    between atoms: C_2  and  C_4
REMARK    3  A    between atoms: C_2  and  C_13
REMARK    4  A    between atoms: C_4  and  C_6
REMARK    5  A    between atoms: C_4  and  C_10
REMARK    6  A    between atoms: C_6  and  C_7
REMARK    7  A    between atoms: C_7  and  O_8
REMARK    8  A    between atoms: C_10  and  O_11
REMARK    9  A    between atoms: C_13  and  O_14
REMARK                            x       y       z     vdW  Elec       q    Type
REMARK                         _______ _______ _______ _____ _____    ______ ____
ROOT
ATOM      1  C   UNL     1       8.604  -3.250  23.604  0.00  0.00    +0.147 C 
ENDROOT
BRANCH   1   2
ATOM      2  C   UNL     1       7.453  -2.366  24.037  0.00  0.00    +0.311 C 
ATOM      3  O   UNL     1       6.518  -2.077  23.307  0.00  0.00    -0.251 OA
BRANCH   2   4
ATOM      4  O   UNL     1       7.530  -1.923  25.313  0.00  0.00    -0.480 OA
ATOM      5  H   UNL     1       7.537  -2.642  25.981  0.00  0.00    +0.295 HD
ENDBRANCH   2   4
ENDBRANCH   1   2
BRANCH   1   6
ATOM      6  C   UNL     1       8.407  -4.626  24.234  0.00  0.00    +0.237 C 
BRANCH   6   7
ATOM      7  O   UNL     1       7.018  -4.844  24.563  0.00  0.00    -0.380 OA
ATOM      8  H   UNL     1       6.564  -5.003  23.706  0.00  0.00    +0.211 HD
ENDBRANCH   6   7
BRANCH   6   9
ATOM      9  C   UNL     1       9.256  -4.789  25.497  0.00  0.00    +0.334 C 
ATOM     10  O   UNL     1       9.022  -4.264  26.568  0.00  0.00    -0.248 OA
BRANCH   9  11
ATOM     11  O   UNL     1      10.311  -5.618  25.286  0.00  0.00    -0.479 OA
ATOM     12  H   UNL     1      10.027  -6.392  24.751  0.00  0.00    +0.295 HD
ENDBRANCH   9  11
ENDBRANCH   6   9
ENDBRANCH   1   6
BRANCH   1  13
ATOM     13  C   UNL     1       9.946  -2.581  23.906  0.00  0.00    +0.138 C 
BRANCH  13  14
ATOM     14  C   UNL     1      10.145  -1.418  22.973  0.00  0.00    +0.306 C 
ATOM     15  O   UNL     1      10.437  -0.282  23.293  0.00  0.00    -0.251 OA
BRANCH  14  16
ATOM     16  O   UNL     1      10.061  -1.788  21.683  0.00  0.00    -0.481 OA
ATOM     17  H   UNL     1      10.993  -1.872  21.383  0.00  0.00    +0.295 HD
ENDBRANCH  14  16
ENDBRANCH  13  14
ENDBRANCH   1  13
TORSDOF 9
ENDMDL
MODEL 7
REMARK VINA RESULT:      -4.1      4.561      6.759
REMARK  Name = 
REMARK  9 active torsions:
REMARK  status: ('A' for Active; 'I' for Inactive)
REMARK    1  A    between atoms: O_1  and  C_2
REMARK    2  A    between atoms: C_2  and  C_4
REMARK    3  A    between atoms: C_2  and  C_13
REMARK    4  A    between atoms: C_4  and  C_6
REMARK    5  A    between atoms: C_4  and  C_10
REMARK    6  A    between atoms: C_6  and  C_7
REMARK    7  A    between atoms: C_7  and  O_8
REMARK    8  A    between atoms: C_10  and  O_11
REMARK    9  A    between atoms: C_13  and  O_14
REMARK                            x       y       z     vdW  Elec       q    Type
REMARK                         _______ _______ _______ _____ _____    ______ ____
ROOT
ATOM      1  C   UNL     1       8.645   0.821  22.558  0.00  0.00    +0.147 C 
ENDROOT
BRANCH   1   2
ATOM      2  C   UNL     1       7.133   0.899  22.563  0.00  0.00    +0.311 C 
ATOM      3  O   UNL     1       6.512   1.899  22.240  0.00  0.00    -0.251 OA
BRANCH   2   4
ATOM      4  O   UNL     1       6.511  -0.239  22.945  0.00  0.00    -0.480 OA
ATOM      5  H   UNL     1       6.185  -0.783  22.195  0.00  0.00    +0.295 HD
ENDBRANCH   2   4
ENDBRANCH   1   2
BRANCH   1   6
ATOM      6  C   UNL     1       9.192   2.246  22.556  0.00  0.00    +0.237 C 
BRANCH   6   7
ATOM      7  O   UNL     1      10.370   2.340  21.726  0.00  0.00    -0.380 OA
ATOM      8  H   UNL     1      10.534   1.430  21.392  0.00  0.00    +0.211 HD
ENDBRANCH   6   7
BRANCH   6   9
ATOM      9  C   UNL     1       9.533   2.715  23.972  0.00  0.00    +0.334 C 
ATOM     10  O   UNL     1       9.506   3.870  24.349  0.00  0.00    -0.248 OA
BRANCH   9  11
ATOM     11  O   UNL     1       9.858   1.673  24.779  0.00  0.00    -0.479 OA
ATOM     12  H   UNL     1      10.380   1.994  25.547  0.00  0.00    +0.295 HD
ENDBRANCH   9  11
ENDBRANCH   6   9
ENDBRANCH   1   6
BRANCH   1  13
ATOM     13  C   UNL     1       9.140  -0.069  21.416  0.00  0.00    +0.138 C 
BRANCH  13  14
ATOM     14  C   UNL     1       9.555  -1.405  21.969  0.00  0.00    +0.306 C 
ATOM     15  O   UNL     1      10.671  -1.712  22.343  0.00  0.00    -0.251 OA
BRANCH  14  16
ATOM     16  O   UNL     1       8.510  -2.239  22.107  0.00  0.00    -0.481 OA
ATOM     17  H   UNL     1       8.531  -2.805  21.304  0.00  0.00    +0.295 HD
ENDBRANCH  14  16
ENDBRANCH  13  14
ENDBRANCH   1  13
TORSDOF 9
ENDMDL
MODEL 8
REMARK VINA RESULT:      -4.1      4.021      6.076
REMARK  Name = 
REMARK  9 active torsions:
REMARK  status: ('A' for Active; 'I' for Inactive)
REMARK    1  A    between atoms: O_1  and  C_2
REMARK    2  A    between atoms: C_2  and  C_4
REMARK    3  A    between atoms: C_2  and  C_13
REMARK    4  A    between atoms: C_4  and  C_6
REMARK    5  A    between atoms: C_4  and  C_10
REMARK    6  A    between atoms: C_6  and  C_7
REMARK    7  A    between atoms: C_7  and  O_8
REMARK    8  A    between atoms: C_10  and  O_11
REMARK    9  A    between atoms: C_13  and  O_14
REMARK                            x       y       z     vdW  Elec       q    Type
REMARK                         _______ _______ _______ _____ _____    ______ ____
ROOT
ATOM      1  C   UNL     1       9.655   0.162  23.026  0.00  0.00    +0.147 C 
ENDROOT
BRANCH   1   2
ATOM      2  C   UNL     1       9.500   0.703  21.620  0.00  0.00    +0.311 C 
ATOM      3  O   UNL     1       9.068   0.040  20.691  0.00  0.00    -0.251 OA
BRANCH   2   4
ATOM      4  O   UNL     1       9.868   1.995  21.469  0.00  0.00    -0.480 OA
ATOM      5  H   UNL     1      10.801   2.110  21.187  0.00  0.00    +0.295 HD
ENDBRANCH   2   4
ENDBRANCH   1   2
BRANCH   1   6
ATOM      6  C   UNL     1      10.245   1.268  23.896  0.00  0.00    +0.237 C 
BRANCH   6   7
ATOM      7  O   UNL     1      11.350   0.768  24.679  0.00  0.00    -0.380 OA
ATOM      8  H   UNL     1      11.013  -0.038  25.129  0.00  0.00    +0.211 HD
ENDBRANCH   6   7
BRANCH   6   9
ATOM      9  C   UNL     1       9.192   1.866  24.832  0.00  0.00    +0.334 C 
ATOM     10  O   UNL     1       8.806   3.018  24.803  0.00  0.00    -0.248 OA
BRANCH   9  11
ATOM     11  O   UNL     1       8.715   0.940  25.703  0.00  0.00    -0.479 OA
ATOM     12  H   UNL     1       9.274   0.921  26.511  0.00  0.00    +0.295 HD
ENDBRANCH   9  11
ENDBRANCH   6   9
ENDBRANCH   1   6
BRANCH   1  13
ATOM     13  C   UNL     1      10.439  -1.151  23.020  0.00  0.00    +0.138 C 
BRANCH  13  14
ATOM     14  C   UNL     1       9.679  -2.190  23.800  0.00  0.00    +0.306 C 
ATOM     15  O   UNL     1      10.065  -3.312  24.066  0.00  0.00    -0.251 OA
BRANCH  14  16
ATOM     16  O   UNL     1       8.519  -1.709  24.281  0.00  0.00    -0.481 OA
ATOM     17  H   UNL     1       8.377  -2.192  25.125  0.00  0.00    +0.295 HD
ENDBRANCH  14  16
ENDBRANCH  13  14
ENDBRANCH   1  13
TORSDOF 9
ENDMDL
MODEL 9
REMARK VINA RESULT:      -4.1      1.019      3.357
REMARK  Name = 
REMARK  9 active torsions:
REMARK  status: ('A' for Active; 'I' for Inactive)
REMARK    1  A    between atoms: O_1  and  C_2
REMARK    2  A    between atoms: C_2  and  C_4
REMARK    3  A    between atoms: C_2  and  C_13
REMARK    4  A    between atoms: C_4  and  C_6
REMARK    5  A    between atoms: C_4  and  C_10
REMARK    6  A    between atoms: C_6  and  C_7
REMARK    7  A    between atoms: C_7  and  O_8
REMARK    8  A    between atoms: C_10  and  O_11
REMARK    9  A    between atoms: C_13  and  O_14
REMARK                            x       y       z     vdW  Elec       q    Type
REMARK                         _______ _______ _______ _____ _____    ______ ____
ROOT
ATOM      1  C   UNL     1       7.822  -4.733  24.004  0.00  0.00    +0.147 C 
ENDROOT
BRANCH   1   2
ATOM      2  C   UNL     1       8.585  -5.371  25.146  0.00  0.00    +0.311 C 
ATOM      3  O   UNL     1       8.057  -5.738  26.183  0.00  0.00    -0.251 OA
BRANCH   2   4
ATOM      4  O   UNL     1       9.911  -5.518  24.925  0.00  0.00    -0.480 OA
ATOM      5  H   UNL     1      10.295  -4.824  24.347  0.00  0.00    +0.295 HD
ENDBRANCH   2   4
ENDBRANCH   1   2
BRANCH   1   6
ATOM      6  C   UNL     1       7.920  -3.218  24.158  0.00  0.00    +0.237 C 
BRANCH   6   7
ATOM      7  O   UNL     1       6.630  -2.599  23.963  0.00  0.00    -0.380 OA
ATOM      8  H   UNL     1       5.976  -3.221  24.351  0.00  0.00    +0.211 HD
ENDBRANCH   6   7
BRANCH   6   9
ATOM      9  C   UNL     1       8.922  -2.620  23.168  0.00  0.00    +0.334 C 
ATOM     10  O   UNL     1       8.628  -2.067  22.126  0.00  0.00    -0.248 OA
BRANCH   9  11
ATOM     11  O   UNL     1      10.200  -2.762  23.603  0.00  0.00    -0.479 OA
ATOM     12  H   UNL     1      10.692  -1.920  23.481  0.00  0.00    +0.295 HD
ENDBRANCH   9  11
ENDBRANCH   6   9
ENDBRANCH   1   6
BRANCH   1  13
ATOM     13  C   UNL     1       6.399  -5.289  23.923  0.00  0.00    +0.138 C 
BRANCH  13  14
ATOM     14  C   UNL     1       6.010  -5.456  22.480  0.00  0.00    +0.306 C 
ATOM     15  O   UNL     1       5.648  -4.573  21.727  0.00  0.00    -0.251 OA
BRANCH  14  16
ATOM     16  O   UNL     1       6.198  -6.716  22.050  0.00  0.00    -0.481 OA
ATOM     17  H   UNL     1       5.296  -7.102  21.996  0.00  0.00    +0.295 HD
ENDBRANCH  14  16
ENDBRANCH  13  14
ENDBRANCH   1  13
TORSDOF 9
ENDMDL
