MODEL 1
REMARK VINA RESULT:      -8.0      0.000      0.000
REMARK  Name = 
REMARK  6 active torsions:
REMARK  status: ('A' for Active; 'I' for Inactive)
REMARK    1  A    between atoms: C_3  and  C_4
REMARK    2  A    between atoms: C_4  and  C_5
REMARK    3  A    between atoms: C_5  and  S_6
REMARK    4  A    between atoms: S_6  and  C_8
REMARK    5  A    between atoms: N_16  and  C_24
REMARK    6  A    between atoms: N_17  and  C_18
REMARK                            x       y       z     vdW  Elec       q    Type
REMARK                         _______ _______ _______ _____ _____    ______ ____
ROOT
ATOM      1  O   UNL     1       9.730  -2.024  22.435  0.00  0.00    -0.273 OA
ATOM      2  C   UNL     1       9.214  -2.087  23.543  0.00  0.00    +0.249 C 
ATOM      3  N   UNL     1       8.416  -3.118  24.098  0.00  0.00    -0.180 N 
ATOM      4  N   UNL     1       7.994  -2.727  25.410  0.00  0.00    -0.180 N 
ATOM      5  C   UNL     1       8.684  -1.560  25.772  0.00  0.00    +0.249 C 
ATOM      6  O   UNL     1       8.863  -1.037  26.865  0.00  0.00    -0.273 OA
ATOM      7  C   UNL     1       9.189  -0.933  24.513  0.00  0.00    +0.165 C 
ENDROOT
BRANCH   3   8
ATOM      8  C   UNL     1       7.698  -3.913  23.163  0.00  0.00    +0.057 A 
ATOM      9  C   UNL     1       7.845  -5.301  23.075  0.00  0.00    +0.025 A 
ATOM     10  C   UNL     1       7.021  -6.038  22.215  0.00  0.00    +0.002 A 
ATOM     11  C   UNL     1       6.062  -5.398  21.429  0.00  0.00    +0.000 A 
ATOM     12  C   UNL     1       5.926  -4.014  21.490  0.00  0.00    +0.002 A 
ATOM     13  C   UNL     1       6.735  -3.280  22.355  0.00  0.00    +0.025 A 
ENDBRANCH   3   8
BRANCH   4  14
ATOM     14  C   UNL     1       7.299  -3.541  26.363  0.00  0.00    +0.057 A 
ATOM     15  C   UNL     1       7.773  -4.783  26.799  0.00  0.00    +0.025 A 
ATOM     16  C   UNL     1       6.991  -5.613  27.620  0.00  0.00    +0.002 A 
ATOM     17  C   UNL     1       5.741  -5.196  28.064  0.00  0.00    +0.000 A 
ATOM     18  C   UNL     1       5.279  -3.940  27.702  0.00  0.00    +0.002 A 
ATOM     19  C   UNL     1       6.045  -3.133  26.860  0.00  0.00    +0.025 A 
ENDBRANCH   4  14
BRANCH   7  20
ATOM     20  C   UNL     1       8.175   0.118  24.036  0.00  0.00    +0.036 C 
BRANCH  20  21
ATOM     21  C   UNL     1       8.659   1.569  24.166  0.00  0.00    +0.110 C 
BRANCH  21  22
ATOM     22  S   UNL     1      10.287   1.736  23.340  0.00  0.00    +0.054 S 
ATOM     23  O   UNL     1      10.045   1.552  21.869  0.00  0.00    -0.252 OA
BRANCH  22  24
ATOM     24  C   UNL     1      10.531   3.513  23.573  0.00  0.00    +0.039 A 
ATOM     25  C   UNL     1      11.768   4.111  23.312  0.00  0.00    +0.017 A 
ATOM     26  C   UNL     1      11.970   5.467  23.580  0.00  0.00    +0.001 A 
ATOM     27  C   UNL     1      10.936   6.234  24.114  0.00  0.00    +0.000 A 
ATOM     28  C   UNL     1       9.699   5.646  24.374  0.00  0.00    +0.001 A 
ATOM     29  C   UNL     1       9.494   4.290  24.106  0.00  0.00    +0.017 A 
ENDBRANCH  22  24
ENDBRANCH  21  22
ENDBRANCH  20  21
ENDBRANCH   7  20
TORSDOF 6
ENDMDL
MODEL 2
REMARK VINA RESULT:      -7.9      0.417      1.326
REMARK  Name = 
REMARK  6 active torsions:
REMARK  status: ('A' for Active; 'I' for Inactive)
REMARK    1  A    between atoms: C_3  and  C_4
REMARK    2  A    between atoms: C_4  and  C_5
REMARK    3  A    between atoms: C_5  and  S_6
REMARK    4  A    between atoms: S_6  and  C_8
REMARK    5  A    between atoms: N_16  and  C_24
REMARK    6  A    between atoms: N_17  and  C_18
REMARK                            x       y       z     vdW  Elec       q    Type
REMARK                         _______ _______ _______ _____ _____    ______ ____
ROOT
ATOM      1  O   UNL     1      10.051  -2.295  22.752  0.00  0.00    -0.273 OA
ATOM      2  C   UNL     1       9.414  -2.292  23.797  0.00  0.00    +0.249 C 
ATOM      3  N   UNL     1       8.450  -3.223  24.256  0.00  0.00    -0.180 N 
ATOM      4  N   UNL     1       7.935  -2.778  25.517  0.00  0.00    -0.180 N 
ATOM      5  C   UNL     1       8.709  -1.695  25.959  0.00  0.00    +0.249 C 
ATOM      6  O   UNL     1       8.827  -1.188  27.067  0.00  0.00    -0.273 OA
ATOM      7  C   UNL     1       9.415  -1.137  24.765  0.00  0.00    +0.165 C 
ENDROOT
BRANCH   3   8
ATOM      8  C   UNL     1       7.752  -3.938  23.244  0.00  0.00    +0.057 A 
ATOM      9  C   UNL     1       7.861  -5.322  23.080  0.00  0.00    +0.025 A 
ATOM     10  C   UNL     1       7.056  -5.981  22.141  0.00  0.00    +0.002 A 
ATOM     11  C   UNL     1       6.154  -5.264  21.354  0.00  0.00    +0.000 A 
ATOM     12  C   UNL     1       6.057  -3.882  21.491  0.00  0.00    +0.002 A 
ATOM     13  C   UNL     1       6.847  -3.227  22.434  0.00  0.00    +0.025 A 
ENDBRANCH   3   8
BRANCH   4  14
ATOM     14  C   UNL     1       7.053  -3.502  26.384  0.00  0.00    +0.057 A 
ATOM     15  C   UNL     1       5.841  -2.983  26.850  0.00  0.00    +0.025 A 
ATOM     16  C   UNL     1       5.079  -3.665  27.813  0.00  0.00    +0.002 A 
ATOM     17  C   UNL     1       5.487  -4.906  28.291  0.00  0.00    +0.000 A 
ATOM     18  C   UNL     1       6.649  -5.473  27.793  0.00  0.00    +0.002 A 
ATOM     19  C   UNL     1       7.419  -4.777  26.861  0.00  0.00    +0.025 A 
ENDBRANCH   4  14
BRANCH   7  20
ATOM     20  C   UNL     1       8.584   0.019  24.187  0.00  0.00    +0.036 C 
BRANCH  20  21
ATOM     21  C   UNL     1       9.173   1.413  24.444  0.00  0.00    +0.110 C 
BRANCH  21  22
ATOM     22  S   UNL     1       9.929   2.041  22.896  0.00  0.00    +0.054 S 
ATOM     23  O   UNL     1       8.801   2.293  21.937  0.00  0.00    -0.252 OA
BRANCH  22  24
ATOM     24  C   UNL     1      10.442   3.673  23.483  0.00  0.00    +0.039 A 
ATOM     25  C   UNL     1       9.521   4.554  24.058  0.00  0.00    +0.017 A 
ATOM     26  C   UNL     1       9.910   5.845  24.426  0.00  0.00    +0.001 A 
ATOM     27  C   UNL     1      11.223   6.262  24.219  0.00  0.00    +0.000 A 
ATOM     28  C   UNL     1      12.148   5.389  23.649  0.00  0.00    +0.001 A 
ATOM     29  C   UNL     1      11.761   4.097  23.280  0.00  0.00    +0.017 A 
ENDBRANCH  22  24
ENDBRANCH  21  22
ENDBRANCH  20  21
ENDBRANCH   7  20
TORSDOF 6
ENDMDL
MODEL 3
REMARK VINA RESULT:      -7.5      1.442      2.422
REMARK  Name = 
REMARK  6 active torsions:
REMARK  status: ('A' for Active; 'I' for Inactive)
REMARK    1  A    between atoms: C_3  and  C_4
REMARK    2  A    between atoms: C_4  and  C_5
REMARK    3  A    between atoms: C_5  and  S_6
REMARK    4  A    between atoms: S_6  and  C_8
REMARK    5  A    between atoms: N_16  and  C_24
REMARK    6  A    between atoms: N_17  and  C_18
REMARK                            x       y       z     vdW  Elec       q    Type
REMARK                         _______ _______ _______ _____ _____    ______ ____
ROOT
ATOM      1  O   UNL     1      10.156  -2.674  23.002  0.00  0.00    -0.273 OA
ATOM      2  C   UNL     1       9.467  -2.472  23.992  0.00  0.00    +0.249 C 
ATOM      3  N   UNL     1       8.315  -3.169  24.435  0.00  0.00    -0.180 N 
ATOM      4  N   UNL     1       7.816  -2.540  25.621  0.00  0.00    -0.180 N 
ATOM      5  C   UNL     1       8.753  -1.588  26.051  0.00  0.00    +0.249 C 
ATOM      6  O   UNL     1       8.896  -1.028  27.130  0.00  0.00    -0.273 OA
ATOM      7  C   UNL     1       9.626  -1.265  24.881  0.00  0.00    +0.165 C 
ENDROOT
BRANCH   3   8
ATOM      8  C   UNL     1       7.559  -3.817  23.420  0.00  0.00    +0.057 A 
ATOM      9  C   UNL     1       6.718  -3.127  22.542  0.00  0.00    +0.025 A 
ATOM     10  C   UNL     1       6.094  -3.809  21.490  0.00  0.00    +0.002 A 
ATOM     11  C   UNL     1       6.290  -5.180  21.318  0.00  0.00    +0.000 A 
ATOM     12  C   UNL     1       7.105  -5.881  22.203  0.00  0.00    +0.002 A 
ATOM     13  C   UNL     1       7.738  -5.201  23.242  0.00  0.00    +0.025 A 
ENDBRANCH   3   8
BRANCH   4  14
ATOM     14  C   UNL     1       6.759  -3.018  26.463  0.00  0.00    +0.057 A 
ATOM     15  C   UNL     1       5.622  -2.262  26.769  0.00  0.00    +0.025 A 
ATOM     16  C   UNL     1       4.683  -2.708  27.712  0.00  0.00    +0.002 A 
ATOM     17  C   UNL     1       4.834  -3.945  28.332  0.00  0.00    +0.000 A 
ATOM     18  C   UNL     1       5.915  -4.743  27.994  0.00  0.00    +0.002 A 
ATOM     19  C   UNL     1       6.863  -4.281  27.080  0.00  0.00    +0.025 A 
ENDBRANCH   4  14
BRANCH   7  20
ATOM     20  C   UNL     1       9.070  -0.023  24.169  0.00  0.00    +0.036 C 
BRANCH  20  21
ATOM     21  C   UNL     1      10.086   1.113  23.988  0.00  0.00    +0.110 C 
BRANCH  21  22
ATOM     22  S   UNL     1       9.895   1.830  22.312  0.00  0.00    +0.054 S 
ATOM     23  O   UNL     1       9.449   0.713  21.413  0.00  0.00    -0.252 OA
BRANCH  22  24
ATOM     24  C   UNL     1       8.419   2.832  22.610  0.00  0.00    +0.039 A 
ATOM     25  C   UNL     1       7.184   2.479  22.056  0.00  0.00    +0.017 A 
ATOM     26  C   UNL     1       6.071   3.307  22.220  0.00  0.00    +0.001 A 
ATOM     27  C   UNL     1       6.188   4.497  22.936  0.00  0.00    +0.000 A 
ATOM     28  C   UNL     1       7.413   4.855  23.493  0.00  0.00    +0.001 A 
ATOM     29  C   UNL     1       8.528   4.027  23.332  0.00  0.00    +0.017 A 
ENDBRANCH  22  24
ENDBRANCH  21  22
ENDBRANCH  20  21
ENDBRANCH   7  20
TORSDOF 6
ENDMDL
MODEL 4
REMARK VINA RESULT:      -7.5      3.122      7.218
REMARK  Name = 
REMARK  6 active torsions:
REMARK  status: ('A' for Active; 'I' for Inactive)
REMARK    1  A    between atoms: C_3  and  C_4
REMARK    2  A    between atoms: C_4  and  C_5
REMARK    3  A    between atoms: C_5  and  S_6
REMARK    4  A    between atoms: S_6  and  C_8
REMARK    5  A    between atoms: N_16  and  C_24
REMARK    6  A    between atoms: N_17  and  C_18
REMARK                            x       y       z     vdW  Elec       q    Type
REMARK                         _______ _______ _______ _____ _____    ______ ____
ROOT
ATOM      1  O   UNL     1       9.468  -0.478  25.903  0.00  0.00    -0.273 OA
ATOM      2  C   UNL     1       8.869  -1.477  25.528  0.00  0.00    +0.249 C 
ATOM      3  N   UNL     1       8.538  -1.874  24.209  0.00  0.00    -0.180 N 
ATOM      4  N   UNL     1       7.788  -3.094  24.264  0.00  0.00    -0.180 N 
ATOM      5  C   UNL     1       7.823  -3.582  25.579  0.00  0.00    +0.249 C 
ATOM      6  O   UNL     1       7.579  -4.693  26.032  0.00  0.00    -0.273 OA
ATOM      7  C   UNL     1       8.184  -2.436  26.468  0.00  0.00    +0.165 C 
ENDROOT
BRANCH   3   8
ATOM      8  C   UNL     1       8.402  -0.821  23.263  0.00  0.00    +0.057 A 
ATOM      9  C   UNL     1       7.303   0.045  23.244  0.00  0.00    +0.025 A 
ATOM     10  C   UNL     1       7.287   1.134  22.364  0.00  0.00    +0.002 A 
ATOM     11  C   UNL     1       8.353   1.356  21.491  0.00  0.00    +0.000 A 
ATOM     12  C   UNL     1       9.439   0.485  21.484  0.00  0.00    +0.002 A 
ATOM     13  C   UNL     1       9.463  -0.592  22.369  0.00  0.00    +0.025 A 
ENDBRANCH   3   8
BRANCH   4  14
ATOM     14  C   UNL     1       7.389  -3.904  23.150  0.00  0.00    +0.057 A 
ATOM     15  C   UNL     1       6.601  -3.423  22.098  0.00  0.00    +0.025 A 
ATOM     16  C   UNL     1       6.111  -4.285  21.103  0.00  0.00    +0.002 A 
ATOM     17  C   UNL     1       6.442  -5.636  21.110  0.00  0.00    +0.000 A 
ATOM     18  C   UNL     1       7.278  -6.123  22.103  0.00  0.00    +0.002 A 
ATOM     19  C   UNL     1       7.736  -5.269  23.107  0.00  0.00    +0.025 A 
ENDBRANCH   4  14
BRANCH   7  20
ATOM     20  C   UNL     1       6.896  -1.796  27.008  0.00  0.00    +0.036 C 
BRANCH  20  21
ATOM     21  C   UNL     1       5.759  -2.791  27.280  0.00  0.00    +0.110 C 
BRANCH  21  22
ATOM     22  S   UNL     1       4.352  -2.416  26.166  0.00  0.00    +0.054 S 
ATOM     23  O   UNL     1       4.885  -1.521  25.085  0.00  0.00    -0.252 OA
BRANCH  22  24
ATOM     24  C   UNL     1       4.167  -4.045  25.401  0.00  0.00    +0.039 A 
ATOM     25  C   UNL     1       4.584  -5.204  26.064  0.00  0.00    +0.017 A 
ATOM     26  C   UNL     1       4.517  -6.446  25.428  0.00  0.00    +0.001 A 
ATOM     27  C   UNL     1       4.037  -6.536  24.123  0.00  0.00    +0.000 A 
ATOM     28  C   UNL     1       3.618  -5.386  23.456  0.00  0.00    +0.001 A 
ATOM     29  C   UNL     1       3.682  -4.142  24.091  0.00  0.00    +0.017 A 
ENDBRANCH  22  24
ENDBRANCH  21  22
ENDBRANCH  20  21
ENDBRANCH   7  20
TORSDOF 6
ENDMDL
MODEL 5
REMARK VINA RESULT:      -7.3      2.446      3.779
REMARK  Name = 
REMARK  6 active torsions:
REMARK  status: ('A' for Active; 'I' for Inactive)
REMARK    1  A    between atoms: C_3  and  C_4
REMARK    2  A    between atoms: C_4  and  C_5
REMARK    3  A    between atoms: C_5  and  S_6
REMARK    4  A    between atoms: S_6  and  C_8
REMARK    5  A    between atoms: N_16  and  C_24
REMARK    6  A    between atoms: N_17  and  C_18
REMARK                            x       y       z     vdW  Elec       q    Type
REMARK                         _______ _______ _______ _____ _____    ______ ____
ROOT
ATOM      1  O   UNL     1       9.351  -4.710  24.343  0.00  0.00    -0.273 OA
ATOM      2  C   UNL     1       8.392  -4.875  25.083  0.00  0.00    +0.249 C 
ATOM      3  N   UNL     1       7.071  -5.270  24.756  0.00  0.00    -0.180 N 
ATOM      4  N   UNL     1       6.278  -5.282  25.949  0.00  0.00    -0.180 N 
ATOM      5  C   UNL     1       7.127  -5.105  27.052  0.00  0.00    +0.249 C 
ATOM      6  O   UNL     1       6.954  -5.324  28.244  0.00  0.00    -0.273 OA
ATOM      7  C   UNL     1       8.396  -4.501  26.543  0.00  0.00    +0.165 C 
ENDROOT
BRANCH   3   8
ATOM      8  C   UNL     1       6.641  -4.951  23.439  0.00  0.00    +0.057 A 
ATOM      9  C   UNL     1       6.252  -3.662  23.058  0.00  0.00    +0.025 A 
ATOM     10  C   UNL     1       5.954  -3.389  21.717  0.00  0.00    +0.002 A 
ATOM     11  C   UNL     1       6.024  -4.397  20.755  0.00  0.00    +0.000 A 
ATOM     12  C   UNL     1       6.385  -5.689  21.128  0.00  0.00    +0.002 A 
ATOM     13  C   UNL     1       6.696  -5.960  22.460  0.00  0.00    +0.025 A 
ENDBRANCH   3   8
BRANCH   4  14
ATOM     14  C   UNL     1       4.933  -5.762  26.078  0.00  0.00    +0.057 A 
ATOM     15  C   UNL     1       4.511  -6.999  25.580  0.00  0.00    +0.025 A 
ATOM     16  C   UNL     1       3.156  -7.367  25.597  0.00  0.00    +0.002 A 
ATOM     17  C   UNL     1       2.201  -6.527  26.160  0.00  0.00    +0.000 A 
ATOM     18  C   UNL     1       2.604  -5.326  26.722  0.00  0.00    +0.002 A 
ATOM     19  C   UNL     1       3.947  -4.950  26.674  0.00  0.00    +0.025 A 
ENDBRANCH   4  14
BRANCH   7  20
ATOM     20  C   UNL     1       8.314  -2.973  26.683  0.00  0.00    +0.036 C 
BRANCH  20  21
ATOM     21  C   UNL     1       8.780  -2.198  25.443  0.00  0.00    +0.110 C 
BRANCH  21  22
ATOM     22  S   UNL     1       7.625  -0.807  25.135  0.00  0.00    +0.054 S 
ATOM     23  O   UNL     1       7.620   0.033  26.379  0.00  0.00    -0.252 OA
BRANCH  22  24
ATOM     24  C   UNL     1       8.617   0.112  23.933  0.00  0.00    +0.039 A 
ATOM     25  C   UNL     1       9.619   0.995  24.350  0.00  0.00    +0.017 A 
ATOM     26  C   UNL     1      10.318   1.764  23.417  0.00  0.00    +0.001 A 
ATOM     27  C   UNL     1      10.017   1.658  22.060  0.00  0.00    +0.000 A 
ATOM     28  C   UNL     1       9.022   0.778  21.636  0.00  0.00    +0.001 A 
ATOM     29  C   UNL     1       8.322   0.006  22.568  0.00  0.00    +0.017 A 
ENDBRANCH  22  24
ENDBRANCH  21  22
ENDBRANCH  20  21
ENDBRANCH   7  20
TORSDOF 6
ENDMDL
MODEL 6
REMARK VINA RESULT:      -7.3      2.775      7.764
REMARK  Name = 
REMARK  6 active torsions:
REMARK  status: ('A' for Active; 'I' for Inactive)
REMARK    1  A    between atoms: C_3  and  C_4
REMARK    2  A    between atoms: C_4  and  C_5
REMARK    3  A    between atoms: C_5  and  S_6
REMARK    4  A    between atoms: S_6  and  C_8
REMARK    5  A    between atoms: N_16  and  C_24
REMARK    6  A    between atoms: N_17  and  C_18
REMARK                            x       y       z     vdW  Elec       q    Type
REMARK                         _______ _______ _______ _____ _____    ______ ____
ROOT
ATOM      1  O   UNL     1       8.272  -3.686  26.887  0.00  0.00    -0.273 OA
ATOM      2  C   UNL     1       8.676  -3.056  25.920  0.00  0.00    +0.249 C 
ATOM      3  N   UNL     1       8.544  -1.673  25.639  0.00  0.00    -0.180 N 
ATOM      4  N   UNL     1       9.134  -1.399  24.361  0.00  0.00    -0.180 N 
ATOM      5  C   UNL     1       9.819  -2.545  23.930  0.00  0.00    +0.249 C 
ATOM      6  O   UNL     1      10.680  -2.693  23.072  0.00  0.00    -0.273 OA
ATOM      7  C   UNL     1       9.272  -3.705  24.697  0.00  0.00    +0.165 C 
ENDROOT
BRANCH   3   8
ATOM      8  C   UNL     1       7.421  -1.029  26.225  0.00  0.00    +0.057 A 
ATOM      9  C   UNL     1       7.531  -0.140  27.300  0.00  0.00    +0.025 A 
ATOM     10  C   UNL     1       6.401   0.552  27.753  0.00  0.00    +0.002 A 
ATOM     11  C   UNL     1       5.158   0.351  27.153  0.00  0.00    +0.000 A 
ATOM     12  C   UNL     1       5.033  -0.551  26.100  0.00  0.00    +0.002 A 
ATOM     13  C   UNL     1       6.159  -1.230  25.638  0.00  0.00    +0.025 A 
ENDBRANCH   3   8
BRANCH   4  14
ATOM     14  C   UNL     1       9.341  -0.108  23.775  0.00  0.00    +0.057 A 
ATOM     15  C   UNL     1       8.809   0.265  22.536  0.00  0.00    +0.025 A 
ATOM     16  C   UNL     1       9.157   1.483  21.931  0.00  0.00    +0.002 A 
ATOM     17  C   UNL     1      10.002   2.379  22.577  0.00  0.00    +0.000 A 
ATOM     18  C   UNL     1      10.487   2.064  23.836  0.00  0.00    +0.002 A 
ATOM     19  C   UNL     1      10.165   0.837  24.419  0.00  0.00    +0.025 A 
ENDBRANCH   4  14
BRANCH   7  20
ATOM     20  C   UNL     1       8.158  -4.369  23.873  0.00  0.00    +0.036 C 
BRANCH  20  21
ATOM     21  C   UNL     1       7.631  -3.513  22.713  0.00  0.00    +0.110 C 
BRANCH  21  22
ATOM     22  S   UNL     1       6.459  -4.509  21.715  0.00  0.00    +0.054 S 
ATOM     23  O   UNL     1       7.138  -5.817  21.429  0.00  0.00    -0.252 OA
BRANCH  22  24
ATOM     24  C   UNL     1       5.239  -4.866  23.002  0.00  0.00    +0.039 A 
ATOM     25  C   UNL     1       4.511  -3.839  23.611  0.00  0.00    +0.017 A 
ATOM     26  C   UNL     1       3.637  -4.117  24.664  0.00  0.00    +0.001 A 
ATOM     27  C   UNL     1       3.488  -5.427  25.118  0.00  0.00    +0.000 A 
ATOM     28  C   UNL     1       4.208  -6.457  24.515  0.00  0.00    +0.001 A 
ATOM     29  C   UNL     1       5.082  -6.180  23.460  0.00  0.00    +0.017 A 
ENDBRANCH  22  24
ENDBRANCH  21  22
ENDBRANCH  20  21
ENDBRANCH   7  20
TORSDOF 6
ENDMDL
MODEL 7
REMARK VINA RESULT:      -7.1      2.850      7.725
REMARK  Name = 
REMARK  6 active torsions:
REMARK  status: ('A' for Active; 'I' for Inactive)
REMARK    1  A    between atoms: C_3  and  C_4
REMARK    2  A    between atoms: C_4  and  C_5
REMARK    3  A    between atoms: C_5  and  S_6
REMARK    4  A    between atoms: S_6  and  C_8
REMARK    5  A    between atoms: N_16  and  C_24
REMARK    6  A    between atoms: N_17  and  C_18
REMARK                            x       y       z     vdW  Elec       q    Type
REMARK                         _______ _______ _______ _____ _____    ______ ____
ROOT
ATOM      1  O   UNL     1       7.805  -3.229  26.646  0.00  0.00    -0.273 OA
ATOM      2  C   UNL     1       8.387  -2.674  25.725  0.00  0.00    +0.249 C 
ATOM      3  N   UNL     1       8.526  -1.288  25.464  0.00  0.00    -0.180 N 
ATOM      4  N   UNL     1       9.250  -1.113  24.240  0.00  0.00    -0.180 N 
ATOM      5  C   UNL     1       9.752  -2.359  23.836  0.00  0.00    +0.249 C 
ATOM      6  O   UNL     1      10.636  -2.652  23.041  0.00  0.00    -0.273 OA
ATOM      7  C   UNL     1       8.950  -3.409  24.535  0.00  0.00    +0.165 C 
ENDROOT
BRANCH   3   8
ATOM      8  C   UNL     1       7.494  -0.457  25.980  0.00  0.00    +0.057 A 
ATOM      9  C   UNL     1       7.486   0.016  27.297  0.00  0.00    +0.025 A 
ATOM     10  C   UNL     1       6.504   0.926  27.708  0.00  0.00    +0.002 A 
ATOM     11  C   UNL     1       5.519   1.356  26.818  0.00  0.00    +0.000 A 
ATOM     12  C   UNL     1       5.502   0.871  25.513  0.00  0.00    +0.002 A 
ATOM     13  C   UNL     1       6.487  -0.025  25.098  0.00  0.00    +0.025 A 
ENDBRANCH   3   8
BRANCH   4  14
ATOM     14  C   UNL     1       9.728   0.125  23.699  0.00  0.00    +0.057 A 
ATOM     15  C   UNL     1      10.478   1.046  24.439  0.00  0.00    +0.025 A 
ATOM     16  C   UNL     1      10.800   2.309  23.917  0.00  0.00    +0.002 A 
ATOM     17  C   UNL     1      10.425   2.658  22.624  0.00  0.00    +0.000 A 
ATOM     18  C   UNL     1       9.742   1.737  21.845  0.00  0.00    +0.002 A 
ATOM     19  C   UNL     1       9.396   0.495  22.380  0.00  0.00    +0.025 A 
ENDBRANCH   4  14
BRANCH   7  20
ATOM     20  C   UNL     1       7.802  -3.857  23.617  0.00  0.00    +0.036 C 
BRANCH  20  21
ATOM     21  C   UNL     1       7.270  -5.267  23.910  0.00  0.00    +0.110 C 
BRANCH  21  22
ATOM     22  S   UNL     1       5.465  -5.307  23.587  0.00  0.00    +0.054 S 
ATOM     23  O   UNL     1       5.034  -6.739  23.725  0.00  0.00    -0.252 OA
BRANCH  22  24
ATOM     24  C   UNL     1       4.899  -4.481  25.093  0.00  0.00    +0.039 A 
ATOM     25  C   UNL     1       4.504  -3.140  25.075  0.00  0.00    +0.017 A 
ATOM     26  C   UNL     1       4.154  -2.488  26.260  0.00  0.00    +0.001 A 
ATOM     27  C   UNL     1       4.198  -3.175  27.472  0.00  0.00    +0.000 A 
ATOM     28  C   UNL     1       4.588  -4.513  27.499  0.00  0.00    +0.001 A 
ATOM     29  C   UNL     1       4.938  -5.167  26.314  0.00  0.00    +0.017 A 
ENDBRANCH  22  24
ENDBRANCH  21  22
ENDBRANCH  20  21
ENDBRANCH   7  20
TORSDOF 6
ENDMDL
MODEL 8
REMARK VINA RESULT:      -7.0      3.399      7.890
REMARK  Name = 
REMARK  6 active torsions:
REMARK  status: ('A' for Active; 'I' for Inactive)
REMARK    1  A    between atoms: C_3  and  C_4
REMARK    2  A    between atoms: C_4  and  C_5
REMARK    3  A    between atoms: C_5  and  S_6
REMARK    4  A    between atoms: S_6  and  C_8
REMARK    5  A    between atoms: N_16  and  C_24
REMARK    6  A    between atoms: N_17  and  C_18
REMARK                            x       y       z     vdW  Elec       q    Type
REMARK                         _______ _______ _______ _____ _____    ______ ____
ROOT
ATOM      1  O   UNL     1       4.132  -3.356  24.792  0.00  0.00    -0.273 OA
ATOM      2  C   UNL     1       4.987  -2.485  24.717  0.00  0.00    +0.249 C 
ATOM      3  N   UNL     1       5.990  -2.302  23.733  0.00  0.00    -0.180 N 
ATOM      4  N   UNL     1       6.794  -1.171  24.089  0.00  0.00    -0.180 N 
ATOM      5  C   UNL     1       6.185  -0.512  25.168  0.00  0.00    +0.249 C 
ATOM      6  O   UNL     1       6.341   0.617  25.614  0.00  0.00    -0.273 OA
ATOM      7  C   UNL     1       5.253  -1.486  25.814  0.00  0.00    +0.165 C 
ENDROOT
BRANCH   3   8
ATOM      8  C   UNL     1       6.412  -3.480  23.057  0.00  0.00    +0.057 A 
ATOM      9  C   UNL     1       7.365  -4.358  23.584  0.00  0.00    +0.025 A 
ATOM     10  C   UNL     1       7.648  -5.560  22.924  0.00  0.00    +0.002 A 
ATOM     11  C   UNL     1       6.999  -5.886  21.732  0.00  0.00    +0.000 A 
ATOM     12  C   UNL     1       6.068  -5.007  21.186  0.00  0.00    +0.002 A 
ATOM     13  C   UNL     1       5.774  -3.816  21.848  0.00  0.00    +0.025 A 
ENDBRANCH   3   8
BRANCH   4  14
ATOM     14  C   UNL     1       7.817  -0.563  23.291  0.00  0.00    +0.057 A 
ATOM     15  C   UNL     1       9.157  -0.963  23.329  0.00  0.00    +0.025 A 
ATOM     16  C   UNL     1      10.151  -0.247  22.642  0.00  0.00    +0.002 A 
ATOM     17  C   UNL     1       9.818   0.854  21.860  0.00  0.00    +0.000 A 
ATOM     18  C   UNL     1       8.488   1.228  21.750  0.00  0.00    +0.002 A 
ATOM     19  C   UNL     1       7.508   0.533  22.460  0.00  0.00    +0.025 A 
ENDBRANCH   4  14
BRANCH   7  20
ATOM     20  C   UNL     1       5.980  -2.180  26.976  0.00  0.00    +0.036 C 
BRANCH  20  21
ATOM     21  C   UNL     1       5.136  -3.226  27.718  0.00  0.00    +0.110 C 
BRANCH  21  22
ATOM     22  S   UNL     1       6.069  -4.802  27.802  0.00  0.00    +0.054 S 
ATOM     23  O   UNL     1       5.999  -5.268  29.228  0.00  0.00    -0.252 OA
BRANCH  22  24
ATOM     24  C   UNL     1       4.914  -5.853  26.890  0.00  0.00    +0.039 A 
ATOM     25  C   UNL     1       5.260  -6.398  25.649  0.00  0.00    +0.017 A 
ATOM     26  C   UNL     1       4.329  -7.134  24.914  0.00  0.00    +0.001 A 
ATOM     27  C   UNL     1       3.043  -7.329  25.414  0.00  0.00    +0.000 A 
ATOM     28  C   UNL     1       2.690  -6.792  26.651  0.00  0.00    +0.001 A 
ATOM     29  C   UNL     1       3.621  -6.055  27.389  0.00  0.00    +0.017 A 
ENDBRANCH  22  24
ENDBRANCH  21  22
ENDBRANCH  20  21
ENDBRANCH   7  20
TORSDOF 6
ENDMDL
MODEL 9
REMARK VINA RESULT:      -7.0      1.740      4.106
REMARK  Name = 
REMARK  6 active torsions:
REMARK  status: ('A' for Active; 'I' for Inactive)
REMARK    1  A    between atoms: C_3  and  C_4
REMARK    2  A    between atoms: C_4  and  C_5
REMARK    3  A    between atoms: C_5  and  S_6
REMARK    4  A    between atoms: S_6  and  C_8
REMARK    5  A    between atoms: N_16  and  C_24
REMARK    6  A    between atoms: N_17  and  C_18
REMARK                            x       y       z     vdW  Elec       q    Type
REMARK                         _______ _______ _______ _____ _____    ______ ____
ROOT
ATOM      1  O   UNL     1       5.365   0.369  25.113  0.00  0.00    -0.273 OA
ATOM      2  C   UNL     1       6.015  -0.405  24.424  0.00  0.00    +0.249 C 
ATOM      3  N   UNL     1       5.814  -1.791  24.208  0.00  0.00    -0.180 N 
ATOM      4  N   UNL     1       6.859  -2.288  23.362  0.00  0.00    -0.180 N 
ATOM      5  C   UNL     1       7.592  -1.198  22.871  0.00  0.00    +0.249 C 
ATOM      6  O   UNL     1       8.366  -1.108  21.926  0.00  0.00    -0.273 OA
ATOM      7  C   UNL     1       7.326  -0.039  23.776  0.00  0.00    +0.165 C 
ENDROOT
BRANCH   3   8
ATOM      8  C   UNL     1       5.148  -2.487  25.254  0.00  0.00    +0.057 A 
ATOM      9  C   UNL     1       3.872  -3.040  25.105  0.00  0.00    +0.025 A 
ATOM     10  C   UNL     1       3.321  -3.816  26.133  0.00  0.00    +0.002 A 
ATOM     11  C   UNL     1       4.030  -4.030  27.317  0.00  0.00    +0.000 A 
ATOM     12  C   UNL     1       5.290  -3.462  27.485  0.00  0.00    +0.002 A 
ATOM     13  C   UNL     1       5.845  -2.702  26.457  0.00  0.00    +0.025 A 
ENDBRANCH   3   8
BRANCH   4  14
ATOM     14  C   UNL     1       6.943  -3.598  22.788  0.00  0.00    +0.057 A 
ATOM     15  C   UNL     1       6.225  -3.984  21.650  0.00  0.00    +0.025 A 
ATOM     16  C   UNL     1       6.224  -5.316  21.207  0.00  0.00    +0.002 A 
ATOM     17  C   UNL     1       6.982  -6.281  21.861  0.00  0.00    +0.000 A 
ATOM     18  C   UNL     1       7.757  -5.910  22.949  0.00  0.00    +0.002 A 
ATOM     19  C   UNL     1       7.730  -4.592  23.405  0.00  0.00    +0.025 A 
ENDBRANCH   4  14
BRANCH   7  20
ATOM     20  C   UNL     1       8.427   0.026  24.845  0.00  0.00    +0.036 C 
BRANCH  20  21
ATOM     21  C   UNL     1       9.033   1.422  25.048  0.00  0.00    +0.110 C 
BRANCH  21  22
ATOM     22  S   UNL     1       8.345   2.564  23.788  0.00  0.00    +0.054 S 
ATOM     23  O   UNL     1       7.179   3.260  24.428  0.00  0.00    -0.252 OA
BRANCH  22  24
ATOM     24  C   UNL     1       9.683   3.781  23.763  0.00  0.00    +0.039 A 
ATOM     25  C   UNL     1       9.437   5.128  24.047  0.00  0.00    +0.017 A 
ATOM     26  C   UNL     1      10.460   6.073  23.937  0.00  0.00    +0.001 A 
ATOM     27  C   UNL     1      11.735   5.676  23.539  0.00  0.00    +0.000 A 
ATOM     28  C   UNL     1      11.989   4.336  23.257  0.00  0.00    +0.001 A 
ATOM     29  C   UNL     1      10.968   3.388  23.367  0.00  0.00    +0.017 A 
ENDBRANCH  22  24
ENDBRANCH  21  22
ENDBRANCH  20  21
ENDBRANCH   7  20
TORSDOF 6
ENDMDL
