MODEL 1
REMARK VINA RESULT:      -7.4      0.000      0.000
REMARK  Name = 
REMARK  17 active torsions:
REMARK  status: ('A' for Active; 'I' for Inactive)
REMARK    1  A    between atoms: C_1  and  N_2
REMARK    2  A    between atoms: N_2  and  C_3
REMARK    3  A    between atoms: C_5  and  O_7
REMARK    4  A    between atoms: C_11  and  O_13
REMARK    5  A    between atoms: O_13  and  C_14
REMARK    6  A    between atoms: C_16  and  N_18
REMARK    7  A    between atoms: C_20  and  N_22
REMARK    8  A    between atoms: C_23  and  O_25
REMARK    9  A    between atoms: C_26  and  O_28
REMARK   10  A    between atoms: C_29  and  N_31
REMARK   11  A    between atoms: C_36  and  O_38
REMARK   12  A    between atoms: O_38  and  C_39
REMARK   13  A    between atoms: C_42  and  C_44
REMARK   14  A    between atoms: C_44  and  O_45
REMARK   15  A    between atoms: C_46  and  N_48
REMARK   16  A    between atoms: C_49  and  O_51
REMARK   17  A    between atoms: C_52  and  O_54
REMARK                            x       y       z     vdW  Elec       q    Type
REMARK                         _______ _______ _______ _____ _____    ______ ____
ROOT
ATOM      1  C   UNL     1       8.447   0.969  22.846  0.00  0.00    +0.141 C 
ATOM      2  C   UNL     1       8.998   1.268  24.308  0.00  0.00    +0.273 C 
ATOM      3  O   UNL     1       8.598   0.293  25.284  0.00  0.00    -0.344 OA
ATOM      4  C   UNL     1       8.906  -1.039  24.910  0.00  0.00    +0.154 C 
ATOM      5  C   UNL     1       7.985  -1.421  23.764  0.00  0.00    +0.180 C 
ATOM      6  O   UNL     1       8.119  -2.805  23.391  0.00  0.00    -0.341 OA
ATOM      7  C   UNL     1       7.849  -3.687  24.472  0.00  0.00    +0.268 C 
ATOM      8  C   UNL     1       8.833  -3.408  25.643  0.00  0.00    +0.110 C 
ATOM      9  C   UNL     1       8.702  -1.962  26.111  0.00  0.00    +0.058 C 
ATOM     10  C   UNL     1       8.363  -0.565  22.563  0.00  0.00    +0.168 C 
ENDROOT
BRANCH   1  12
ATOM     11  C   UNL     1      10.520   2.087  21.945  0.00  0.00    +0.101 C 
ATOM     12  N   UNL     1       9.264   1.423  21.667  0.00  0.00    -0.310 NA
ATOM     13  H   UNL     1       8.689   2.066  21.113  0.00  0.00    +0.122 HD
ENDBRANCH   1  12
BRANCH   8  14
ATOM     14  N   UNL     1       8.732  -4.368  26.748  0.00  0.00    -0.323 NA
ATOM     15  H   UNL     1       9.068  -3.956  27.612  0.00  0.00    +0.119 HD
ATOM     16  H   UNL     1       7.754  -4.633  26.878  0.00  0.00    +0.119 HD
ENDBRANCH   8  14
BRANCH  10  17
ATOM     17  O   UNL     1       9.652  -1.028  22.078  0.00  0.00    -0.387 OA
ATOM     18  H   UNL     1      10.304  -0.617  22.681  0.00  0.00    +0.210 HD
ENDBRANCH  10  17
BRANCH   7  19
ATOM     19  O   UNL     1       6.449  -3.651  24.811  0.00  0.00    -0.342 OA
BRANCH  19  20
ATOM     20  C   UNL     1       5.769  -4.888  24.435  0.00  0.00    +0.169 C 
ATOM     21  C   UNL     1       5.234  -5.681  25.659  0.00  0.00    +0.175 C 
ATOM     22  C   UNL     1       4.451  -6.926  25.241  0.00  0.00    +0.162 C 
ATOM     23  C   UNL     1       3.337  -6.619  24.230  0.00  0.00    +0.084 C 
ATOM     24  C   UNL     1       3.862  -5.843  23.025  0.00  0.00    +0.042 C 
ATOM     25  C   UNL     1       4.602  -4.562  23.452  0.00  0.00    +0.084 C 
BRANCH  25  26
ATOM     26  N   UNL     1       5.081  -3.899  22.226  0.00  0.00    -0.325 NA
ATOM     27  H   UNL     1       5.559  -3.030  22.468  0.00  0.00    +0.119 HD
ATOM     28  H   UNL     1       5.784  -4.498  21.787  0.00  0.00    +0.119 HD
ENDBRANCH  25  26
BRANCH  23  29
ATOM     29  N   UNL     1       2.719  -7.898  23.829  0.00  0.00    -0.325 NA
ATOM     30  H   UNL     1       1.697  -7.783  23.800  0.00  0.00    +0.119 HD
ATOM     31  H   UNL     1       2.994  -8.135  22.871  0.00  0.00    +0.119 HD
ENDBRANCH  23  29
BRANCH  22  32
ATOM     32  O   UNL     1       3.861  -7.536  26.396  0.00  0.00    -0.388 OA
ATOM     33  H   UNL     1       3.085  -8.025  26.062  0.00  0.00    +0.210 HD
ENDBRANCH  22  32
BRANCH  21  34
ATOM     34  O   UNL     1       6.296  -6.153  26.509  0.00  0.00    -0.387 OA
ATOM     35  H   UNL     1       6.671  -5.396  26.994  0.00  0.00    +0.210 HD
ENDBRANCH  21  34
ENDBRANCH  19  20
ENDBRANCH   7  19
BRANCH   2  36
ATOM     36  O   UNL     1       8.530   2.537  24.809  0.00  0.00    -0.318 OA
BRANCH  36  37
ATOM     37  C   UNL     1       7.470   3.053  23.979  0.00  0.00    +0.285 C 
ATOM     38  C   UNL     1       7.921   4.180  22.988  0.00  0.00    +0.200 C 
ATOM     39  C   UNL     1       6.776   5.219  22.797  0.00  0.00    +0.167 C 
ATOM     40  C   UNL     1       5.415   4.508  22.793  0.00  0.00    +0.114 C 
ATOM     41  C   UNL     1       5.191   3.834  24.162  0.00  0.00    +0.166 C 
ATOM     42  O   UNL     1       6.414   3.507  24.833  0.00  0.00    -0.341 OA
BRANCH  40  43
ATOM     43  N   UNL     1       4.341   5.455  22.421  0.00  0.00    -0.323 NA
ATOM     44  H   UNL     1       3.457   5.154  22.834  0.00  0.00    +0.119 HD
ATOM     45  H   UNL     1       4.527   6.369  22.836  0.00  0.00    +0.119 HD
ENDBRANCH  40  43
BRANCH  39  46
ATOM     46  O   UNL     1       6.930   5.943  21.576  0.00  0.00    -0.387 OA
ATOM     47  H   UNL     1       6.052   6.361  21.428  0.00  0.00    +0.210 HD
ENDBRANCH  39  46
BRANCH  38  48
ATOM     48  O   UNL     1       9.150   4.817  23.374  0.00  0.00    -0.384 OA
ATOM     49  H   UNL     1       9.639   4.220  23.963  0.00  0.00    +0.210 HD
ENDBRANCH  38  48
BRANCH  41  50
ATOM     50  C   UNL     1       4.263   2.618  24.037  0.00  0.00    +0.189 C 
BRANCH  50  51
ATOM     51  O   UNL     1       3.583   2.622  22.787  0.00  0.00    -0.392 OA
ATOM     52  H   UNL     1       3.999   3.313  22.240  0.00  0.00    +0.210 HD
ENDBRANCH  50  51
ENDBRANCH  41  50
ENDBRANCH  36  37
ENDBRANCH   2  36
TORSDOF 16
ENDMDL
MODEL 2
REMARK VINA RESULT:      -7.4      2.422      8.892
REMARK  Name = 
REMARK  17 active torsions:
REMARK  status: ('A' for Active; 'I' for Inactive)
REMARK    1  A    between atoms: C_1  and  N_2
REMARK    2  A    between atoms: N_2  and  C_3
REMARK    3  A    between atoms: C_5  and  O_7
REMARK    4  A    between atoms: C_11  and  O_13
REMARK    5  A    between atoms: O_13  and  C_14
REMARK    6  A    between atoms: C_16  and  N_18
REMARK    7  A    between atoms: C_20  and  N_22
REMARK    8  A    between atoms: C_23  and  O_25
REMARK    9  A    between atoms: C_26  and  O_28
REMARK   10  A    between atoms: C_29  and  N_31
REMARK   11  A    between atoms: C_36  and  O_38
REMARK   12  A    between atoms: O_38  and  C_39
REMARK   13  A    between atoms: C_42  and  C_44
REMARK   14  A    between atoms: C_44  and  O_45
REMARK   15  A    between atoms: C_46  and  N_48
REMARK   16  A    between atoms: C_49  and  O_51
REMARK   17  A    between atoms: C_52  and  O_54
REMARK                            x       y       z     vdW  Elec       q    Type
REMARK                         _______ _______ _______ _____ _____    ______ ____
ROOT
ATOM      1  C   UNL     1       6.904  -4.741  25.514  0.00  0.00    +0.141 C 
ATOM      2  C   UNL     1       6.884  -5.237  24.003  0.00  0.00    +0.273 C 
ATOM      3  O   UNL     1       7.026  -4.174  23.047  0.00  0.00    -0.344 OA
ATOM      4  C   UNL     1       8.160  -3.356  23.277  0.00  0.00    +0.154 C 
ATOM      5  C   UNL     1       7.897  -2.546  24.534  0.00  0.00    +0.180 C 
ATOM      6  O   UNL     1       8.932  -1.578  24.788  0.00  0.00    -0.341 OA
ATOM      7  C   UNL     1       9.096  -0.662  23.713  0.00  0.00    +0.268 C 
ATOM      8  C   UNL     1       9.466  -1.432  22.414  0.00  0.00    +0.110 C 
ATOM      9  C   UNL     1       8.379  -2.445  22.070  0.00  0.00    +0.058 C 
ATOM     10  C   UNL     1       7.852  -3.515  25.707  0.00  0.00    +0.168 C 
ENDROOT
BRANCH   1  12
ATOM     11  C   UNL     1       6.776  -5.680  27.851  0.00  0.00    +0.101 C 
ATOM     12  N   UNL     1       7.442  -5.673  26.566  0.00  0.00    -0.310 NA
ATOM     13  H   UNL     1       8.426  -5.435  26.726  0.00  0.00    +0.122 HD
ENDBRANCH   1  12
BRANCH   8  14
ATOM     14  N   UNL     1       9.804  -0.562  21.281  0.00  0.00    -0.323 NA
ATOM     15  H   UNL     1       9.198  -0.752  20.491  0.00  0.00    +0.119 HD
ATOM     16  H   UNL     1       9.676   0.415  21.555  0.00  0.00    +0.119 HD
ENDBRANCH   8  14
BRANCH  10  17
ATOM     17  O   UNL     1       9.205  -3.993  25.938  0.00  0.00    -0.387 OA
ATOM     18  H   UNL     1       9.152  -4.960  25.794  0.00  0.00    +0.210 HD
ENDBRANCH  10  17
BRANCH   7  19
ATOM     19  O   UNL     1       7.952   0.209  23.617  0.00  0.00    -0.342 OA
BRANCH  19  20
ATOM     20  C   UNL     1       8.299   1.594  23.925  0.00  0.00    +0.169 C 
ATOM     21  C   UNL     1       7.988   2.570  22.757  0.00  0.00    +0.175 C 
ATOM     22  C   UNL     1       8.278   4.025  23.131  0.00  0.00    +0.162 C 
ATOM     23  C   UNL     1       7.587   4.455  24.433  0.00  0.00    +0.084 C 
ATOM     24  C   UNL     1       7.894   3.499  25.582  0.00  0.00    +0.042 C 
ATOM     25  C   UNL     1       7.549   2.043  25.218  0.00  0.00    +0.084 C 
BRANCH  25  26
ATOM     26  N   UNL     1       7.897   1.203  26.378  0.00  0.00    -0.325 NA
ATOM     27  H   UNL     1       8.657   1.639  26.904  0.00  0.00    +0.119 HD
ATOM     28  H   UNL     1       7.093   1.174  27.010  0.00  0.00    +0.119 HD
ENDBRANCH  25  26
BRANCH  23  29
ATOM     29  N   UNL     1       8.013   5.834  24.741  0.00  0.00    -0.325 NA
ATOM     30  H   UNL     1       7.256   6.315  25.247  0.00  0.00    +0.119 HD
ATOM     31  H   UNL     1       8.806   5.819  25.389  0.00  0.00    +0.119 HD
ENDBRANCH  23  29
BRANCH  22  32
ATOM     32  O   UNL     1       7.838   4.890  22.076  0.00  0.00    -0.388 OA
ATOM     33  H   UNL     1       8.505   4.795  21.370  0.00  0.00    +0.210 HD
ENDBRANCH  22  32
BRANCH  21  34
ATOM     34  O   UNL     1       8.788   2.299  21.592  0.00  0.00    -0.387 OA
ATOM     35  H   UNL     1       9.316   1.495  21.753  0.00  0.00    +0.210 HD
ENDBRANCH  21  34
ENDBRANCH  19  20
ENDBRANCH   7  19
BRANCH   2  36
ATOM     36  O   UNL     1       5.647  -5.899  23.672  0.00  0.00    -0.318 OA
BRANCH  36  37
ATOM     37  C   UNL     1       4.623  -5.579  24.635  0.00  0.00    +0.285 C 
ATOM     38  C   UNL     1       3.726  -6.796  25.047  0.00  0.00    +0.200 C 
ATOM     39  C   UNL     1       2.268  -6.320  25.322  0.00  0.00    +0.167 C 
ATOM     40  C   UNL     1       2.281  -4.942  25.997  0.00  0.00    +0.114 C 
ATOM     41  C   UNL     1       2.919  -3.915  25.039  0.00  0.00    +0.166 C 
ATOM     42  O   UNL     1       3.833  -4.507  24.108  0.00  0.00    -0.341 OA
BRANCH  40  43
ATOM     43  N   UNL     1       0.918  -4.570  26.434  0.00  0.00    -0.323 NA
ATOM     44  H   UNL     1       0.484  -5.356  26.921  0.00  0.00    +0.119 HD
ATOM     45  H   UNL     1       0.969  -3.825  27.131  0.00  0.00    +0.119 HD
ENDBRANCH  40  43
BRANCH  39  46
ATOM     46  O   UNL     1       1.569  -7.244  26.156  0.00  0.00    -0.387 OA
ATOM     47  H   UNL     1       0.762  -6.758  26.435  0.00  0.00    +0.210 HD
ENDBRANCH  39  46
BRANCH  38  48
ATOM     48  O   UNL     1       3.759  -7.872  24.097  0.00  0.00    -0.384 OA
ATOM     49  H   UNL     1       4.514  -7.740  23.501  0.00  0.00    +0.210 HD
ENDBRANCH  38  48
BRANCH  41  50
ATOM     50  C   UNL     1       3.563  -2.757  25.816  0.00  0.00    +0.189 C 
BRANCH  50  51
ATOM     51  O   UNL     1       2.576  -1.843  26.280  0.00  0.00    -0.392 OA
ATOM     52  H   UNL     1       2.341  -2.115  27.186  0.00  0.00    +0.210 HD
ENDBRANCH  50  51
ENDBRANCH  41  50
ENDBRANCH  36  37
ENDBRANCH   2  36
TORSDOF 16
ENDMDL
MODEL 3
REMARK VINA RESULT:      -7.2      2.394      8.918
REMARK  Name = 
REMARK  17 active torsions:
REMARK  status: ('A' for Active; 'I' for Inactive)
REMARK    1  A    between atoms: C_1  and  N_2
REMARK    2  A    between atoms: N_2  and  C_3
REMARK    3  A    between atoms: C_5  and  O_7
REMARK    4  A    between atoms: C_11  and  O_13
REMARK    5  A    between atoms: O_13  and  C_14
REMARK    6  A    between atoms: C_16  and  N_18
REMARK    7  A    between atoms: C_20  and  N_22
REMARK    8  A    between atoms: C_23  and  O_25
REMARK    9  A    between atoms: C_26  and  O_28
REMARK   10  A    between atoms: C_29  and  N_31
REMARK   11  A    between atoms: C_36  and  O_38
REMARK   12  A    between atoms: O_38  and  C_39
REMARK   13  A    between atoms: C_42  and  C_44
REMARK   14  A    between atoms: C_44  and  O_45
REMARK   15  A    between atoms: C_46  and  N_48
REMARK   16  A    between atoms: C_49  and  O_51
REMARK   17  A    between atoms: C_52  and  O_54
REMARK                            x       y       z     vdW  Elec       q    Type
REMARK                         _______ _______ _______ _____ _____    ______ ____
ROOT
ATOM      1  C   UNL     1       7.908  -3.457  24.084  0.00  0.00    +0.141 C 
ATOM      2  C   UNL     1       7.862  -3.400  22.495  0.00  0.00    +0.273 C 
ATOM      3  O   UNL     1       7.826  -2.064  21.969  0.00  0.00    -0.344 OA
ATOM      4  C   UNL     1       8.867  -1.236  22.456  0.00  0.00    +0.154 C 
ATOM      5  C   UNL     1       8.581  -0.950  23.920  0.00  0.00    +0.180 C 
ATOM      6  O   UNL     1       9.508  -0.004  24.484  0.00  0.00    -0.341 OA
ATOM      7  C   UNL     1       9.504   1.239  23.795  0.00  0.00    +0.268 C 
ATOM      8  C   UNL     1       9.889   1.019  22.305  0.00  0.00    +0.110 C 
ATOM      9  C   UNL     1       8.910   0.055  21.641  0.00  0.00    +0.058 C 
ATOM     10  C   UNL     1       8.715  -2.261  24.682  0.00  0.00    +0.168 C 
ENDROOT
BRANCH   1  12
ATOM     11  C   UNL     1       7.990  -5.188  25.916  0.00  0.00    +0.101 C 
ATOM     12  N   UNL     1       8.608  -4.617  24.738  0.00  0.00    -0.310 NA
ATOM     13  H   UNL     1       9.551  -4.311  24.999  0.00  0.00    +0.122 HD
ENDBRANCH   1  12
BRANCH   8  14
ATOM     14  N   UNL     1      10.059   2.262  21.543  0.00  0.00    -0.323 NA
ATOM     15  H   UNL     1      10.908   2.230  20.991  0.00  0.00    +0.119 HD
ATOM     16  H   UNL     1       9.267   2.380  20.908  0.00  0.00    +0.119 HD
ENDBRANCH   8  14
BRANCH  10  17
ATOM     17  O   UNL     1      10.125  -2.611  24.716  0.00  0.00    -0.387 OA
ATOM     18  H   UNL     1      10.466  -2.344  23.837  0.00  0.00    +0.210 HD
ENDBRANCH  10  17
BRANCH   7  19
ATOM     19  O   UNL     1       8.262   1.934  24.022  0.00  0.00    -0.342 OA
BRANCH  19  20
ATOM     20  C   UNL     1       8.439   3.082  24.907  0.00  0.00    +0.169 C 
ATOM     21  C   UNL     1       8.432   4.438  24.150  0.00  0.00    +0.175 C 
ATOM     22  C   UNL     1       8.532   5.630  25.103  0.00  0.00    +0.162 C 
ATOM     23  C   UNL     1       7.475   5.594  26.216  0.00  0.00    +0.084 C 
ATOM     24  C   UNL     1       7.484   4.263  26.964  0.00  0.00    +0.042 C 
ATOM     25  C   UNL     1       7.328   3.070  26.003  0.00  0.00    +0.084 C 
BRANCH  25  26
ATOM     26  N   UNL     1       7.366   1.841  26.816  0.00  0.00    -0.325 NA
ATOM     27  H   UNL     1       7.768   2.045  27.732  0.00  0.00    +0.119 HD
ATOM     28  H   UNL     1       6.406   1.536  26.987  0.00  0.00    +0.119 HD
ENDBRANCH  25  26
BRANCH  23  29
ATOM     29  N   UNL     1       7.728   6.731  27.122  0.00  0.00    -0.325 NA
ATOM     30  H   UNL     1       8.127   6.378  28.003  0.00  0.00    +0.119 HD
ATOM     31  H   UNL     1       8.445   7.344  26.724  0.00  0.00    +0.119 HD
ENDBRANCH  23  29
BRANCH  22  32
ATOM     32  O   UNL     1       8.374   6.851  24.367  0.00  0.00    -0.388 OA
ATOM     33  H   UNL     1       7.458   6.832  24.030  0.00  0.00    +0.210 HD
ENDBRANCH  22  32
BRANCH  21  34
ATOM     34  O   UNL     1       9.546   4.565  23.247  0.00  0.00    -0.387 OA
ATOM     35  H   UNL     1       9.684   5.509  23.048  0.00  0.00    +0.210 HD
ENDBRANCH  21  34
ENDBRANCH  19  20
ENDBRANCH   7  19
BRANCH   2  36
ATOM     36  O   UNL     1       6.695  -4.061  21.967  0.00  0.00    -0.318 OA
BRANCH  36  37
ATOM     37  C   UNL     1       5.841  -4.518  23.035  0.00  0.00    +0.285 C 
ATOM     38  C   UNL     1       5.396  -6.015  22.906  0.00  0.00    +0.200 C 
ATOM     39  C   UNL     1       3.952  -6.197  23.462  0.00  0.00    +0.167 C 
ATOM     40  C   UNL     1       3.741  -5.298  24.688  0.00  0.00    +0.114 C 
ATOM     41  C   UNL     1       3.881  -3.822  24.264  0.00  0.00    +0.166 C 
ATOM     42  O   UNL     1       4.708  -3.645  23.108  0.00  0.00    -0.341 OA
BRANCH  40  43
ATOM     43  N   UNL     1       2.447  -5.604  25.335  0.00  0.00    -0.323 NA
ATOM     44  H   UNL     1       1.680  -5.311  24.729  0.00  0.00    +0.119 HD
ATOM     45  H   UNL     1       2.337  -6.615  25.427  0.00  0.00    +0.119 HD
ENDBRANCH  40  43
BRANCH  39  46
ATOM     46  O   UNL     1       3.703  -7.554  23.828  0.00  0.00    -0.387 OA
ATOM     47  H   UNL     1       3.092  -7.492  24.595  0.00  0.00    +0.210 HD
ENDBRANCH  39  46
BRANCH  38  48
ATOM     48  O   UNL     1       5.514  -6.529  21.570  0.00  0.00    -0.384 OA
ATOM     49  H   UNL     1       6.190  -7.225  21.562  0.00  0.00    +0.210 HD
ENDBRANCH  38  48
BRANCH  41  50
ATOM     50  C   UNL     1       4.345  -2.948  25.439  0.00  0.00    +0.189 C 
BRANCH  50  51
ATOM     51  O   UNL     1       4.879  -1.713  24.975  0.00  0.00    -0.392 OA
ATOM     52  H   UNL     1       4.973  -1.135  25.754  0.00  0.00    +0.210 HD
ENDBRANCH  50  51
ENDBRANCH  41  50
ENDBRANCH  36  37
ENDBRANCH   2  36
TORSDOF 16
ENDMDL
MODEL 4
REMARK VINA RESULT:      -7.2      1.584      1.815
REMARK  Name = 
REMARK  17 active torsions:
REMARK  status: ('A' for Active; 'I' for Inactive)
REMARK    1  A    between atoms: C_1  and  N_2
REMARK    2  A    between atoms: N_2  and  C_3
REMARK    3  A    between atoms: C_5  and  O_7
REMARK    4  A    between atoms: C_11  and  O_13
REMARK    5  A    between atoms: O_13  and  C_14
REMARK    6  A    between atoms: C_16  and  N_18
REMARK    7  A    between atoms: C_20  and  N_22
REMARK    8  A    between atoms: C_23  and  O_25
REMARK    9  A    between atoms: C_26  and  O_28
REMARK   10  A    between atoms: C_29  and  N_31
REMARK   11  A    between atoms: C_36  and  O_38
REMARK   12  A    between atoms: O_38  and  C_39
REMARK   13  A    between atoms: C_42  and  C_44
REMARK   14  A    between atoms: C_44  and  O_45
REMARK   15  A    between atoms: C_46  and  N_48
REMARK   16  A    between atoms: C_49  and  O_51
REMARK   17  A    between atoms: C_52  and  O_54
REMARK                            x       y       z     vdW  Elec       q    Type
REMARK                         _______ _______ _______ _____ _____    ______ ____
ROOT
ATOM      1  C   UNL     1       8.897  -0.088  23.191  0.00  0.00    +0.141 C 
ATOM      2  C   UNL     1       9.460   0.039  24.673  0.00  0.00    +0.273 C 
ATOM      3  O   UNL     1       8.911  -0.929  25.581  0.00  0.00    -0.344 OA
ATOM      4  C   UNL     1       9.035  -2.265  25.126  0.00  0.00    +0.154 C 
ATOM      5  C   UNL     1       8.089  -2.441  23.951  0.00  0.00    +0.180 C 
ATOM      6  O   UNL     1       8.035  -3.805  23.492  0.00  0.00    -0.341 OA
ATOM      7  C   UNL     1       7.626  -4.706  24.512  0.00  0.00    +0.268 C 
ATOM      8  C   UNL     1       8.619  -4.640  25.706  0.00  0.00    +0.110 C 
ATOM      9  C   UNL     1       8.684  -3.222  26.264  0.00  0.00    +0.058 C 
ATOM     10  C   UNL     1       8.604  -1.575  22.809  0.00  0.00    +0.168 C 
ENDROOT
BRANCH   1  12
ATOM     11  C   UNL     1      10.093   1.727  21.913  0.00  0.00    +0.101 C 
ATOM     12  N   UNL     1       9.789   0.318  22.049  0.00  0.00    -0.310 NA
ATOM     13  H   UNL     1       9.347   0.009  21.177  0.00  0.00    +0.122 HD
ENDBRANCH   1  12
BRANCH   8  14
ATOM     14  N   UNL     1       8.367  -5.643  26.748  0.00  0.00    -0.323 NA
ATOM     15  H   UNL     1       8.740  -5.336  27.639  0.00  0.00    +0.119 HD
ATOM     16  H   UNL     1       7.358  -5.777  26.851  0.00  0.00    +0.119 HD
ENDBRANCH   8  14
BRANCH  10  17
ATOM     17  O   UNL     1       9.822  -2.184  22.306  0.00  0.00    -0.387 OA
ATOM     18  H   UNL     1       9.671  -2.278  21.343  0.00  0.00    +0.210 HD
ENDBRANCH  10  17
BRANCH   7  19
ATOM     19  O   UNL     1       6.239  -4.494  24.842  0.00  0.00    -0.342 OA
BRANCH  19  20
ATOM     20  C   UNL     1       5.405  -5.618  24.424  0.00  0.00    +0.169 C 
ATOM     21  C   UNL     1       4.622  -6.261  25.602  0.00  0.00    +0.175 C 
ATOM     22  C   UNL     1       3.691  -7.379  25.131  0.00  0.00    +0.162 C 
ATOM     23  C   UNL     1       2.754  -6.937  23.997  0.00  0.00    +0.084 C 
ATOM     24  C   UNL     1       3.522  -6.308  22.838  0.00  0.00    +0.042 C 
ATOM     25  C   UNL     1       4.417  -5.147  23.312  0.00  0.00    +0.084 C 
BRANCH  25  26
ATOM     26  N   UNL     1       5.124  -4.624  22.130  0.00  0.00    -0.325 NA
ATOM     27  H   UNL     1       4.507  -4.656  21.316  0.00  0.00    +0.119 HD
ATOM     28  H   UNL     1       5.334  -3.636  22.289  0.00  0.00    +0.119 HD
ENDBRANCH  25  26
BRANCH  23  29
ATOM     29  N   UNL     1       1.976  -8.113  23.562  0.00  0.00    -0.325 NA
ATOM     30  H   UNL     1       2.153  -8.893  24.211  0.00  0.00    +0.119 HD
ATOM     31  H   UNL     1       0.974  -7.918  23.638  0.00  0.00    +0.119 HD
ENDBRANCH  23  29
BRANCH  22  32
ATOM     32  O   UNL     1       2.890  -7.835  26.229  0.00  0.00    -0.388 OA
ATOM     33  H   UNL     1       3.493  -7.853  26.997  0.00  0.00    +0.210 HD
ENDBRANCH  22  32
BRANCH  21  34
ATOM     34  O   UNL     1       5.496  -6.864  26.574  0.00  0.00    -0.387 OA
ATOM     35  H   UNL     1       6.287  -7.205  26.117  0.00  0.00    +0.210 HD
ENDBRANCH  21  34
ENDBRANCH  19  20
ENDBRANCH   7  19
BRANCH   2  36
ATOM     36  O   UNL     1       9.166   1.328  25.249  0.00  0.00    -0.318 OA
BRANCH  36  37
ATOM     37  C   UNL     1       7.777   1.666  25.062  0.00  0.00    +0.285 C 
ATOM     38  C   UNL     1       7.541   3.050  24.366  0.00  0.00    +0.200 C 
ATOM     39  C   UNL     1       6.255   3.723  24.930  0.00  0.00    +0.167 C 
ATOM     40  C   UNL     1       5.182   2.662  25.209  0.00  0.00    +0.114 C 
ATOM     41  C   UNL     1       5.698   1.692  26.292  0.00  0.00    +0.166 C 
ATOM     42  O   UNL     1       7.127   1.610  26.337  0.00  0.00    -0.341 OA
BRANCH  40  43
ATOM     43  N   UNL     1       3.898   3.306  25.560  0.00  0.00    -0.323 NA
ATOM     44  H   UNL     1       3.883   4.263  25.205  0.00  0.00    +0.119 HD
ATOM     45  H   UNL     1       3.131   2.835  25.078  0.00  0.00    +0.119 HD
ENDBRANCH  40  43
BRANCH  39  46
ATOM     46  O   UNL     1       5.731   4.690  24.018  0.00  0.00    -0.387 OA
ATOM     47  H   UNL     1       6.053   5.551  24.366  0.00  0.00    +0.210 HD
ENDBRANCH  39  46
BRANCH  38  48
ATOM     48  O   UNL     1       8.675   3.928  24.450  0.00  0.00    -0.384 OA
ATOM     49  H   UNL     1       8.614   4.584  23.737  0.00  0.00    +0.210 HD
ENDBRANCH  38  48
BRANCH  41  50
ATOM     50  C   UNL     1       5.049   0.308  26.153  0.00  0.00    +0.189 C 
BRANCH  50  51
ATOM     51  O   UNL     1       3.649   0.373  26.406  0.00  0.00    -0.392 OA
ATOM     52  H   UNL     1       3.217  -0.212  25.757  0.00  0.00    +0.210 HD
ENDBRANCH  50  51
ENDBRANCH  41  50
ENDBRANCH  36  37
ENDBRANCH   2  36
TORSDOF 16
ENDMDL
MODEL 5
REMARK VINA RESULT:      -7.1      2.009      8.608
REMARK  Name = 
REMARK  17 active torsions:
REMARK  status: ('A' for Active; 'I' for Inactive)
REMARK    1  A    between atoms: C_1  and  N_2
REMARK    2  A    between atoms: N_2  and  C_3
REMARK    3  A    between atoms: C_5  and  O_7
REMARK    4  A    between atoms: C_11  and  O_13
REMARK    5  A    between atoms: O_13  and  C_14
REMARK    6  A    between atoms: C_16  and  N_18
REMARK    7  A    between atoms: C_20  and  N_22
REMARK    8  A    between atoms: C_23  and  O_25
REMARK    9  A    between atoms: C_26  and  O_28
REMARK   10  A    between atoms: C_29  and  N_31
REMARK   11  A    between atoms: C_36  and  O_38
REMARK   12  A    between atoms: O_38  and  C_39
REMARK   13  A    between atoms: C_42  and  C_44
REMARK   14  A    between atoms: C_44  and  O_45
REMARK   15  A    between atoms: C_46  and  N_48
REMARK   16  A    between atoms: C_49  and  O_51
REMARK   17  A    between atoms: C_52  and  O_54
REMARK                            x       y       z     vdW  Elec       q    Type
REMARK                         _______ _______ _______ _____ _____    ______ ____
ROOT
ATOM      1  C   UNL     1       8.072  -3.656  23.808  0.00  0.00    +0.141 C 
ATOM      2  C   UNL     1       7.737  -3.406  22.273  0.00  0.00    +0.273 C 
ATOM      3  O   UNL     1       7.690  -2.016  21.915  0.00  0.00    -0.344 OA
ATOM      4  C   UNL     1       8.854  -1.298  22.283  0.00  0.00    +0.154 C 
ATOM      5  C   UNL     1       8.863  -1.179  23.797  0.00  0.00    +0.180 C 
ATOM      6  O   UNL     1       9.937  -0.348  24.275  0.00  0.00    -0.341 OA
ATOM      7  C   UNL     1       9.886   0.968  23.740  0.00  0.00    +0.268 C 
ATOM      8  C   UNL     1       9.974   0.913  22.189  0.00  0.00    +0.110 C 
ATOM      9  C   UNL     1       8.829   0.080  21.622  0.00  0.00    +0.058 C 
ATOM     10  C   UNL     1       9.051  -2.577  24.370  0.00  0.00    +0.168 C 
ENDROOT
BRANCH   1  12
ATOM     11  C   UNL     1       8.590  -5.437  25.517  0.00  0.00    +0.101 C 
ATOM     12  N   UNL     1       8.805  -4.916  24.184  0.00  0.00    -0.310 NA
ATOM     13  H   UNL     1       9.809  -4.741  24.077  0.00  0.00    +0.122 HD
ENDBRANCH   1  12
BRANCH   8  14
ATOM     14  N   UNL     1      10.080   2.231  21.551  0.00  0.00    -0.323 NA
ATOM     15  H   UNL     1      11.051   2.490  21.423  0.00  0.00    +0.119 HD
ATOM     16  H   UNL     1       9.632   2.199  20.632  0.00  0.00    +0.119 HD
ENDBRANCH   8  14
BRANCH  10  17
ATOM     17  O   UNL     1      10.417  -2.987  24.094  0.00  0.00    -0.387 OA
ATOM     18  H   UNL     1      10.581  -3.728  24.714  0.00  0.00    +0.210 HD
ENDBRANCH  10  17
BRANCH   7  19
ATOM     19  O   UNL     1       8.755   1.683  24.276  0.00  0.00    -0.342 OA
BRANCH  19  20
ATOM     20  C   UNL     1       8.288   2.721  23.360  0.00  0.00    +0.169 C 
ATOM     21  C   UNL     1       6.749   2.695  23.149  0.00  0.00    +0.175 C 
ATOM     22  C   UNL     1       6.271   3.841  22.257  0.00  0.00    +0.162 C 
ATOM     23  C   UNL     1       6.757   5.216  22.739  0.00  0.00    +0.084 C 
ATOM     24  C   UNL     1       8.270   5.244  22.942  0.00  0.00    +0.042 C 
ATOM     25  C   UNL     1       8.738   4.120  23.886  0.00  0.00    +0.084 C 
BRANCH  25  26
ATOM     26  N   UNL     1      10.203   4.222  24.001  0.00  0.00    -0.325 NA
ATOM     27  H   UNL     1      10.543   4.986  23.415  0.00  0.00    +0.119 HD
ATOM     28  H   UNL     1      10.436   4.476  24.964  0.00  0.00    +0.119 HD
ENDBRANCH  25  26
BRANCH  23  29
ATOM     29  N   UNL     1       6.320   6.225  21.756  0.00  0.00    -0.325 NA
ATOM     30  H   UNL     1       5.816   5.755  20.992  0.00  0.00    +0.119 HD
ATOM     31  H   UNL     1       5.637   6.858  22.183  0.00  0.00    +0.119 HD
ENDBRANCH  23  29
BRANCH  22  32
ATOM     32  O   UNL     1       4.838   3.856  22.217  0.00  0.00    -0.388 OA
ATOM     33  H   UNL     1       4.590   4.799  22.196  0.00  0.00    +0.210 HD
ENDBRANCH  22  32
BRANCH  21  34
ATOM     34  O   UNL     1       6.307   1.487  22.505  0.00  0.00    -0.387 OA
ATOM     35  H   UNL     1       6.399   1.593  21.541  0.00  0.00    +0.210 HD
ENDBRANCH  21  34
ENDBRANCH  19  20
ENDBRANCH   7  19
BRANCH   2  36
ATOM     36  O   UNL     1       6.452  -3.948  21.910  0.00  0.00    -0.318 OA
BRANCH  36  37
ATOM     37  C   UNL     1       5.770  -4.468  23.069  0.00  0.00    +0.285 C 
ATOM     38  C   UNL     1       5.428  -5.995  22.983  0.00  0.00    +0.200 C 
ATOM     39  C   UNL     1       4.079  -6.286  23.706  0.00  0.00    +0.167 C 
ATOM     40  C   UNL     1       3.950  -5.404  24.956  0.00  0.00    +0.114 C 
ATOM     41  C   UNL     1       3.924  -3.922  24.529  0.00  0.00    +0.166 C 
ATOM     42  O   UNL     1       4.590  -3.684  23.283  0.00  0.00    -0.341 OA
BRANCH  40  43
ATOM     43  N   UNL     1       2.770  -5.807  25.751  0.00  0.00    -0.323 NA
ATOM     44  H   UNL     1       3.031  -6.543  26.408  0.00  0.00    +0.119 HD
ATOM     45  H   UNL     1       2.465  -5.028  26.337  0.00  0.00    +0.119 HD
ENDBRANCH  40  43
BRANCH  39  46
ATOM     46  O   UNL     1       3.981  -7.658  24.089  0.00  0.00    -0.387 OA
ATOM     47  H   UNL     1       3.247  -7.677  24.742  0.00  0.00    +0.210 HD
ENDBRANCH  39  46
BRANCH  38  48
ATOM     48  O   UNL     1       5.424  -6.500  21.638  0.00  0.00    -0.384 OA
ATOM     49  H   UNL     1       4.509  -6.706  21.385  0.00  0.00    +0.210 HD
ENDBRANCH  38  48
BRANCH  41  50
ATOM     50  C   UNL     1       4.457  -3.013  25.646  0.00  0.00    +0.189 C 
BRANCH  50  51
ATOM     51  O   UNL     1       4.698  -1.696  25.160  0.00  0.00    -0.392 OA
ATOM     52  H   UNL     1       5.340  -1.776  24.432  0.00  0.00    +0.210 HD
ENDBRANCH  50  51
ENDBRANCH  41  50
ENDBRANCH  36  37
ENDBRANCH   2  36
TORSDOF 16
ENDMDL
MODEL 6
REMARK VINA RESULT:      -7.0      2.653      9.460
REMARK  Name = 
REMARK  17 active torsions:
REMARK  status: ('A' for Active; 'I' for Inactive)
REMARK    1  A    between atoms: C_1  and  N_2
REMARK    2  A    between atoms: N_2  and  C_3
REMARK    3  A    between atoms: C_5  and  O_7
REMARK    4  A    between atoms: C_11  and  O_13
REMARK    5  A    between atoms: O_13  and  C_14
REMARK    6  A    between atoms: C_16  and  N_18
REMARK    7  A    between atoms: C_20  and  N_22
REMARK    8  A    between atoms: C_23  and  O_25
REMARK    9  A    between atoms: C_26  and  O_28
REMARK   10  A    between atoms: C_29  and  N_31
REMARK   11  A    between atoms: C_36  and  O_38
REMARK   12  A    between atoms: O_38  and  C_39
REMARK   13  A    between atoms: C_42  and  C_44
REMARK   14  A    between atoms: C_44  and  O_45
REMARK   15  A    between atoms: C_46  and  N_48
REMARK   16  A    between atoms: C_49  and  O_51
REMARK   17  A    between atoms: C_52  and  O_54
REMARK                            x       y       z     vdW  Elec       q    Type
REMARK                         _______ _______ _______ _____ _____    ______ ____
ROOT
ATOM      1  C   UNL     1       6.945  -3.954  23.191  0.00  0.00    +0.141 C 
ATOM      2  C   UNL     1       6.165  -4.089  24.571  0.00  0.00    +0.273 C 
ATOM      3  O   UNL     1       6.251  -2.917  25.396  0.00  0.00    -0.344 OA
ATOM      4  C   UNL     1       5.862  -1.729  24.731  0.00  0.00    +0.154 C 
ATOM      5  C   UNL     1       6.931  -1.404  23.703  0.00  0.00    +0.180 C 
ATOM      6  O   UNL     1       6.704  -0.137  23.058  0.00  0.00    -0.341 OA
ATOM      7  C   UNL     1       6.654   0.942  23.981  0.00  0.00    +0.268 C 
ATOM      8  C   UNL     1       5.506   0.711  25.004  0.00  0.00    +0.110 C 
ATOM      9  C   UNL     1       5.720  -0.601  25.753  0.00  0.00    +0.058 C 
ATOM     10  C   UNL     1       6.895  -2.494  22.640  0.00  0.00    +0.168 C 
ENDROOT
BRANCH   1  12
ATOM     11  C   UNL     1       6.934  -6.057  21.799  0.00  0.00    +0.101 C 
ATOM     12  N   UNL     1       6.428  -4.716  22.000  0.00  0.00    -0.310 NA
ATOM     13  H   UNL     1       6.646  -4.172  21.159  0.00  0.00    +0.122 HD
ENDBRANCH   1  12
BRANCH   8  14
ATOM     14  N   UNL     1       5.278   1.844  25.908  0.00  0.00    -0.323 NA
ATOM     15  H   UNL     1       4.974   2.661  25.390  0.00  0.00    +0.119 HD
ATOM     16  H   UNL     1       4.546   1.600  26.579  0.00  0.00    +0.119 HD
ENDBRANCH   8  14
BRANCH  10  17
ATOM     17  O   UNL     1       5.676  -2.319  21.869  0.00  0.00    -0.387 OA
ATOM     18  H   UNL     1       5.242  -3.197  21.893  0.00  0.00    +0.210 HD
ENDBRANCH  10  17
BRANCH   7  19
ATOM     19  O   UNL     1       7.958   1.177  24.549  0.00  0.00    -0.342 OA
BRANCH  19  20
ATOM     20  C   UNL     1       8.624   2.315  23.921  0.00  0.00    +0.169 C 
ATOM     21  C   UNL     1       8.609   3.590  24.809  0.00  0.00    +0.175 C 
ATOM     22  C   UNL     1       9.386   4.744  24.173  0.00  0.00    +0.162 C 
ATOM     23  C   UNL     1      10.812   4.350  23.766  0.00  0.00    +0.084 C 
ATOM     24  C   UNL     1      10.828   3.100  22.890  0.00  0.00    +0.042 C 
ATOM     25  C   UNL     1      10.092   1.926  23.561  0.00  0.00    +0.084 C 
BRANCH  25  26
ATOM     26  N   UNL     1      10.148   0.781  22.634  0.00  0.00    -0.325 NA
ATOM     27  H   UNL     1      11.113   0.463  22.538  0.00  0.00    +0.119 HD
ATOM     28  H   UNL     1       9.630   0.003  23.048  0.00  0.00    +0.119 HD
ENDBRANCH  25  26
BRANCH  23  29
ATOM     29  N   UNL     1      11.427   5.504  23.081  0.00  0.00    -0.325 NA
ATOM     30  H   UNL     1      10.807   6.320  23.175  0.00  0.00    +0.119 HD
ATOM     31  H   UNL     1      12.298   5.767  23.551  0.00  0.00    +0.119 HD
ENDBRANCH  23  29
BRANCH  22  32
ATOM     32  O   UNL     1       9.463   5.840  25.095  0.00  0.00    -0.388 OA
ATOM     33  H   UNL     1       8.877   5.595  25.836  0.00  0.00    +0.210 HD
ENDBRANCH  22  32
BRANCH  21  34
ATOM     34  O   UNL     1       7.276   4.088  25.027  0.00  0.00    -0.387 OA
ATOM     35  H   UNL     1       7.256   5.038  24.810  0.00  0.00    +0.210 HD
ENDBRANCH  21  34
ENDBRANCH  19  20
ENDBRANCH   7  19
BRANCH   2  36
ATOM     36  O   UNL     1       6.679  -5.172  25.373  0.00  0.00    -0.318 OA
BRANCH  36  37
ATOM     37  C   UNL     1       5.768  -5.490  26.444  0.00  0.00    +0.285 C 
ATOM     38  C   UNL     1       6.461  -5.716  27.831  0.00  0.00    +0.200 C 
ATOM     39  C   UNL     1       5.700  -6.807  28.642  0.00  0.00    +0.167 C 
ATOM     40  C   UNL     1       4.189  -6.685  28.400  0.00  0.00    +0.114 C 
ATOM     41  C   UNL     1       3.892  -6.940  26.908  0.00  0.00    +0.166 C 
ATOM     42  O   UNL     1       5.002  -6.636  26.055  0.00  0.00    -0.341 OA
BRANCH  40  43
ATOM     43  N   UNL     1       3.447  -7.586  29.309  0.00  0.00    -0.323 NA
ATOM     44  H   UNL     1       4.065  -8.330  29.638  0.00  0.00    +0.119 HD
ATOM     45  H   UNL     1       3.175  -7.078  30.153  0.00  0.00    +0.119 HD
ENDBRANCH  40  43
BRANCH  39  46
ATOM     46  O   UNL     1       5.961  -6.692  30.041  0.00  0.00    -0.387 OA
ATOM     47  H   UNL     1       6.721  -6.071  30.096  0.00  0.00    +0.210 HD
ENDBRANCH  39  46
BRANCH  38  48
ATOM     48  O   UNL     1       7.861  -6.023  27.723  0.00  0.00    -0.384 OA
ATOM     49  H   UNL     1       8.356  -5.192  27.633  0.00  0.00    +0.210 HD
ENDBRANCH  38  48
BRANCH  41  50
ATOM     50  C   UNL     1       2.613  -6.215  26.465  0.00  0.00    +0.189 C 
BRANCH  50  51
ATOM     51  O   UNL     1       2.079  -5.429  27.525  0.00  0.00    -0.392 OA
ATOM     52  H   UNL     1       2.168  -5.956  28.340  0.00  0.00    +0.210 HD
ENDBRANCH  50  51
ENDBRANCH  41  50
ENDBRANCH  36  37
ENDBRANCH   2  36
TORSDOF 16
ENDMDL
MODEL 7
REMARK VINA RESULT:      -7.0      2.237      8.822
REMARK  Name = 
REMARK  17 active torsions:
REMARK  status: ('A' for Active; 'I' for Inactive)
REMARK    1  A    between atoms: C_1  and  N_2
REMARK    2  A    between atoms: N_2  and  C_3
REMARK    3  A    between atoms: C_5  and  O_7
REMARK    4  A    between atoms: C_11  and  O_13
REMARK    5  A    between atoms: O_13  and  C_14
REMARK    6  A    between atoms: C_16  and  N_18
REMARK    7  A    between atoms: C_20  and  N_22
REMARK    8  A    between atoms: C_23  and  O_25
REMARK    9  A    between atoms: C_26  and  O_28
REMARK   10  A    between atoms: C_29  and  N_31
REMARK   11  A    between atoms: C_36  and  O_38
REMARK   12  A    between atoms: O_38  and  C_39
REMARK   13  A    between atoms: C_42  and  C_44
REMARK   14  A    between atoms: C_44  and  O_45
REMARK   15  A    between atoms: C_46  and  N_48
REMARK   16  A    between atoms: C_49  and  O_51
REMARK   17  A    between atoms: C_52  and  O_54
REMARK                            x       y       z     vdW  Elec       q    Type
REMARK                         _______ _______ _______ _____ _____    ______ ____
ROOT
ATOM      1  C   UNL     1       5.359  -2.679  26.933  0.00  0.00    +0.141 C 
ATOM      2  C   UNL     1       6.846  -3.243  26.915  0.00  0.00    +0.273 C 
ATOM      3  O   UNL     1       7.713  -2.550  26.004  0.00  0.00    -0.344 OA
ATOM      4  C   UNL     1       7.726  -1.146  26.194  0.00  0.00    +0.154 C 
ATOM      5  C   UNL     1       6.382  -0.607  25.739  0.00  0.00    +0.180 C 
ATOM      6  O   UNL     1       6.332   0.832  25.762  0.00  0.00    -0.341 OA
ATOM      7  C   UNL     1       7.332   1.424  24.944  0.00  0.00    +0.268 C 
ATOM      8  C   UNL     1       8.742   0.983  25.427  0.00  0.00    +0.110 C 
ATOM      9  C   UNL     1       8.868  -0.536  25.381  0.00  0.00    +0.058 C 
ATOM     10  C   UNL     1       5.323  -1.135  26.698  0.00  0.00    +0.168 C 
ENDROOT
BRANCH   1  12
ATOM     11  C   UNL     1       4.189  -4.107  28.651  0.00  0.00    +0.101 C 
ATOM     12  N   UNL     1       4.570  -2.782  28.210  0.00  0.00    -0.310 NA
ATOM     13  H   UNL     1       3.711  -2.233  28.096  0.00  0.00    +0.122 HD
ENDBRANCH   1  12
BRANCH   8  14
ATOM     14  N   UNL     1       9.847   1.660  24.738  0.00  0.00    -0.323 NA
ATOM     15  H   UNL     1      10.738   1.387  25.136  0.00  0.00    +0.119 HD
ATOM     16  H   UNL     1       9.842   1.397  23.751  0.00  0.00    +0.119 HD
ENDBRANCH   8  14
BRANCH  10  17
ATOM     17  O   UNL     1       5.502  -0.458  27.971  0.00  0.00    -0.387 OA
ATOM     18  H   UNL     1       4.625  -0.068  28.167  0.00  0.00    +0.210 HD
ENDBRANCH  10  17
BRANCH   7  19
ATOM     19  O   UNL     1       7.047   1.183  23.551  0.00  0.00    -0.342 OA
BRANCH  19  20
ATOM     20  C   UNL     1       6.545   2.383  22.887  0.00  0.00    +0.169 C 
ATOM     21  C   UNL     1       5.382   3.062  23.661  0.00  0.00    +0.175 C 
ATOM     22  C   UNL     1       4.929   4.362  22.995  0.00  0.00    +0.162 C 
ATOM     23  C   UNL     1       6.088   5.336  22.737  0.00  0.00    +0.084 C 
ATOM     24  C   UNL     1       7.230   4.670  21.972  0.00  0.00    +0.042 C 
ATOM     25  C   UNL     1       7.717   3.392  22.678  0.00  0.00    +0.084 C 
BRANCH  25  26
ATOM     26  N   UNL     1       8.799   2.819  21.857  0.00  0.00    -0.325 NA
ATOM     27  H   UNL     1       9.617   3.431  21.889  0.00  0.00    +0.119 HD
ATOM     28  H   UNL     1       9.090   1.933  22.276  0.00  0.00    +0.119 HD
ENDBRANCH  25  26
BRANCH  23  29
ATOM     29  N   UNL     1       5.551   6.502  22.010  0.00  0.00    -0.325 NA
ATOM     30  H   UNL     1       4.571   6.651  22.288  0.00  0.00    +0.119 HD
ATOM     31  H   UNL     1       6.047   7.352  22.295  0.00  0.00    +0.119 HD
ENDBRANCH  23  29
BRANCH  22  32
ATOM     32  O   UNL     1       3.961   5.019  23.825  0.00  0.00    -0.388 OA
ATOM     33  H   UNL     1       3.605   5.745  23.280  0.00  0.00    +0.210 HD
ENDBRANCH  22  32
BRANCH  21  34
ATOM     34  O   UNL     1       4.211   2.229  23.729  0.00  0.00    -0.387 OA
ATOM     35  H   UNL     1       3.798   2.194  22.847  0.00  0.00    +0.210 HD
ENDBRANCH  21  34
ENDBRANCH  19  20
ENDBRANCH   7  19
BRANCH   2  36
ATOM     36  O   UNL     1       6.890  -4.629  26.521  0.00  0.00    -0.318 OA
BRANCH  36  37
ATOM     37  C   UNL     1       6.223  -4.821  25.257  0.00  0.00    +0.285 C 
ATOM     38  C   UNL     1       5.155  -5.968  25.263  0.00  0.00    +0.200 C 
ATOM     39  C   UNL     1       5.123  -6.679  23.877  0.00  0.00    +0.167 C 
ATOM     40  C   UNL     1       5.338  -5.656  22.753  0.00  0.00    +0.114 C 
ATOM     41  C   UNL     1       6.737  -5.024  22.905  0.00  0.00    +0.166 C 
ATOM     42  O   UNL     1       7.220  -5.046  24.254  0.00  0.00    -0.341 OA
BRANCH  40  43
ATOM     43  N   UNL     1       5.118  -6.285  21.434  0.00  0.00    -0.323 NA
ATOM     44  H   UNL     1       5.942  -6.153  20.846  0.00  0.00    +0.119 HD
ATOM     45  H   UNL     1       5.033  -7.297  21.543  0.00  0.00    +0.119 HD
ENDBRANCH  40  43
BRANCH  39  46
ATOM     46  O   UNL     1       3.880  -7.351  23.666  0.00  0.00    -0.387 OA
ATOM     47  H   UNL     1       3.703  -7.240  22.706  0.00  0.00    +0.210 HD
ENDBRANCH  39  46
BRANCH  38  48
ATOM     48  O   UNL     1       5.339  -6.910  26.332  0.00  0.00    -0.384 OA
ATOM     49  H   UNL     1       6.192  -7.357  26.211  0.00  0.00    +0.210 HD
ENDBRANCH  38  48
BRANCH  41  50
ATOM     50  C   UNL     1       6.775  -3.610  22.306  0.00  0.00    +0.189 C 
BRANCH  50  51
ATOM     51  O   UNL     1       5.619  -3.360  21.515  0.00  0.00    -0.392 OA
ATOM     52  H   UNL     1       4.918  -3.064  22.124  0.00  0.00    +0.210 HD
ENDBRANCH  50  51
ENDBRANCH  41  50
ENDBRANCH  36  37
ENDBRANCH   2  36
TORSDOF 16
ENDMDL
MODEL 8
REMARK VINA RESULT:      -6.9      1.691      2.076
REMARK  Name = 
REMARK  17 active torsions:
REMARK  status: ('A' for Active; 'I' for Inactive)
REMARK    1  A    between atoms: C_1  and  N_2
REMARK    2  A    between atoms: N_2  and  C_3
REMARK    3  A    between atoms: C_5  and  O_7
REMARK    4  A    between atoms: C_11  and  O_13
REMARK    5  A    between atoms: O_13  and  C_14
REMARK    6  A    between atoms: C_16  and  N_18
REMARK    7  A    between atoms: C_20  and  N_22
REMARK    8  A    between atoms: C_23  and  O_25
REMARK    9  A    between atoms: C_26  and  O_28
REMARK   10  A    between atoms: C_29  and  N_31
REMARK   11  A    between atoms: C_36  and  O_38
REMARK   12  A    between atoms: O_38  and  C_39
REMARK   13  A    between atoms: C_42  and  C_44
REMARK   14  A    between atoms: C_44  and  O_45
REMARK   15  A    between atoms: C_46  and  N_48
REMARK   16  A    between atoms: C_49  and  O_51
REMARK   17  A    between atoms: C_52  and  O_54
REMARK                            x       y       z     vdW  Elec       q    Type
REMARK                         _______ _______ _______ _____ _____    ______ ____
ROOT
ATOM      1  C   UNL     1       8.806  -0.038  23.043  0.00  0.00    +0.141 C 
ATOM      2  C   UNL     1       9.738   0.084  24.326  0.00  0.00    +0.273 C 
ATOM      3  O   UNL     1       9.314  -0.739  25.424  0.00  0.00    -0.344 OA
ATOM      4  C   UNL     1       9.141  -2.101  25.075  0.00  0.00    +0.154 C 
ATOM      5  C   UNL     1       7.913  -2.197  24.186  0.00  0.00    +0.180 C 
ATOM      6  O   UNL     1       7.564  -3.560  23.880  0.00  0.00    -0.341 OA
ATOM      7  C   UNL     1       7.311  -4.332  25.046  0.00  0.00    +0.268 C 
ATOM      8  C   UNL     1       8.574  -4.352  25.952  0.00  0.00    +0.110 C 
ATOM      9  C   UNL     1       8.966  -2.931  26.347  0.00  0.00    +0.058 C 
ATOM     10  C   UNL     1       8.232  -1.482  22.880  0.00  0.00    +0.168 C 
ENDROOT
BRANCH   1  12
ATOM     11  C   UNL     1       8.693   0.975  20.736  0.00  0.00    +0.101 C 
ATOM     12  N   UNL     1       9.426   0.166  21.687  0.00  0.00    -0.310 NA
ATOM     13  H   UNL     1       9.570  -0.757  21.263  0.00  0.00    +0.122 HD
ENDBRANCH   1  12
BRANCH   8  14
ATOM     14  N   UNL     1       8.463  -5.247  27.110  0.00  0.00    -0.323 NA
ATOM     15  H   UNL     1       7.491  -5.392  27.358  0.00  0.00    +0.119 HD
ATOM     16  H   UNL     1       8.874  -6.154  26.878  0.00  0.00    +0.119 HD
ENDBRANCH   8  14
BRANCH  10  17
ATOM     17  O   UNL     1       9.191  -2.295  22.153  0.00  0.00    -0.387 OA
ATOM     18  H   UNL     1       8.650  -2.987  21.720  0.00  0.00    +0.210 HD
ENDBRANCH  10  17
BRANCH   7  19
ATOM     19  O   UNL     1       6.094  -3.895  25.682  0.00  0.00    -0.342 OA
BRANCH  19  20
ATOM     20  C   UNL     1       4.985  -4.806  25.411  0.00  0.00    +0.169 C 
ATOM     21  C   UNL     1       4.770  -5.063  23.894  0.00  0.00    +0.175 C 
ATOM     22  C   UNL     1       3.662  -6.085  23.635  0.00  0.00    +0.162 C 
ATOM     23  C   UNL     1       3.863  -7.393  24.412  0.00  0.00    +0.084 C 
ATOM     24  C   UNL     1       4.070  -7.142  25.904  0.00  0.00    +0.042 C 
ATOM     25  C   UNL     1       5.223  -6.154  26.159  0.00  0.00    +0.084 C 
BRANCH  25  26
ATOM     26  N   UNL     1       5.329  -5.967  27.617  0.00  0.00    -0.325 NA
ATOM     27  H   UNL     1       4.700  -5.219  27.915  0.00  0.00    +0.119 HD
ATOM     28  H   UNL     1       5.000  -6.817  28.078  0.00  0.00    +0.119 HD
ENDBRANCH  25  26
BRANCH  23  29
ATOM     29  N   UNL     1       2.693  -8.257  24.161  0.00  0.00    -0.325 NA
ATOM     30  H   UNL     1       1.913  -7.678  23.821  0.00  0.00    +0.119 HD
ATOM     31  H   UNL     1       2.897  -8.912  23.401  0.00  0.00    +0.119 HD
ENDBRANCH  23  29
BRANCH  22  32
ATOM     32  O   UNL     1       3.607  -6.392  22.235  0.00  0.00    -0.388 OA
ATOM     33  H   UNL     1       3.455  -5.537  21.789  0.00  0.00    +0.210 HD
ENDBRANCH  22  32
BRANCH  21  34
ATOM     34  O   UNL     1       4.377  -3.872  23.188  0.00  0.00    -0.387 OA
ATOM     35  H   UNL     1       5.175  -3.352  22.981  0.00  0.00    +0.210 HD
ENDBRANCH  21  34
ENDBRANCH  19  20
ENDBRANCH   7  19
BRANCH   2  36
ATOM     36  O   UNL     1       9.773   1.431  24.837  0.00  0.00    -0.318 OA
BRANCH  36  37
ATOM     37  C   UNL     1       8.709   2.221  24.269  0.00  0.00    +0.285 C 
ATOM     38  C   UNL     1       9.200   3.445  23.423  0.00  0.00    +0.200 C 
ATOM     39  C   UNL     1       8.207   4.637  23.576  0.00  0.00    +0.167 C 
ATOM     40  C   UNL     1       6.766   4.116  23.654  0.00  0.00    +0.114 C 
ATOM     41  C   UNL     1       6.612   3.235  24.910  0.00  0.00    +0.166 C 
ATOM     42  O   UNL     1       7.845   2.638  25.332  0.00  0.00    -0.341 OA
BRANCH  40  43
ATOM     43  N   UNL     1       5.808   5.242  23.605  0.00  0.00    -0.323 NA
ATOM     44  H   UNL     1       5.408   5.315  22.668  0.00  0.00    +0.119 HD
ATOM     45  H   UNL     1       5.013   5.047  24.216  0.00  0.00    +0.119 HD
ENDBRANCH  40  43
BRANCH  39  46
ATOM     46  O   UNL     1       8.318   5.548  22.482  0.00  0.00    -0.387 OA
ATOM     47  H   UNL     1       8.428   4.971  21.694  0.00  0.00    +0.210 HD
ENDBRANCH  39  46
BRANCH  38  48
ATOM     48  O   UNL     1      10.547   3.841  23.725  0.00  0.00    -0.384 OA
ATOM     49  H   UNL     1      10.838   4.488  23.063  0.00  0.00    +0.210 HD
ENDBRANCH  38  48
BRANCH  41  50
ATOM     50  C   UNL     1       5.504   2.189  24.723  0.00  0.00    +0.189 C 
BRANCH  50  51
ATOM     51  O   UNL     1       5.019   2.194  23.385  0.00  0.00    -0.392 OA
ATOM     52  H   UNL     1       4.145   1.762  23.399  0.00  0.00    +0.210 HD
ENDBRANCH  50  51
ENDBRANCH  41  50
ENDBRANCH  36  37
ENDBRANCH   2  36
TORSDOF 16
ENDMDL
MODEL 9
REMARK VINA RESULT:      -6.9      1.795      8.769
REMARK  Name = 
REMARK  17 active torsions:
REMARK  status: ('A' for Active; 'I' for Inactive)
REMARK    1  A    between atoms: C_1  and  N_2
REMARK    2  A    between atoms: N_2  and  C_3
REMARK    3  A    between atoms: C_5  and  O_7
REMARK    4  A    between atoms: C_11  and  O_13
REMARK    5  A    between atoms: O_13  and  C_14
REMARK    6  A    between atoms: C_16  and  N_18
REMARK    7  A    between atoms: C_20  and  N_22
REMARK    8  A    between atoms: C_23  and  O_25
REMARK    9  A    between atoms: C_26  and  O_28
REMARK   10  A    between atoms: C_29  and  N_31
REMARK   11  A    between atoms: C_36  and  O_38
REMARK   12  A    between atoms: O_38  and  C_39
REMARK   13  A    between atoms: C_42  and  C_44
REMARK   14  A    between atoms: C_44  and  O_45
REMARK   15  A    between atoms: C_46  and  N_48
REMARK   16  A    between atoms: C_49  and  O_51
REMARK   17  A    between atoms: C_52  and  O_54
REMARK                            x       y       z     vdW  Elec       q    Type
REMARK                         _______ _______ _______ _____ _____    ______ ____
ROOT
ATOM      1  C   UNL     1       7.515  -3.042  25.059  0.00  0.00    +0.141 C 
ATOM      2  C   UNL     1       8.253  -3.491  23.723  0.00  0.00    +0.273 C 
ATOM      3  O   UNL     1       8.293  -2.469  22.716  0.00  0.00    -0.344 OA
ATOM      4  C   UNL     1       8.828  -1.241  23.179  0.00  0.00    +0.154 C 
ATOM      5  C   UNL     1       7.819  -0.629  24.134  0.00  0.00    +0.180 C 
ATOM      6  O   UNL     1       8.202   0.691  24.564  0.00  0.00    -0.341 OA
ATOM      7  C   UNL     1       8.363   1.591  23.476  0.00  0.00    +0.268 C 
ATOM      8  C   UNL     1       9.461   1.063  22.510  0.00  0.00    +0.110 C 
ATOM      9  C   UNL     1       9.085  -0.320  21.986  0.00  0.00    +0.058 C 
ATOM     10  C   UNL     1       7.743  -1.526  25.363  0.00  0.00    +0.168 C 
ENDROOT
BRANCH   1  12
ATOM     11  C   UNL     1       8.898  -4.751  26.294  0.00  0.00    +0.101 C 
ATOM     12  N   UNL     1       7.957  -3.653  26.361  0.00  0.00    -0.310 NA
ATOM     13  H   UNL     1       7.122  -3.988  26.852  0.00  0.00    +0.122 HD
ENDBRANCH   1  12
BRANCH   8  14
ATOM     14  N   UNL     1       9.807   1.997  21.433  0.00  0.00    -0.323 NA
ATOM     15  H   UNL     1       9.587   1.597  20.528  0.00  0.00    +0.119 HD
ATOM     16  H   UNL     1       9.266   2.857  21.544  0.00  0.00    +0.119 HD
ENDBRANCH   8  14
BRANCH  10  17
ATOM     17  O   UNL     1       8.985  -1.372  26.100  0.00  0.00    -0.387 OA
ATOM     18  H   UNL     1       8.713  -1.365  27.041  0.00  0.00    +0.210 HD
ENDBRANCH  10  17
BRANCH   7  19
ATOM     19  O   UNL     1       7.088   1.881  22.871  0.00  0.00    -0.342 OA
BRANCH  19  20
ATOM     20  C   UNL     1       6.613   3.216  23.224  0.00  0.00    +0.169 C 
ATOM     21  C   UNL     1       7.253   4.335  22.356  0.00  0.00    +0.175 C 
ATOM     22  C   UNL     1       6.680   5.715  22.681  0.00  0.00    +0.162 C 
ATOM     23  C   UNL     1       5.146   5.754  22.620  0.00  0.00    +0.084 C 
ATOM     24  C   UNL     1       4.515   4.657  23.475  0.00  0.00    +0.042 C 
ATOM     25  C   UNL     1       5.058   3.264  23.104  0.00  0.00    +0.084 C 
BRANCH  25  26
ATOM     26  N   UNL     1       4.405   2.286  23.992  0.00  0.00    -0.325 NA
ATOM     27  H   UNL     1       4.888   1.388  23.931  0.00  0.00    +0.119 HD
ATOM     28  H   UNL     1       4.512   2.602  24.958  0.00  0.00    +0.119 HD
ENDBRANCH  25  26
BRANCH  23  29
ATOM     29  N   UNL     1       4.706   7.097  23.043  0.00  0.00    -0.325 NA
ATOM     30  H   UNL     1       5.425   7.785  22.780  0.00  0.00    +0.119 HD
ATOM     31  H   UNL     1       3.865   7.370  22.525  0.00  0.00    +0.119 HD
ENDBRANCH  23  29
BRANCH  22  32
ATOM     32  O   UNL     1       7.196   6.682  21.757  0.00  0.00    -0.388 OA
ATOM     33  H   UNL     1       6.451   6.892  21.162  0.00  0.00    +0.210 HD
ENDBRANCH  22  32
BRANCH  21  34
ATOM     34  O   UNL     1       8.673   4.442  22.565  0.00  0.00    -0.387 OA
ATOM     35  H   UNL     1       9.078   4.839  21.773  0.00  0.00    +0.210 HD
ENDBRANCH  21  34
ENDBRANCH  19  20
ENDBRANCH   7  19
BRANCH   2  36
ATOM     36  O   UNL     1       7.606  -4.623  23.108  0.00  0.00    -0.318 OA
BRANCH  36  37
ATOM     37  C   UNL     1       6.308  -4.850  23.694  0.00  0.00    +0.285 C 
ATOM     38  C   UNL     1       5.712  -6.270  23.406  0.00  0.00    +0.200 C 
ATOM     39  C   UNL     1       4.163  -6.185  23.267  0.00  0.00    +0.167 C 
ATOM     40  C   UNL     1       3.600  -5.157  24.258  0.00  0.00    +0.114 C 
ATOM     41  C   UNL     1       4.162  -3.762  23.915  0.00  0.00    +0.166 C 
ATOM     42  O   UNL     1       5.426  -3.816  23.243  0.00  0.00    -0.341 OA
BRANCH  40  43
ATOM     43  N   UNL     1       2.122  -5.208  24.269  0.00  0.00    -0.323 NA
ATOM     44  H   UNL     1       1.791  -5.810  23.513  0.00  0.00    +0.119 HD
ATOM     45  H   UNL     1       1.798  -5.660  25.126  0.00  0.00    +0.119 HD
ENDBRANCH  40  43
BRANCH  39  46
ATOM     46  O   UNL     1       3.550  -7.452  23.507  0.00  0.00    -0.387 OA
ATOM     47  H   UNL     1       4.257  -8.106  23.312  0.00  0.00    +0.210 HD
ENDBRANCH  39  46
BRANCH  38  48
ATOM     48  O   UNL     1       6.308  -6.915  22.268  0.00  0.00    -0.384 OA
ATOM     49  H   UNL     1       7.272  -6.819  22.326  0.00  0.00    +0.210 HD
ENDBRANCH  38  48
BRANCH  41  50
ATOM     50  C   UNL     1       4.213  -2.863  25.159  0.00  0.00    +0.189 C 
BRANCH  50  51
ATOM     51  O   UNL     1       2.902  -2.543  25.611  0.00  0.00    -0.392 OA
ATOM     52  H   UNL     1       2.550  -1.868  25.003  0.00  0.00    +0.210 HD
ENDBRANCH  50  51
ENDBRANCH  41  50
ENDBRANCH  36  37
ENDBRANCH   2  36
TORSDOF 16
ENDMDL
