MODEL 1
REMARK VINA RESULT:      -5.6      0.000      0.000
REMARK  Name = 
REMARK  21 active torsions:
REMARK  status: ('A' for Active; 'I' for Inactive)
REMARK    1  A    between atoms: C_2  and  C_3
REMARK    2  A    between atoms: C_2  and  C_15
REMARK    3  A    between atoms: C_2  and  O_22
REMARK    4  A    between atoms: C_3  and  O_4
REMARK    5  A    between atoms: O_4  and  C_5
REMARK    6  A    between atoms: C_5  and  C_6
REMARK    7  A    between atoms: C_6  and  C_7
REMARK    8  A    between atoms: C_7  and  C_8
REMARK    9  A    between atoms: C_8  and  C_9
REMARK   10  A    between atoms: C_9  and  C_10
REMARK   11  A    between atoms: C_10  and  C_11
REMARK   12  A    between atoms: C_11  and  C_12
REMARK   13  A    between atoms: C_12  and  C_13
REMARK   14  A    between atoms: C_13  and  C_14
REMARK   15  A    between atoms: C_15  and  O_16
REMARK   16  A    between atoms: O_16  and  C_17
REMARK   17  A    between atoms: C_17  and  C_18
REMARK   18  A    between atoms: O_22  and  P_23
REMARK   19  A    between atoms: P_23  and  O_24
REMARK   20  A    between atoms: P_23  and  O_26
REMARK   21  A    between atoms: O_26  and  C_27
REMARK                            x       y       z     vdW  Elec       q    Type
REMARK                         _______ _______ _______ _____ _____    ______ ____
ROOT
ATOM      1  C   UNL     1       8.740  -2.539  23.995  0.00  0.00    +0.181 C 
ENDROOT
BRANCH   1   2
ATOM      2  C   UNL     1       7.976  -2.598  22.663  0.00  0.00    +0.194 C 
BRANCH   2   3
ATOM      3  O   UNL     1       7.748  -3.967  22.298  0.00  0.00    -0.368 OA
BRANCH   3   4
ATOM      4  C   UNL     1       6.357  -4.234  22.059  0.00  0.00    +0.273 C 
BRANCH   4   5
ATOM      5  C   UNL     1       6.079  -5.677  21.622  0.00  0.00    +0.413 C 
ATOM      6  F   UNL     1       7.030  -6.515  22.099  0.00  0.00    -0.168 F 
ATOM      7  F   UNL     1       6.102  -5.779  20.270  0.00  0.00    -0.168 F 
ATOM      8  F   UNL     1       4.882  -6.141  22.040  0.00  0.00    -0.168 F 
ENDBRANCH   4   5
ENDBRANCH   3   4
ENDBRANCH   2   3
ENDBRANCH   1   2
BRANCH   1   9
ATOM      9  O   UNL     1       9.239  -3.852  24.270  0.00  0.00    -0.279 OA
BRANCH   9  10
ATOM     10  P   UNL     1       9.133  -4.478  25.781  0.00  0.00    +0.475 P 
ATOM     11  O   UNL     1       8.028  -5.534  25.755  0.00  0.00    -0.227 OA
BRANCH  10  12
ATOM     12  O   UNL     1       8.037  -3.237  26.283  0.00  0.00    -0.290 OA
ATOM     13  C   UNL     1       6.904  -3.724  26.983  0.00  0.00    +0.207 C 
ENDBRANCH  10  12
BRANCH  10  14
ATOM     14  O   UNL     1      10.230  -5.718  25.279  0.00  0.00    -0.302 OA
ATOM     15  H   UNL     1      10.808  -5.823  26.061  0.00  0.00    +0.222 HD
ENDBRANCH  10  14
ENDBRANCH   9  10
ENDBRANCH   1   9
BRANCH   1  16
ATOM     16  C   UNL     1       9.862  -1.490  23.936  0.00  0.00    +0.194 C 
BRANCH  16  17
ATOM     17  O   UNL     1       9.384  -0.218  23.484  0.00  0.00    -0.377 OA
BRANCH  17  18
ATOM     18  C   UNL     1      10.237   0.323  22.471  0.00  0.00    +0.160 C 
BRANCH  18  19
ATOM     19  C   UNL     1       9.917   1.797  22.222  0.00  0.00    +0.028 C 
BRANCH  19  20
ATOM     20  C   UNL     1       9.725   2.642  23.487  0.00  0.00    +0.002 C 
BRANCH  20  21
ATOM     21  C   UNL     1       8.692   3.756  23.325  0.00  0.00    +0.000 C 
BRANCH  21  22
ATOM     22  C   UNL     1       9.010   4.945  24.235  0.00  0.00    +0.000 C 
BRANCH  22  23
ATOM     23  C   UNL     1      10.012   5.893  23.573  0.00  0.00    -0.000 C 
BRANCH  23  24
ATOM     24  C   UNL     1      10.962   6.509  24.602  0.00  0.00    -0.000 C 
BRANCH  24  25
ATOM     25  C   UNL     1      12.420   6.188  24.268  0.00  0.00    -0.000 C 
BRANCH  25  26
ATOM     26  C   UNL     1      12.522   5.151  23.152  0.00  0.00    -0.003 C 
ATOM     27  C   UNL     1      13.314   5.682  21.969  0.00  0.00    +0.004 C 
ENDBRANCH  25  26
ENDBRANCH  24  25
ENDBRANCH  23  24
ENDBRANCH  22  23
ENDBRANCH  21  22
ENDBRANCH  20  21
ENDBRANCH  19  20
ENDBRANCH  18  19
ENDBRANCH  17  18
ENDBRANCH  16  17
ENDBRANCH   1  16
TORSDOF 19
ENDMDL
MODEL 2
REMARK VINA RESULT:      -5.6      1.506      2.013
REMARK  Name = 
REMARK  21 active torsions:
REMARK  status: ('A' for Active; 'I' for Inactive)
REMARK    1  A    between atoms: C_2  and  C_3
REMARK    2  A    between atoms: C_2  and  C_15
REMARK    3  A    between atoms: C_2  and  O_22
REMARK    4  A    between atoms: C_3  and  O_4
REMARK    5  A    between atoms: O_4  and  C_5
REMARK    6  A    between atoms: C_5  and  C_6
REMARK    7  A    between atoms: C_6  and  C_7
REMARK    8  A    between atoms: C_7  and  C_8
REMARK    9  A    between atoms: C_8  and  C_9
REMARK   10  A    between atoms: C_9  and  C_10
REMARK   11  A    between atoms: C_10  and  C_11
REMARK   12  A    between atoms: C_11  and  C_12
REMARK   13  A    between atoms: C_12  and  C_13
REMARK   14  A    between atoms: C_13  and  C_14
REMARK   15  A    between atoms: C_15  and  O_16
REMARK   16  A    between atoms: O_16  and  C_17
REMARK   17  A    between atoms: C_17  and  C_18
REMARK   18  A    between atoms: O_22  and  P_23
REMARK   19  A    between atoms: P_23  and  O_24
REMARK   20  A    between atoms: P_23  and  O_26
REMARK   21  A    between atoms: O_26  and  C_27
REMARK                            x       y       z     vdW  Elec       q    Type
REMARK                         _______ _______ _______ _____ _____    ______ ____
ROOT
ATOM      1  C   UNL     1       8.490  -2.808  24.096  0.00  0.00    +0.181 C 
ENDROOT
BRANCH   1   2
ATOM      2  C   UNL     1       7.495  -2.604  22.942  0.00  0.00    +0.194 C 
BRANCH   2   3
ATOM      3  O   UNL     1       6.492  -3.630  22.984  0.00  0.00    -0.368 OA
BRANCH   3   4
ATOM      4  C   UNL     1       6.153  -4.104  21.672  0.00  0.00    +0.273 C 
BRANCH   4   5
ATOM      5  C   UNL     1       6.419  -5.600  21.474  0.00  0.00    +0.413 C 
ATOM      6  F   UNL     1       7.750  -5.849  21.425  0.00  0.00    -0.168 F 
ATOM      7  F   UNL     1       5.893  -6.027  20.300  0.00  0.00    -0.168 F 
ATOM      8  F   UNL     1       5.897  -6.370  22.453  0.00  0.00    -0.168 F 
ENDBRANCH   4   5
ENDBRANCH   3   4
ENDBRANCH   2   3
ENDBRANCH   1   2
BRANCH   1   9
ATOM      9  O   UNL     1       8.503  -4.201  24.421  0.00  0.00    -0.279 OA
BRANCH   9  10
ATOM     10  P   UNL     1       8.904  -4.696  25.931  0.00  0.00    +0.475 P 
ATOM     11  O   UNL     1       7.966  -5.848  26.292  0.00  0.00    -0.227 OA
BRANCH  10  12
ATOM     12  O   UNL     1       7.861  -3.522  26.657  0.00  0.00    -0.290 OA
ATOM     13  C   UNL     1       6.612  -4.047  27.074  0.00  0.00    +0.207 C 
ENDBRANCH  10  12
BRANCH  10  14
ATOM     14  O   UNL     1       9.947  -5.870  25.204  0.00  0.00    -0.302 OA
ATOM     15  H   UNL     1       9.411  -6.197  24.454  0.00  0.00    +0.222 HD
ENDBRANCH  10  14
ENDBRANCH   9  10
ENDBRANCH   1   9
BRANCH   1  16
ATOM     16  C   UNL     1       9.885  -2.286  23.714  0.00  0.00    +0.194 C 
BRANCH  16  17
ATOM     17  O   UNL     1       9.877  -1.610  22.452  0.00  0.00    -0.377 OA
BRANCH  17  18
ATOM     18  C   UNL     1      10.134  -0.211  22.615  0.00  0.00    +0.160 C 
BRANCH  18  19
ATOM     19  C   UNL     1       9.465   0.597  21.504  0.00  0.00    +0.028 C 
BRANCH  19  20
ATOM     20  C   UNL     1       8.833   1.920  21.954  0.00  0.00    +0.002 C 
BRANCH  20  21
ATOM     21  C   UNL     1       7.457   1.752  22.593  0.00  0.00    +0.000 C 
BRANCH  21  22
ATOM     22  C   UNL     1       7.239   2.765  23.719  0.00  0.00    +0.000 C 
BRANCH  22  23
ATOM     23  C   UNL     1       8.509   2.940  24.556  0.00  0.00    -0.000 C 
BRANCH  23  24
ATOM     24  C   UNL     1       8.740   4.406  24.922  0.00  0.00    -0.000 C 
BRANCH  24  25
ATOM     25  C   UNL     1       9.644   5.095  23.898  0.00  0.00    -0.000 C 
BRANCH  25  26
ATOM     26  C   UNL     1       9.080   6.451  23.479  0.00  0.00    -0.003 C 
ATOM     27  C   UNL     1       7.946   6.297  22.478  0.00  0.00    +0.004 C 
ENDBRANCH  25  26
ENDBRANCH  24  25
ENDBRANCH  23  24
ENDBRANCH  22  23
ENDBRANCH  21  22
ENDBRANCH  20  21
ENDBRANCH  19  20
ENDBRANCH  18  19
ENDBRANCH  17  18
ENDBRANCH  16  17
ENDBRANCH   1  16
TORSDOF 19
ENDMDL
MODEL 3
REMARK VINA RESULT:      -5.6      1.596      3.132
REMARK  Name = 
REMARK  21 active torsions:
REMARK  status: ('A' for Active; 'I' for Inactive)
REMARK    1  A    between atoms: C_2  and  C_3
REMARK    2  A    between atoms: C_2  and  C_15
REMARK    3  A    between atoms: C_2  and  O_22
REMARK    4  A    between atoms: C_3  and  O_4
REMARK    5  A    between atoms: O_4  and  C_5
REMARK    6  A    between atoms: C_5  and  C_6
REMARK    7  A    between atoms: C_6  and  C_7
REMARK    8  A    between atoms: C_7  and  C_8
REMARK    9  A    between atoms: C_8  and  C_9
REMARK   10  A    between atoms: C_9  and  C_10
REMARK   11  A    between atoms: C_10  and  C_11
REMARK   12  A    between atoms: C_11  and  C_12
REMARK   13  A    between atoms: C_12  and  C_13
REMARK   14  A    between atoms: C_13  and  C_14
REMARK   15  A    between atoms: C_15  and  O_16
REMARK   16  A    between atoms: O_16  and  C_17
REMARK   17  A    between atoms: C_17  and  C_18
REMARK   18  A    between atoms: O_22  and  P_23
REMARK   19  A    between atoms: P_23  and  O_24
REMARK   20  A    between atoms: P_23  and  O_26
REMARK   21  A    between atoms: O_26  and  C_27
REMARK                            x       y       z     vdW  Elec       q    Type
REMARK                         _______ _______ _______ _____ _____    ______ ____
ROOT
ATOM      1  C   UNL     1       8.800  -2.758  23.715  0.00  0.00    +0.181 C 
ENDROOT
BRANCH   1   2
ATOM      2  C   UNL     1       7.818  -2.807  22.533  0.00  0.00    +0.194 C 
BRANCH   2   3
ATOM      3  O   UNL     1       6.748  -3.715  22.833  0.00  0.00    -0.368 OA
BRANCH   3   4
ATOM      4  C   UNL     1       6.046  -4.126  21.650  0.00  0.00    +0.273 C 
BRANCH   4   5
ATOM      5  C   UNL     1       6.336  -5.574  21.239  0.00  0.00    +0.413 C 
ATOM      6  F   UNL     1       5.708  -6.443  22.067  0.00  0.00    -0.168 F 
ATOM      7  F   UNL     1       7.664  -5.837  21.323  0.00  0.00    -0.168 F 
ATOM      8  F   UNL     1       5.948  -5.861  19.978  0.00  0.00    -0.168 F 
ENDBRANCH   4   5
ENDBRANCH   3   4
ENDBRANCH   2   3
ENDBRANCH   1   2
BRANCH   1   9
ATOM      9  O   UNL     1       9.031  -4.102  24.146  0.00  0.00    -0.279 OA
BRANCH   9  10
ATOM     10  P   UNL     1       9.100  -4.459  25.744  0.00  0.00    +0.475 P 
ATOM     11  O   UNL     1       8.064  -5.552  26.007  0.00  0.00    -0.227 OA
BRANCH  10  12
ATOM     12  O   UNL     1       7.980  -3.200  26.134  0.00  0.00    -0.290 OA
ATOM     13  C   UNL     1       6.756  -3.671  26.674  0.00  0.00    +0.207 C 
ENDBRANCH  10  12
BRANCH  10  14
ATOM     14  O   UNL     1      10.220  -5.718  25.353  0.00  0.00    -0.302 OA
ATOM     15  H   UNL     1      10.977  -5.224  24.978  0.00  0.00    +0.222 HD
ENDBRANCH  10  14
ENDBRANCH   9  10
ENDBRANCH   1   9
BRANCH   1  16
ATOM     16  C   UNL     1      10.100  -2.042  23.317  0.00  0.00    +0.194 C 
BRANCH  16  17
ATOM     17  O   UNL     1       9.964  -0.617  23.361  0.00  0.00    -0.377 OA
BRANCH  17  18
ATOM     18  C   UNL     1      10.108  -0.044  22.057  0.00  0.00    +0.160 C 
BRANCH  18  19
ATOM     19  C   UNL     1      10.021   1.480  22.121  0.00  0.00    +0.028 C 
BRANCH  19  20
ATOM     20  C   UNL     1      10.248   2.086  23.512  0.00  0.00    +0.002 C 
BRANCH  20  21
ATOM     21  C   UNL     1       9.944   3.581  23.583  0.00  0.00    +0.000 C 
BRANCH  21  22
ATOM     22  C   UNL     1       8.503   3.835  24.030  0.00  0.00    +0.000 C 
BRANCH  22  23
ATOM     23  C   UNL     1       7.634   4.291  22.856  0.00  0.00    -0.000 C 
BRANCH  23  24
ATOM     24  C   UNL     1       6.769   3.148  22.322  0.00  0.00    -0.000 C 
BRANCH  24  25
ATOM     25  C   UNL     1       6.238   2.278  23.463  0.00  0.00    -0.000 C 
BRANCH  25  26
ATOM     26  C   UNL     1       6.644   0.816  23.285  0.00  0.00    -0.003 C 
ATOM     27  C   UNL     1       6.438   0.022  24.565  0.00  0.00    +0.004 C 
ENDBRANCH  25  26
ENDBRANCH  24  25
ENDBRANCH  23  24
ENDBRANCH  22  23
ENDBRANCH  21  22
ENDBRANCH  20  21
ENDBRANCH  19  20
ENDBRANCH  18  19
ENDBRANCH  17  18
ENDBRANCH  16  17
ENDBRANCH   1  16
TORSDOF 19
ENDMDL
MODEL 4
REMARK VINA RESULT:      -5.5      2.847      4.128
REMARK  Name = 
REMARK  21 active torsions:
REMARK  status: ('A' for Active; 'I' for Inactive)
REMARK    1  A    between atoms: C_2  and  C_3
REMARK    2  A    between atoms: C_2  and  C_15
REMARK    3  A    between atoms: C_2  and  O_22
REMARK    4  A    between atoms: C_3  and  O_4
REMARK    5  A    between atoms: O_4  and  C_5
REMARK    6  A    between atoms: C_5  and  C_6
REMARK    7  A    between atoms: C_6  and  C_7
REMARK    8  A    between atoms: C_7  and  C_8
REMARK    9  A    between atoms: C_8  and  C_9
REMARK   10  A    between atoms: C_9  and  C_10
REMARK   11  A    between atoms: C_10  and  C_11
REMARK   12  A    between atoms: C_11  and  C_12
REMARK   13  A    between atoms: C_12  and  C_13
REMARK   14  A    between atoms: C_13  and  C_14
REMARK   15  A    between atoms: C_15  and  O_16
REMARK   16  A    between atoms: O_16  and  C_17
REMARK   17  A    between atoms: C_17  and  C_18
REMARK   18  A    between atoms: O_22  and  P_23
REMARK   19  A    between atoms: P_23  and  O_24
REMARK   20  A    between atoms: P_23  and  O_26
REMARK   21  A    between atoms: O_26  and  C_27
REMARK                            x       y       z     vdW  Elec       q    Type
REMARK                         _______ _______ _______ _____ _____    ______ ____
ROOT
ATOM      1  C   UNL     1       7.057  -4.522  23.227  0.00  0.00    +0.181 C 
ENDROOT
BRANCH   1   2
ATOM      2  C   UNL     1       6.190  -5.697  22.746  0.00  0.00    +0.194 C 
BRANCH   2   3
ATOM      3  O   UNL     1       4.934  -5.202  22.260  0.00  0.00    -0.368 OA
BRANCH   3   4
ATOM      4  C   UNL     1       4.062  -4.806  23.330  0.00  0.00    +0.273 C 
BRANCH   4   5
ATOM      5  C   UNL     1       2.758  -5.609  23.385  0.00  0.00    +0.413 C 
ATOM      6  F   UNL     1       1.698  -4.826  23.071  0.00  0.00    -0.168 F 
ATOM      7  F   UNL     1       2.543  -6.083  24.637  0.00  0.00    -0.168 F 
ATOM      8  F   UNL     1       2.745  -6.667  22.547  0.00  0.00    -0.168 F 
ENDBRANCH   4   5
ENDBRANCH   3   4
ENDBRANCH   2   3
ENDBRANCH   1   2
BRANCH   1   9
ATOM      9  O   UNL     1       8.314  -5.055  23.656  0.00  0.00    -0.279 OA
BRANCH   9  10
ATOM     10  P   UNL     1       8.981  -4.565  25.070  0.00  0.00    +0.475 P 
ATOM     11  O   UNL     1      10.286  -5.341  25.246  0.00  0.00    -0.227 OA
BRANCH  10  12
ATOM     12  O   UNL     1       8.078  -5.733  25.971  0.00  0.00    -0.290 OA
ATOM     13  C   UNL     1       7.416  -5.195  27.103  0.00  0.00    +0.207 C 
ENDBRANCH  10  12
BRANCH  10  14
ATOM     14  O   UNL     1       9.885  -3.396  24.170  0.00  0.00    -0.302 OA
ATOM     15  H   UNL     1      10.588  -3.138  24.799  0.00  0.00    +0.222 HD
ENDBRANCH  10  14
ENDBRANCH   9  10
ENDBRANCH   1   9
BRANCH   1  16
ATOM     16  C   UNL     1       7.217  -3.471  22.118  0.00  0.00    +0.194 C 
BRANCH  16  17
ATOM     17  O   UNL     1       7.503  -2.172  22.647  0.00  0.00    -0.377 OA
BRANCH  17  18
ATOM     18  C   UNL     1       6.406  -1.676  23.420  0.00  0.00    +0.160 C 
BRANCH  18  19
ATOM     19  C   UNL     1       6.820  -0.443  24.223  0.00  0.00    +0.028 C 
BRANCH  19  20
ATOM     20  C   UNL     1       8.073  -0.623  25.088  0.00  0.00    +0.002 C 
BRANCH  20  21
ATOM     21  C   UNL     1       8.915   0.645  25.212  0.00  0.00    +0.000 C 
BRANCH  21  22
ATOM     22  C   UNL     1      10.366   0.392  24.797  0.00  0.00    +0.000 C 
BRANCH  22  23
ATOM     23  C   UNL     1      10.458   0.017  23.316  0.00  0.00    -0.000 C 
BRANCH  23  24
ATOM     24  C   UNL     1      10.134   1.211  22.416  0.00  0.00    -0.000 C 
BRANCH  24  25
ATOM     25  C   UNL     1       9.027   0.865  21.418  0.00  0.00    -0.000 C 
BRANCH  25  26
ATOM     26  C   UNL     1       7.839   1.816  21.551  0.00  0.00    -0.003 C 
ATOM     27  C   UNL     1       8.155   2.973  22.485  0.00  0.00    +0.004 C 
ENDBRANCH  25  26
ENDBRANCH  24  25
ENDBRANCH  23  24
ENDBRANCH  22  23
ENDBRANCH  21  22
ENDBRANCH  20  21
ENDBRANCH  19  20
ENDBRANCH  18  19
ENDBRANCH  17  18
ENDBRANCH  16  17
ENDBRANCH   1  16
TORSDOF 19
ENDMDL
MODEL 5
REMARK VINA RESULT:      -5.5      2.597      3.799
REMARK  Name = 
REMARK  21 active torsions:
REMARK  status: ('A' for Active; 'I' for Inactive)
REMARK    1  A    between atoms: C_2  and  C_3
REMARK    2  A    between atoms: C_2  and  C_15
REMARK    3  A    between atoms: C_2  and  O_22
REMARK    4  A    between atoms: C_3  and  O_4
REMARK    5  A    between atoms: O_4  and  C_5
REMARK    6  A    between atoms: C_5  and  C_6
REMARK    7  A    between atoms: C_6  and  C_7
REMARK    8  A    between atoms: C_7  and  C_8
REMARK    9  A    between atoms: C_8  and  C_9
REMARK   10  A    between atoms: C_9  and  C_10
REMARK   11  A    between atoms: C_10  and  C_11
REMARK   12  A    between atoms: C_11  and  C_12
REMARK   13  A    between atoms: C_12  and  C_13
REMARK   14  A    between atoms: C_13  and  C_14
REMARK   15  A    between atoms: C_15  and  O_16
REMARK   16  A    between atoms: O_16  and  C_17
REMARK   17  A    between atoms: C_17  and  C_18
REMARK   18  A    between atoms: O_22  and  P_23
REMARK   19  A    between atoms: P_23  and  O_24
REMARK   20  A    between atoms: P_23  and  O_26
REMARK   21  A    between atoms: O_26  and  C_27
REMARK                            x       y       z     vdW  Elec       q    Type
REMARK                         _______ _______ _______ _____ _____    ______ ____
ROOT
ATOM      1  C   UNL     1       6.376  -3.795  25.408  0.00  0.00    +0.181 C 
ENDROOT
BRANCH   1   2
ATOM      2  C   UNL     1       5.231  -4.192  24.463  0.00  0.00    +0.194 C 
BRANCH   2   3
ATOM      3  O   UNL     1       5.479  -5.500  23.927  0.00  0.00    -0.368 OA
BRANCH   3   4
ATOM      4  C   UNL     1       5.242  -5.554  22.512  0.00  0.00    +0.273 C 
BRANCH   4   5
ATOM      5  C   UNL     1       6.527  -5.552  21.676  0.00  0.00    +0.413 C 
ATOM      6  F   UNL     1       7.114  -4.332  21.702  0.00  0.00    -0.168 F 
ATOM      7  F   UNL     1       6.252  -5.832  20.378  0.00  0.00    -0.168 F 
ATOM      8  F   UNL     1       7.441  -6.452  22.097  0.00  0.00    -0.168 F 
ENDBRANCH   4   5
ENDBRANCH   3   4
ENDBRANCH   2   3
ENDBRANCH   1   2
BRANCH   1   9
ATOM      9  O   UNL     1       7.608  -4.163  24.780  0.00  0.00    -0.279 OA
BRANCH   9  10
ATOM     10  P   UNL     1       8.693  -5.103  25.570  0.00  0.00    +0.475 P 
ATOM     11  O   UNL     1       9.055  -4.381  26.868  0.00  0.00    -0.227 OA
BRANCH  10  12
ATOM     12  O   UNL     1      10.020  -4.394  24.717  0.00  0.00    -0.290 OA
ATOM     13  C   UNL     1       9.728  -3.122  24.163  0.00  0.00    +0.207 C 
ENDBRANCH  10  12
BRANCH  10  14
ATOM     14  O   UNL     1       7.365  -5.813  26.423  0.00  0.00    -0.302 OA
ATOM     15  H   UNL     1       7.609  -5.666  27.359  0.00  0.00    +0.222 HD
ENDBRANCH  10  14
ENDBRANCH   9  10
ENDBRANCH   1   9
BRANCH   1  16
ATOM     16  C   UNL     1       6.317  -2.296  25.741  0.00  0.00    +0.194 C 
BRANCH  16  17
ATOM     17  O   UNL     1       5.831  -1.521  24.640  0.00  0.00    -0.377 OA
BRANCH  17  18
ATOM     18  C   UNL     1       6.880  -0.744  24.054  0.00  0.00    +0.160 C 
BRANCH  18  19
ATOM     19  C   UNL     1       7.421   0.279  25.052  0.00  0.00    +0.028 C 
BRANCH  19  20
ATOM     20  C   UNL     1       8.923   0.173  25.341  0.00  0.00    +0.002 C 
BRANCH  20  21
ATOM     21  C   UNL     1       9.751   1.274  24.683  0.00  0.00    +0.000 C 
BRANCH  21  22
ATOM     22  C   UNL     1      10.395   0.785  23.384  0.00  0.00    +0.000 C 
BRANCH  22  23
ATOM     23  C   UNL     1       9.992   1.669  22.202  0.00  0.00    -0.000 C 
BRANCH  23  24
ATOM     24  C   UNL     1       8.778   1.101  21.465  0.00  0.00    -0.000 C 
BRANCH  24  25
ATOM     25  C   UNL     1       7.570   2.031  21.592  0.00  0.00    -0.000 C 
BRANCH  25  26
ATOM     26  C   UNL     1       7.928   3.311  22.344  0.00  0.00    -0.003 C 
ATOM     27  C   UNL     1       6.948   3.585  23.473  0.00  0.00    +0.004 C 
ENDBRANCH  25  26
ENDBRANCH  24  25
ENDBRANCH  23  24
ENDBRANCH  22  23
ENDBRANCH  21  22
ENDBRANCH  20  21
ENDBRANCH  19  20
ENDBRANCH  18  19
ENDBRANCH  17  18
ENDBRANCH  16  17
ENDBRANCH   1  16
TORSDOF 19
ENDMDL
MODEL 6
REMARK VINA RESULT:      -5.5      2.381      3.561
REMARK  Name = 
REMARK  21 active torsions:
REMARK  status: ('A' for Active; 'I' for Inactive)
REMARK    1  A    between atoms: C_2  and  C_3
REMARK    2  A    between atoms: C_2  and  C_15
REMARK    3  A    between atoms: C_2  and  O_22
REMARK    4  A    between atoms: C_3  and  O_4
REMARK    5  A    between atoms: O_4  and  C_5
REMARK    6  A    between atoms: C_5  and  C_6
REMARK    7  A    between atoms: C_6  and  C_7
REMARK    8  A    between atoms: C_7  and  C_8
REMARK    9  A    between atoms: C_8  and  C_9
REMARK   10  A    between atoms: C_9  and  C_10
REMARK   11  A    between atoms: C_10  and  C_11
REMARK   12  A    between atoms: C_11  and  C_12
REMARK   13  A    between atoms: C_12  and  C_13
REMARK   14  A    between atoms: C_13  and  C_14
REMARK   15  A    between atoms: C_15  and  O_16
REMARK   16  A    between atoms: O_16  and  C_17
REMARK   17  A    between atoms: C_17  and  C_18
REMARK   18  A    between atoms: O_22  and  P_23
REMARK   19  A    between atoms: P_23  and  O_24
REMARK   20  A    between atoms: P_23  and  O_26
REMARK   21  A    between atoms: O_26  and  C_27
REMARK                            x       y       z     vdW  Elec       q    Type
REMARK                         _______ _______ _______ _____ _____    ______ ____
ROOT
ATOM      1  C   UNL     1       7.672  -3.915  23.193  0.00  0.00    +0.181 C 
ENDROOT
BRANCH   1   2
ATOM      2  C   UNL     1       6.976  -4.828  22.171  0.00  0.00    +0.194 C 
BRANCH   2   3
ATOM      3  O   UNL     1       5.724  -4.246  21.778  0.00  0.00    -0.368 OA
BRANCH   3   4
ATOM      4  C   UNL     1       4.953  -3.817  22.911  0.00  0.00    +0.273 C 
BRANCH   4   5
ATOM      5  C   UNL     1       4.105  -4.933  23.532  0.00  0.00    +0.413 C 
ATOM      6  F   UNL     1       4.754  -5.506  24.573  0.00  0.00    -0.168 F 
ATOM      7  F   UNL     1       3.867  -5.912  22.625  0.00  0.00    -0.168 F 
ATOM      8  F   UNL     1       2.907  -4.505  23.985  0.00  0.00    -0.168 F 
ENDBRANCH   4   5
ENDBRANCH   3   4
ENDBRANCH   2   3
ENDBRANCH   1   2
BRANCH   1   9
ATOM      9  O   UNL     1       8.601  -4.715  23.931  0.00  0.00    -0.279 OA
BRANCH   9  10
ATOM     10  P   UNL     1       8.582  -4.707  25.569  0.00  0.00    +0.475 P 
ATOM     11  O   UNL     1       7.741  -5.903  26.016  0.00  0.00    -0.227 OA
BRANCH  10  12
ATOM     12  O   UNL     1       7.220  -3.641  25.608  0.00  0.00    -0.290 OA
ATOM     13  C   UNL     1       7.336  -2.600  26.564  0.00  0.00    +0.207 C 
ENDBRANCH  10  12
BRANCH  10  14
ATOM     14  O   UNL     1       9.944  -5.773  25.530  0.00  0.00    -0.302 OA
ATOM     15  H   UNL     1      10.695  -5.157  25.410  0.00  0.00    +0.222 HD
ENDBRANCH  10  14
ENDBRANCH   9  10
ENDBRANCH   1   9
BRANCH   1  16
ATOM     16  C   UNL     1       8.352  -2.728  22.492  0.00  0.00    +0.194 C 
BRANCH  16  17
ATOM     17  O   UNL     1       8.446  -1.583  23.346  0.00  0.00    -0.377 OA
BRANCH  17  18
ATOM     18  C   UNL     1       9.758  -1.465  23.907  0.00  0.00    +0.160 C 
BRANCH  18  19
ATOM     19  C   UNL     1       9.830  -0.285  24.875  0.00  0.00    +0.028 C 
BRANCH  19  20
ATOM     20  C   UNL     1      10.847   0.800  24.502  0.00  0.00    +0.002 C 
BRANCH  20  21
ATOM     21  C   UNL     1      10.207   2.079  23.966  0.00  0.00    +0.000 C 
BRANCH  21  22
ATOM     22  C   UNL     1      10.379   2.193  22.450  0.00  0.00    +0.000 C 
BRANCH  22  23
ATOM     23  C   UNL     1       9.273   1.435  21.711  0.00  0.00    -0.000 C 
BRANCH  23  24
ATOM     24  C   UNL     1       7.942   2.187  21.773  0.00  0.00    -0.000 C 
BRANCH  24  25
ATOM     25  C   UNL     1       6.865   1.347  22.463  0.00  0.00    -0.000 C 
BRANCH  25  26
ATOM     26  C   UNL     1       6.480   1.938  23.817  0.00  0.00    -0.003 C 
ATOM     27  C   UNL     1       6.712   3.440  23.856  0.00  0.00    +0.004 C 
ENDBRANCH  25  26
ENDBRANCH  24  25
ENDBRANCH  23  24
ENDBRANCH  22  23
ENDBRANCH  21  22
ENDBRANCH  20  21
ENDBRANCH  19  20
ENDBRANCH  18  19
ENDBRANCH  17  18
ENDBRANCH  16  17
ENDBRANCH   1  16
TORSDOF 19
ENDMDL
MODEL 7
REMARK VINA RESULT:      -5.5      2.244      3.967
REMARK  Name = 
REMARK  21 active torsions:
REMARK  status: ('A' for Active; 'I' for Inactive)
REMARK    1  A    between atoms: C_2  and  C_3
REMARK    2  A    between atoms: C_2  and  C_15
REMARK    3  A    between atoms: C_2  and  O_22
REMARK    4  A    between atoms: C_3  and  O_4
REMARK    5  A    between atoms: O_4  and  C_5
REMARK    6  A    between atoms: C_5  and  C_6
REMARK    7  A    between atoms: C_6  and  C_7
REMARK    8  A    between atoms: C_7  and  C_8
REMARK    9  A    between atoms: C_8  and  C_9
REMARK   10  A    between atoms: C_9  and  C_10
REMARK   11  A    between atoms: C_10  and  C_11
REMARK   12  A    between atoms: C_11  and  C_12
REMARK   13  A    between atoms: C_12  and  C_13
REMARK   14  A    between atoms: C_13  and  C_14
REMARK   15  A    between atoms: C_15  and  O_16
REMARK   16  A    between atoms: O_16  and  C_17
REMARK   17  A    between atoms: C_17  and  C_18
REMARK   18  A    between atoms: O_22  and  P_23
REMARK   19  A    between atoms: P_23  and  O_24
REMARK   20  A    between atoms: P_23  and  O_26
REMARK   21  A    between atoms: O_26  and  C_27
REMARK                            x       y       z     vdW  Elec       q    Type
REMARK                         _______ _______ _______ _____ _____    ______ ____
ROOT
ATOM      1  C   UNL     1       6.928  -4.966  25.596  0.00  0.00    +0.181 C 
ENDROOT
BRANCH   1   2
ATOM      2  C   UNL     1       6.022  -4.622  24.403  0.00  0.00    +0.194 C 
BRANCH   2   3
ATOM      3  O   UNL     1       5.607  -5.830  23.749  0.00  0.00    -0.368 OA
BRANCH   3   4
ATOM      4  C   UNL     1       5.244  -5.601  22.378  0.00  0.00    +0.273 C 
BRANCH   4   5
ATOM      5  C   UNL     1       6.439  -5.623  21.418  0.00  0.00    +0.413 C 
ATOM      6  F   UNL     1       7.007  -4.397  21.330  0.00  0.00    -0.168 F 
ATOM      7  F   UNL     1       6.040  -5.965  20.168  0.00  0.00    -0.168 F 
ATOM      8  F   UNL     1       7.404  -6.493  21.784  0.00  0.00    -0.168 F 
ENDBRANCH   4   5
ENDBRANCH   3   4
ENDBRANCH   2   3
ENDBRANCH   1   2
BRANCH   1   9
ATOM      9  O   UNL     1       6.362  -6.099  26.262  0.00  0.00    -0.279 OA
BRANCH   9  10
ATOM     10  P   UNL     1       5.826  -5.969  27.805  0.00  0.00    +0.475 P 
ATOM     11  O   UNL     1       5.503  -7.383  28.290  0.00  0.00    -0.227 OA
BRANCH  10  12
ATOM     12  O   UNL     1       4.200  -5.698  27.281  0.00  0.00    -0.290 OA
ATOM     13  C   UNL     1       3.626  -6.802  26.602  0.00  0.00    +0.207 C 
ENDBRANCH  10  12
BRANCH  10  14
ATOM     14  O   UNL     1       7.453  -6.241  28.329  0.00  0.00    -0.302 OA
ATOM     15  H   UNL     1       7.580  -7.194  28.147  0.00  0.00    +0.222 HD
ENDBRANCH  10  14
ENDBRANCH   9  10
ENDBRANCH   1   9
BRANCH   1  16
ATOM     16  C   UNL     1       8.370  -5.224  25.131  0.00  0.00    +0.194 C 
BRANCH  16  17
ATOM     17  O   UNL     1       8.693  -4.484  23.948  0.00  0.00    -0.377 OA
BRANCH  17  18
ATOM     18  C   UNL     1       9.341  -3.250  24.272  0.00  0.00    +0.160 C 
BRANCH  18  19
ATOM     19  C   UNL     1       9.076  -2.199  23.195  0.00  0.00    +0.028 C 
BRANCH  19  20
ATOM     20  C   UNL     1      10.331  -1.608  22.542  0.00  0.00    +0.002 C 
BRANCH  20  21
ATOM     21  C   UNL     1      10.297  -0.085  22.423  0.00  0.00    +0.000 C 
BRANCH  21  22
ATOM     22  C   UNL     1       9.175   0.375  21.491  0.00  0.00    +0.000 C 
BRANCH  22  23
ATOM     23  C   UNL     1       8.424   1.572  22.080  0.00  0.00    -0.000 C 
BRANCH  23  24
ATOM     24  C   UNL     1       8.187   1.399  23.581  0.00  0.00    -0.000 C 
BRANCH  24  25
ATOM     25  C   UNL     1       8.546   2.674  24.347  0.00  0.00    -0.000 C 
BRANCH  25  26
ATOM     26  C   UNL     1       9.784   3.348  23.758  0.00  0.00    -0.003 C 
ATOM     27  C   UNL     1       9.717   4.860  23.906  0.00  0.00    +0.004 C 
ENDBRANCH  25  26
ENDBRANCH  24  25
ENDBRANCH  23  24
ENDBRANCH  22  23
ENDBRANCH  21  22
ENDBRANCH  20  21
ENDBRANCH  19  20
ENDBRANCH  18  19
ENDBRANCH  17  18
ENDBRANCH  16  17
ENDBRANCH   1  16
TORSDOF 19
ENDMDL
MODEL 8
REMARK VINA RESULT:      -5.4      2.614      4.387
REMARK  Name = 
REMARK  21 active torsions:
REMARK  status: ('A' for Active; 'I' for Inactive)
REMARK    1  A    between atoms: C_2  and  C_3
REMARK    2  A    between atoms: C_2  and  C_15
REMARK    3  A    between atoms: C_2  and  O_22
REMARK    4  A    between atoms: C_3  and  O_4
REMARK    5  A    between atoms: O_4  and  C_5
REMARK    6  A    between atoms: C_5  and  C_6
REMARK    7  A    between atoms: C_6  and  C_7
REMARK    8  A    between atoms: C_7  and  C_8
REMARK    9  A    between atoms: C_8  and  C_9
REMARK   10  A    between atoms: C_9  and  C_10
REMARK   11  A    between atoms: C_10  and  C_11
REMARK   12  A    between atoms: C_11  and  C_12
REMARK   13  A    between atoms: C_12  and  C_13
REMARK   14  A    between atoms: C_13  and  C_14
REMARK   15  A    between atoms: C_15  and  O_16
REMARK   16  A    between atoms: O_16  and  C_17
REMARK   17  A    between atoms: C_17  and  C_18
REMARK   18  A    between atoms: O_22  and  P_23
REMARK   19  A    between atoms: P_23  and  O_24
REMARK   20  A    between atoms: P_23  and  O_26
REMARK   21  A    between atoms: O_26  and  C_27
REMARK                            x       y       z     vdW  Elec       q    Type
REMARK                         _______ _______ _______ _____ _____    ______ ____
ROOT
ATOM      1  C   UNL     1       7.645  -4.220  25.906  0.00  0.00    +0.181 C 
ENDROOT
BRANCH   1   2
ATOM      2  C   UNL     1       8.648  -5.180  25.245  0.00  0.00    +0.194 C 
BRANCH   2   3
ATOM      3  O   UNL     1       8.403  -5.234  23.832  0.00  0.00    -0.368 OA
BRANCH   3   4
ATOM      4  C   UNL     1       7.046  -4.897  23.509  0.00  0.00    +0.273 C 
BRANCH   4   5
ATOM      5  C   UNL     1       6.642  -5.287  22.082  0.00  0.00    +0.413 C 
ATOM      6  F   UNL     1       5.583  -6.131  22.097  0.00  0.00    -0.168 F 
ATOM      7  F   UNL     1       7.657  -5.936  21.460  0.00  0.00    -0.168 F 
ATOM      8  F   UNL     1       6.309  -4.229  21.312  0.00  0.00    -0.168 F 
ENDBRANCH   4   5
ENDBRANCH   3   4
ENDBRANCH   2   3
ENDBRANCH   1   2
BRANCH   1   9
ATOM      9  O   UNL     1       7.096  -4.882  27.049  0.00  0.00    -0.279 OA
BRANCH   9  10
ATOM     10  P   UNL     1       5.479  -5.119  27.172  0.00  0.00    +0.475 P 
ATOM     11  O   UNL     1       5.216  -5.731  28.548  0.00  0.00    -0.227 OA
BRANCH  10  12
ATOM     12  O   UNL     1       5.590  -6.673  26.419  0.00  0.00    -0.290 OA
ATOM     13  C   UNL     1       4.579  -6.913  25.454  0.00  0.00    +0.207 C 
ENDBRANCH  10  12
BRANCH  10  14
ATOM     14  O   UNL     1       5.369  -3.564  27.924  0.00  0.00    -0.302 OA
ATOM     15  H   UNL     1       5.187  -2.972  27.167  0.00  0.00    +0.222 HD
ENDBRANCH  10  14
ENDBRANCH   9  10
ENDBRANCH   1   9
BRANCH   1  16
ATOM     16  C   UNL     1       8.322  -2.890  26.272  0.00  0.00    +0.194 C 
BRANCH  16  17
ATOM     17  O   UNL     1       7.717  -1.777  25.605  0.00  0.00    -0.377 OA
BRANCH  17  18
ATOM     18  C   UNL     1       8.024  -0.547  26.268  0.00  0.00    +0.160 C 
BRANCH  18  19
ATOM     19  C   UNL     1       8.751   0.411  25.325  0.00  0.00    +0.028 C 
BRANCH  19  20
ATOM     20  C   UNL     1      10.280   0.308  25.347  0.00  0.00    +0.002 C 
BRANCH  20  21
ATOM     21  C   UNL     1      10.963   1.128  24.255  0.00  0.00    +0.000 C 
BRANCH  21  22
ATOM     22  C   UNL     1       9.974   2.076  23.572  0.00  0.00    +0.000 C 
BRANCH  22  23
ATOM     23  C   UNL     1       9.988   1.888  22.054  0.00  0.00    -0.000 C 
BRANCH  23  24
ATOM     24  C   UNL     1       8.888   0.927  21.599  0.00  0.00    -0.000 C 
BRANCH  24  25
ATOM     25  C   UNL     1       9.465  -0.444  21.242  0.00  0.00    -0.000 C 
BRANCH  25  26
ATOM     26  C   UNL     1       8.880  -1.543  22.127  0.00  0.00    -0.003 C 
ATOM     27  C   UNL     1       9.955  -2.210  22.969  0.00  0.00    +0.004 C 
ENDBRANCH  25  26
ENDBRANCH  24  25
ENDBRANCH  23  24
ENDBRANCH  22  23
ENDBRANCH  21  22
ENDBRANCH  20  21
ENDBRANCH  19  20
ENDBRANCH  18  19
ENDBRANCH  17  18
ENDBRANCH  16  17
ENDBRANCH   1  16
TORSDOF 19
ENDMDL
MODEL 9
REMARK VINA RESULT:      -5.4      2.375      3.871
REMARK  Name = 
REMARK  21 active torsions:
REMARK  status: ('A' for Active; 'I' for Inactive)
REMARK    1  A    between atoms: C_2  and  C_3
REMARK    2  A    between atoms: C_2  and  C_15
REMARK    3  A    between atoms: C_2  and  O_22
REMARK    4  A    between atoms: C_3  and  O_4
REMARK    5  A    between atoms: O_4  and  C_5
REMARK    6  A    between atoms: C_5  and  C_6
REMARK    7  A    between atoms: C_6  and  C_7
REMARK    8  A    between atoms: C_7  and  C_8
REMARK    9  A    between atoms: C_8  and  C_9
REMARK   10  A    between atoms: C_9  and  C_10
REMARK   11  A    between atoms: C_10  and  C_11
REMARK   12  A    between atoms: C_11  and  C_12
REMARK   13  A    between atoms: C_12  and  C_13
REMARK   14  A    between atoms: C_13  and  C_14
REMARK   15  A    between atoms: C_15  and  O_16
REMARK   16  A    between atoms: O_16  and  C_17
REMARK   17  A    between atoms: C_17  and  C_18
REMARK   18  A    between atoms: O_22  and  P_23
REMARK   19  A    between atoms: P_23  and  O_24
REMARK   20  A    between atoms: P_23  and  O_26
REMARK   21  A    between atoms: O_26  and  C_27
REMARK                            x       y       z     vdW  Elec       q    Type
REMARK                         _______ _______ _______ _____ _____    ______ ____
ROOT
ATOM      1  C   UNL     1       6.257  -3.792  25.085  0.00  0.00    +0.181 C 
ENDROOT
BRANCH   1   2
ATOM      2  C   UNL     1       7.289  -4.276  24.053  0.00  0.00    +0.194 C 
BRANCH   2   3
ATOM      3  O   UNL     1       6.987  -3.712  22.768  0.00  0.00    -0.368 OA
BRANCH   3   4
ATOM      4  C   UNL     1       5.988  -4.471  22.070  0.00  0.00    +0.273 C 
BRANCH   4   5
ATOM      5  C   UNL     1       6.537  -5.740  21.408  0.00  0.00    +0.413 C 
ATOM      6  F   UNL     1       7.871  -5.633  21.198  0.00  0.00    -0.168 F 
ATOM      7  F   UNL     1       5.960  -5.934  20.196  0.00  0.00    -0.168 F 
ATOM      8  F   UNL     1       6.327  -6.857  22.136  0.00  0.00    -0.168 F 
ENDBRANCH   4   5
ENDBRANCH   3   4
ENDBRANCH   2   3
ENDBRANCH   1   2
BRANCH   1   9
ATOM      9  O   UNL     1       6.842  -3.930  26.383  0.00  0.00    -0.279 OA
BRANCH   9  10
ATOM     10  P   UNL     1       6.352  -5.126  27.390  0.00  0.00    +0.475 P 
ATOM     11  O   UNL     1       5.974  -6.323  26.517  0.00  0.00    -0.227 OA
BRANCH  10  12
ATOM     12  O   UNL     1       4.728  -4.530  27.404  0.00  0.00    -0.290 OA
ATOM     13  C   UNL     1       4.546  -3.384  28.220  0.00  0.00    +0.207 C 
ENDBRANCH  10  12
BRANCH  10  14
ATOM     14  O   UNL     1       7.976  -5.722  27.376  0.00  0.00    -0.302 OA
ATOM     15  H   UNL     1       7.907  -6.545  27.900  0.00  0.00    +0.222 HD
ENDBRANCH  10  14
ENDBRANCH   9  10
ENDBRANCH   1   9
BRANCH   1  16
ATOM     16  C   UNL     1       5.825  -2.347  24.790  0.00  0.00    +0.194 C 
BRANCH  16  17
ATOM     17  O   UNL     1       6.456  -1.409  25.667  0.00  0.00    -0.377 OA
BRANCH  17  18
ATOM     18  C   UNL     1       7.037  -0.326  24.932  0.00  0.00    +0.160 C 
BRANCH  18  19
ATOM     19  C   UNL     1       8.513  -0.157  25.290  0.00  0.00    +0.028 C 
BRANCH  19  20
ATOM     20  C   UNL     1       9.444  -1.241  24.732  0.00  0.00    +0.002 C 
BRANCH  20  21
ATOM     21  C   UNL     1      10.317  -0.758  23.576  0.00  0.00    +0.000 C 
BRANCH  21  22
ATOM     22  C   UNL     1       9.851  -1.348  22.243  0.00  0.00    +0.000 C 
BRANCH  22  23
ATOM     23  C   UNL     1       9.397  -0.248  21.282  0.00  0.00    -0.000 C 
BRANCH  23  24
ATOM     24  C   UNL     1       9.726   1.143  21.827  0.00  0.00    -0.000 C 
BRANCH  24  25
ATOM     25  C   UNL     1       8.475   2.022  21.889  0.00  0.00    -0.000 C 
BRANCH  25  26
ATOM     26  C   UNL     1       8.477   2.907  23.134  0.00  0.00    -0.003 C 
ATOM     27  C   UNL     1       9.860   2.983  23.761  0.00  0.00    +0.004 C 
ENDBRANCH  25  26
ENDBRANCH  24  25
ENDBRANCH  23  24
ENDBRANCH  22  23
ENDBRANCH  21  22
ENDBRANCH  20  21
ENDBRANCH  19  20
ENDBRANCH  18  19
ENDBRANCH  17  18
ENDBRANCH  16  17
ENDBRANCH   1  16
TORSDOF 19
ENDMDL
