MODEL 1
REMARK VINA RESULT:      -6.5      0.000      0.000
REMARK  Name = 
REMARK  11 active torsions:
REMARK  status: ('A' for Active; 'I' for Inactive)
REMARK    1  A    between atoms: C_1  and  O_2
REMARK    2  A    between atoms: O_2  and  C_3
REMARK    3  A    between atoms: C_3  and  C_4
REMARK    4  A    between atoms: C_3  and  C_18
REMARK    5  A    between atoms: C_3  and  C_24
REMARK    6  A    between atoms: C_4  and  O_6
REMARK    7  A    between atoms: C_4  and  C_15
REMARK    8  A    between atoms: O_6  and  C_7
REMARK    9  A    between atoms: C_9  and  C_10
REMARK   10  A    between atoms: C_12  and  C_13
REMARK   11  A    between atoms: C_15  and  O_16
REMARK                            x       y       z     vdW  Elec       q    Type
REMARK                         _______ _______ _______ _____ _____    ______ ____
ROOT
ATOM      1  C   UNL     1       6.952  -4.292  25.080  0.00  0.00    +0.166 C 
ENDROOT
BRANCH   1   2
ATOM      2  C   UNL     1       5.809  -3.444  25.759  0.00  0.00    -0.007 A 
ATOM      3  C   UNL     1       4.473  -3.515  25.309  0.00  0.00    +0.007 A 
ATOM      4  C   UNL     1       3.472  -2.731  25.893  0.00  0.00    +0.000 A 
ATOM      5  C   UNL     1       3.779  -1.860  26.937  0.00  0.00    +0.000 A 
ATOM      6  C   UNL     1       5.083  -1.790  27.414  0.00  0.00    +0.000 A 
ATOM      7  C   UNL     1       6.083  -2.579  26.840  0.00  0.00    +0.007 A 
ENDBRANCH   1   2
BRANCH   1   8
ATOM      8  C   UNL     1       6.603  -4.565  23.587  0.00  0.00    -0.007 A 
ATOM      9  C   UNL     1       6.100  -3.560  22.740  0.00  0.00    +0.007 A 
ATOM     10  C   UNL     1       5.865  -3.770  21.377  0.00  0.00    +0.000 A 
ATOM     11  C   UNL     1       6.149  -5.000  20.806  0.00  0.00    +0.000 A 
ATOM     12  C   UNL     1       6.667  -6.014  21.601  0.00  0.00    +0.000 A 
ATOM     13  C   UNL     1       6.899  -5.797  22.966  0.00  0.00    +0.007 A 
ENDBRANCH   1   8
BRANCH   1  15
ATOM     14  C   UNL     1       5.731  -6.055  26.365  0.00  0.00    +0.195 C 
ATOM     15  O   UNL     1       6.944  -5.569  25.802  0.00  0.00    -0.363 OA
ENDBRANCH   1  15
BRANCH   1  16
ATOM     16  C   UNL     1       8.307  -3.521  25.383  0.00  0.00    +0.325 C 
BRANCH  16  17
ATOM     17  C   UNL     1       9.423  -4.487  25.809  0.00  0.00    +0.350 C 
ATOM     18  O   UNL     1      10.224  -4.968  25.017  0.00  0.00    -0.247 OA
BRANCH  17  19
ATOM     19  O   UNL     1       9.417  -4.875  27.110  0.00  0.00    -0.478 OA
ATOM     20  H   UNL     1       8.512  -5.038  27.466  0.00  0.00    +0.295 HD
ENDBRANCH  17  19
ENDBRANCH  16  17
BRANCH  16  21
ATOM     21  O   UNL     1       8.921  -2.905  24.241  0.00  0.00    -0.444 OA
BRANCH  21  22
ATOM     22  C   UNL     1       9.122  -1.548  24.357  0.00  0.00    +0.319 A 
ATOM     23  N   UNL     1       8.543  -0.920  25.391  0.00  0.00    -0.200 NA
ATOM     24  C   UNL     1       8.337   0.407  25.258  0.00  0.00    +0.045 A 
ATOM     25  C   UNL     1       7.498   1.074  26.307  0.00  0.00    +0.066 C 
ATOM     26  C   UNL     1       8.744   1.106  24.140  0.00  0.00    +0.046 A 
ATOM     27  C   UNL     1       9.380   0.378  23.153  0.00  0.00    +0.045 A 
ATOM     28  C   UNL     1       9.858   1.063  21.908  0.00  0.00    +0.066 C 
ATOM     29  N   UNL     1       9.538  -0.958  23.231  0.00  0.00    -0.200 NA
ENDBRANCH  21  22
ENDBRANCH  16  21
ENDBRANCH   1  16
TORSDOF 8
ENDMDL
MODEL 2
REMARK VINA RESULT:      -6.5      1.610      2.126
REMARK  Name = 
REMARK  11 active torsions:
REMARK  status: ('A' for Active; 'I' for Inactive)
REMARK    1  A    between atoms: C_1  and  O_2
REMARK    2  A    between atoms: O_2  and  C_3
REMARK    3  A    between atoms: C_3  and  C_4
REMARK    4  A    between atoms: C_3  and  C_18
REMARK    5  A    between atoms: C_3  and  C_24
REMARK    6  A    between atoms: C_4  and  O_6
REMARK    7  A    between atoms: C_4  and  C_15
REMARK    8  A    between atoms: O_6  and  C_7
REMARK    9  A    between atoms: C_9  and  C_10
REMARK   10  A    between atoms: C_12  and  C_13
REMARK   11  A    between atoms: C_15  and  O_16
REMARK                            x       y       z     vdW  Elec       q    Type
REMARK                         _______ _______ _______ _____ _____    ______ ____
ROOT
ATOM      1  C   UNL     1       7.148  -3.632  25.740  0.00  0.00    +0.166 C 
ENDROOT
BRANCH   1   2
ATOM      2  C   UNL     1       6.714  -2.158  26.096  0.00  0.00    -0.007 A 
ATOM      3  C   UNL     1       5.413  -1.686  25.820  0.00  0.00    +0.007 A 
ATOM      4  C   UNL     1       5.047  -0.366  26.105  0.00  0.00    +0.000 A 
ATOM      5  C   UNL     1       5.969   0.512  26.672  0.00  0.00    +0.000 A 
ATOM      6  C   UNL     1       7.250   0.065  26.976  0.00  0.00    +0.000 A 
ATOM      7  C   UNL     1       7.614  -1.256  26.702  0.00  0.00    +0.007 A 
ENDBRANCH   1   2
BRANCH   1   8
ATOM      8  C   UNL     1       6.066  -4.309  24.847  0.00  0.00    -0.007 A 
ATOM      9  C   UNL     1       5.467  -3.643  23.763  0.00  0.00    +0.007 A 
ATOM     10  C   UNL     1       4.559  -4.269  22.902  0.00  0.00    +0.000 A 
ATOM     11  C   UNL     1       4.233  -5.603  23.088  0.00  0.00    +0.000 A 
ATOM     12  C   UNL     1       4.818  -6.305  24.135  0.00  0.00    +0.000 A 
ATOM     13  C   UNL     1       5.726  -5.670  24.994  0.00  0.00    +0.007 A 
ENDBRANCH   1   8
BRANCH   1  15
ATOM     14  C   UNL     1       6.026  -4.375  27.846  0.00  0.00    +0.195 C 
ATOM     15  O   UNL     1       7.191  -4.327  27.031  0.00  0.00    -0.363 OA
ENDBRANCH   1  15
BRANCH   1  16
ATOM     16  C   UNL     1       8.618  -3.523  25.148  0.00  0.00    +0.325 C 
BRANCH  16  17
ATOM     17  C   UNL     1       9.342  -4.878  25.183  0.00  0.00    +0.350 C 
ATOM     18  O   UNL     1       9.294  -5.680  24.259  0.00  0.00    -0.247 OA
BRANCH  17  19
ATOM     19  O   UNL     1       9.960  -5.199  26.348  0.00  0.00    -0.478 OA
ATOM     20  H   UNL     1      10.755  -4.646  26.535  0.00  0.00    +0.295 HD
ENDBRANCH  17  19
ENDBRANCH  16  17
BRANCH  16  21
ATOM     21  O   UNL     1       8.685  -3.231  23.745  0.00  0.00    -0.444 OA
BRANCH  21  22
ATOM     22  C   UNL     1       8.917  -1.908  23.442  0.00  0.00    +0.319 A 
ATOM     23  N   UNL     1      10.041  -1.350  23.916  0.00  0.00    -0.200 NA
ATOM     24  C   UNL     1      10.048  -0.006  24.035  0.00  0.00    +0.045 A 
ATOM     25  C   UNL     1      11.207   0.606  24.764  0.00  0.00    +0.066 C 
ATOM     26  C   UNL     1       8.979   0.773  23.643  0.00  0.00    +0.046 A 
ATOM     27  C   UNL     1       7.888   0.108  23.116  0.00  0.00    +0.045 A 
ATOM     28  C   UNL     1       6.687   0.880  22.662  0.00  0.00    +0.066 C 
ATOM     29  N   UNL     1       7.828  -1.237  23.050  0.00  0.00    -0.200 NA
ENDBRANCH  21  22
ENDBRANCH  16  21
ENDBRANCH   1  16
TORSDOF 8
ENDMDL
MODEL 3
REMARK VINA RESULT:      -6.3      2.259      5.709
REMARK  Name = 
REMARK  11 active torsions:
REMARK  status: ('A' for Active; 'I' for Inactive)
REMARK    1  A    between atoms: C_1  and  O_2
REMARK    2  A    between atoms: O_2  and  C_3
REMARK    3  A    between atoms: C_3  and  C_4
REMARK    4  A    between atoms: C_3  and  C_18
REMARK    5  A    between atoms: C_3  and  C_24
REMARK    6  A    between atoms: C_4  and  O_6
REMARK    7  A    between atoms: C_4  and  C_15
REMARK    8  A    between atoms: O_6  and  C_7
REMARK    9  A    between atoms: C_9  and  C_10
REMARK   10  A    between atoms: C_12  and  C_13
REMARK   11  A    between atoms: C_15  and  O_16
REMARK                            x       y       z     vdW  Elec       q    Type
REMARK                         _______ _______ _______ _____ _____    ______ ____
ROOT
ATOM      1  C   UNL     1       8.279  -3.300  24.031  0.00  0.00    +0.166 C 
ENDROOT
BRANCH   1   2
ATOM      2  C   UNL     1       7.507  -4.175  22.969  0.00  0.00    -0.007 A 
ATOM      3  C   UNL     1       6.777  -3.582  21.917  0.00  0.00    +0.007 A 
ATOM      4  C   UNL     1       6.064  -4.364  21.001  0.00  0.00    +0.000 A 
ATOM      5  C   UNL     1       6.066  -5.754  21.113  0.00  0.00    +0.000 A 
ATOM      6  C   UNL     1       6.797  -6.363  22.125  0.00  0.00    +0.000 A 
ATOM      7  C   UNL     1       7.518  -5.585  23.035  0.00  0.00    +0.007 A 
ENDBRANCH   1   2
BRANCH   1   8
ATOM      8  C   UNL     1       8.768  -1.973  23.380  0.00  0.00    -0.007 A 
ATOM      9  C   UNL     1      10.106  -1.778  22.992  0.00  0.00    +0.007 A 
ATOM     10  C   UNL     1      10.538  -0.625  22.328  0.00  0.00    +0.000 A 
ATOM     11  C   UNL     1       9.632   0.373  22.008  0.00  0.00    +0.000 A 
ATOM     12  C   UNL     1       8.296   0.212  22.354  0.00  0.00    +0.000 A 
ATOM     13  C   UNL     1       7.870  -0.945  23.021  0.00  0.00    +0.007 A 
ENDBRANCH   1   8
BRANCH   1  15
ATOM     14  C   UNL     1       9.438  -4.882  25.581  0.00  0.00    +0.195 C 
ATOM     15  O   UNL     1       9.452  -4.104  24.390  0.00  0.00    -0.363 OA
ENDBRANCH   1  15
BRANCH   1  16
ATOM     16  C   UNL     1       7.313  -3.184  25.286  0.00  0.00    +0.325 C 
BRANCH  16  17
ATOM     17  C   UNL     1       7.649  -1.955  26.144  0.00  0.00    +0.350 C 
ATOM     18  O   UNL     1       8.706  -1.839  26.753  0.00  0.00    -0.247 OA
BRANCH  17  19
ATOM     19  O   UNL     1       6.661  -1.034  26.289  0.00  0.00    -0.478 OA
ATOM     20  H   UNL     1       6.937  -0.243  26.808  0.00  0.00    +0.295 HD
ENDBRANCH  17  19
ENDBRANCH  16  17
BRANCH  16  21
ATOM     21  O   UNL     1       5.940  -2.910  24.970  0.00  0.00    -0.444 OA
BRANCH  21  22
ATOM     22  C   UNL     1       5.067  -3.935  25.257  0.00  0.00    +0.319 A 
ATOM     23  N   UNL     1       5.309  -4.669  26.354  0.00  0.00    -0.200 NA
ATOM     24  C   UNL     1       4.777  -5.908  26.384  0.00  0.00    +0.045 A 
ATOM     25  C   UNL     1       5.221  -6.811  27.498  0.00  0.00    +0.066 C 
ATOM     26  C   UNL     1       3.979  -6.392  25.369  0.00  0.00    +0.046 A 
ATOM     27  C   UNL     1       3.744  -5.540  24.307  0.00  0.00    +0.045 A 
ATOM     28  C   UNL     1       2.884  -5.986  23.164  0.00  0.00    +0.066 C 
ATOM     29  N   UNL     1       4.318  -4.323  24.219  0.00  0.00    -0.200 NA
ENDBRANCH  21  22
ENDBRANCH  16  21
ENDBRANCH   1  16
TORSDOF 8
ENDMDL
MODEL 4
REMARK VINA RESULT:      -6.2      2.631      6.437
REMARK  Name = 
REMARK  11 active torsions:
REMARK  status: ('A' for Active; 'I' for Inactive)
REMARK    1  A    between atoms: C_1  and  O_2
REMARK    2  A    between atoms: O_2  and  C_3
REMARK    3  A    between atoms: C_3  and  C_4
REMARK    4  A    between atoms: C_3  and  C_18
REMARK    5  A    between atoms: C_3  and  C_24
REMARK    6  A    between atoms: C_4  and  O_6
REMARK    7  A    between atoms: C_4  and  C_15
REMARK    8  A    between atoms: O_6  and  C_7
REMARK    9  A    between atoms: C_9  and  C_10
REMARK   10  A    between atoms: C_12  and  C_13
REMARK   11  A    between atoms: C_15  and  O_16
REMARK                            x       y       z     vdW  Elec       q    Type
REMARK                         _______ _______ _______ _____ _____    ______ ____
ROOT
ATOM      1  C   UNL     1       8.407   1.121  24.043  0.00  0.00    +0.166 C 
ENDROOT
BRANCH   1   2
ATOM      2  C   UNL     1       7.714   2.453  23.561  0.00  0.00    -0.007 A 
ATOM      3  C   UNL     1       6.407   2.455  23.032  0.00  0.00    +0.007 A 
ATOM      4  C   UNL     1       5.814   3.637  22.572  0.00  0.00    +0.000 A 
ATOM      5  C   UNL     1       6.512   4.842  22.630  0.00  0.00    +0.000 A 
ATOM      6  C   UNL     1       7.793   4.871  23.169  0.00  0.00    +0.000 A 
ATOM      7  C   UNL     1       8.382   3.695  23.639  0.00  0.00    +0.007 A 
ENDBRANCH   1   2
BRANCH   1   8
ATOM      8  C   UNL     1       7.640   0.529  25.263  0.00  0.00    -0.007 A 
ATOM      9  C   UNL     1       7.393   1.278  26.427  0.00  0.00    +0.007 A 
ATOM     10  C   UNL     1       6.631   0.788  27.492  0.00  0.00    +0.000 A 
ATOM     11  C   UNL     1       6.068  -0.476  27.419  0.00  0.00    +0.000 A 
ATOM     12  C   UNL     1       6.269  -1.243  26.278  0.00  0.00    +0.000 A 
ATOM     13  C   UNL     1       7.035  -0.745  25.215  0.00  0.00    +0.007 A 
ENDBRANCH   1   8
BRANCH   1  15
ATOM     14  C   UNL     1      10.631   0.576  25.046  0.00  0.00    +0.195 C 
ATOM     15  O   UNL     1       9.741   1.536  24.488  0.00  0.00    -0.363 OA
ENDBRANCH   1  15
BRANCH   1  16
ATOM     16  C   UNL     1       8.540   0.205  22.752  0.00  0.00    +0.325 C 
BRANCH  16  17
ATOM     17  C   UNL     1       9.030   1.009  21.539  0.00  0.00    +0.350 C 
ATOM     18  O   UNL     1       8.405   1.073  20.487  0.00  0.00    -0.247 OA
BRANCH  17  19
ATOM     19  O   UNL     1      10.263   1.569  21.647  0.00  0.00    -0.478 OA
ATOM     20  H   UNL     1      10.971   0.918  21.862  0.00  0.00    +0.295 HD
ENDBRANCH  17  19
ENDBRANCH  16  17
BRANCH  16  21
ATOM     21  O   UNL     1       9.562  -0.800  22.826  0.00  0.00    -0.444 OA
BRANCH  21  22
ATOM     22  C   UNL     1       9.094  -2.094  22.877  0.00  0.00    +0.319 A 
ATOM     23  N   UNL     1       7.979  -2.379  22.189  0.00  0.00    -0.200 NA
ATOM     24  C   UNL     1       7.275  -3.457  22.594  0.00  0.00    +0.045 A 
ATOM     25  C   UNL     1       5.921  -3.655  21.979  0.00  0.00    +0.066 C 
ATOM     26  C   UNL     1       7.697  -4.265  23.630  0.00  0.00    +0.046 A 
ATOM     27  C   UNL     1       8.887  -3.918  24.239  0.00  0.00    +0.045 A 
ATOM     28  C   UNL     1       9.419  -4.746  25.370  0.00  0.00    +0.066 C 
ATOM     29  N   UNL     1       9.575  -2.809  23.900  0.00  0.00    -0.200 NA
ENDBRANCH  21  22
ENDBRANCH  16  21
ENDBRANCH   1  16
TORSDOF 8
ENDMDL
MODEL 5
REMARK VINA RESULT:      -6.2      2.333      6.028
REMARK  Name = 
REMARK  11 active torsions:
REMARK  status: ('A' for Active; 'I' for Inactive)
REMARK    1  A    between atoms: C_1  and  O_2
REMARK    2  A    between atoms: O_2  and  C_3
REMARK    3  A    between atoms: C_3  and  C_4
REMARK    4  A    between atoms: C_3  and  C_18
REMARK    5  A    between atoms: C_3  and  C_24
REMARK    6  A    between atoms: C_4  and  O_6
REMARK    7  A    between atoms: C_4  and  C_15
REMARK    8  A    between atoms: O_6  and  C_7
REMARK    9  A    between atoms: C_9  and  C_10
REMARK   10  A    between atoms: C_12  and  C_13
REMARK   11  A    between atoms: C_15  and  O_16
REMARK                            x       y       z     vdW  Elec       q    Type
REMARK                         _______ _______ _______ _____ _____    ______ ____
ROOT
ATOM      1  C   UNL     1       8.441  -3.368  24.080  0.00  0.00    +0.166 C 
ENDROOT
BRANCH   1   2
ATOM      2  C   UNL     1       7.613  -4.148  22.988  0.00  0.00    -0.007 A 
ATOM      3  C   UNL     1       6.654  -3.495  22.184  0.00  0.00    +0.007 A 
ATOM      4  C   UNL     1       5.897  -4.203  21.243  0.00  0.00    +0.000 A 
ATOM      5  C   UNL     1       6.080  -5.575  21.082  0.00  0.00    +0.000 A 
ATOM      6  C   UNL     1       7.034  -6.238  21.845  0.00  0.00    +0.000 A 
ATOM      7  C   UNL     1       7.799  -5.532  22.778  0.00  0.00    +0.007 A 
ENDBRANCH   1   2
BRANCH   1   8
ATOM      8  C   UNL     1       9.086  -2.095  23.456  0.00  0.00    -0.007 A 
ATOM      9  C   UNL     1       8.734  -1.628  22.177  0.00  0.00    +0.007 A 
ATOM     10  C   UNL     1       9.241  -0.439  21.642  0.00  0.00    +0.000 A 
ATOM     11  C   UNL     1      10.112   0.340  22.386  0.00  0.00    +0.000 A 
ATOM     12  C   UNL     1      10.471  -0.073  23.663  0.00  0.00    +0.000 A 
ATOM     13  C   UNL     1       9.959  -1.267  24.191  0.00  0.00    +0.007 A 
ENDBRANCH   1   8
BRANCH   1  15
ATOM     14  C   UNL     1       9.583  -4.776  25.801  0.00  0.00    +0.195 C 
ATOM     15  O   UNL     1       9.512  -4.294  24.464  0.00  0.00    -0.363 OA
ENDBRANCH   1  15
BRANCH   1  16
ATOM     16  C   UNL     1       7.457  -3.159  25.308  0.00  0.00    +0.325 C 
BRANCH  16  17
ATOM     17  C   UNL     1       7.131  -1.673  25.524  0.00  0.00    +0.350 C 
ATOM     18  O   UNL     1       7.600  -1.017  26.446  0.00  0.00    -0.247 OA
BRANCH  17  19
ATOM     19  O   UNL     1       6.199  -1.136  24.695  0.00  0.00    -0.478 OA
ATOM     20  H   UNL     1       5.490  -1.771  24.440  0.00  0.00    +0.295 HD
ENDBRANCH  17  19
ENDBRANCH  16  17
BRANCH  16  21
ATOM     21  O   UNL     1       6.136  -3.688  25.123  0.00  0.00    -0.444 OA
BRANCH  21  22
ATOM     22  C   UNL     1       5.898  -4.883  25.764  0.00  0.00    +0.319 A 
ATOM     23  N   UNL     1       5.119  -5.779  25.140  0.00  0.00    -0.200 NA
ATOM     24  C   UNL     1       4.514  -6.701  25.917  0.00  0.00    +0.045 A 
ATOM     25  C   UNL     1       3.475  -7.564  25.263  0.00  0.00    +0.066 C 
ATOM     26  C   UNL     1       4.717  -6.764  27.280  0.00  0.00    +0.046 A 
ATOM     27  C   UNL     1       5.580  -5.830  27.821  0.00  0.00    +0.045 A 
ATOM     28  C   UNL     1       5.860  -5.832  29.293  0.00  0.00    +0.066 C 
ATOM     29  N   UNL     1       6.145  -4.857  27.079  0.00  0.00    -0.200 NA
ENDBRANCH  21  22
ENDBRANCH  16  21
ENDBRANCH   1  16
TORSDOF 8
ENDMDL
MODEL 6
REMARK VINA RESULT:      -6.2      2.552      5.933
REMARK  Name = 
REMARK  11 active torsions:
REMARK  status: ('A' for Active; 'I' for Inactive)
REMARK    1  A    between atoms: C_1  and  O_2
REMARK    2  A    between atoms: O_2  and  C_3
REMARK    3  A    between atoms: C_3  and  C_4
REMARK    4  A    between atoms: C_3  and  C_18
REMARK    5  A    between atoms: C_3  and  C_24
REMARK    6  A    between atoms: C_4  and  O_6
REMARK    7  A    between atoms: C_4  and  C_15
REMARK    8  A    between atoms: O_6  and  C_7
REMARK    9  A    between atoms: C_9  and  C_10
REMARK   10  A    between atoms: C_12  and  C_13
REMARK   11  A    between atoms: C_15  and  O_16
REMARK                            x       y       z     vdW  Elec       q    Type
REMARK                         _______ _______ _______ _____ _____    ______ ____
ROOT
ATOM      1  C   UNL     1       7.886  -0.419  25.074  0.00  0.00    +0.166 C 
ENDROOT
BRANCH   1   2
ATOM      2  C   UNL     1       8.500  -1.865  25.204  0.00  0.00    -0.007 A 
ATOM      3  C   UNL     1       9.389  -2.379  24.236  0.00  0.00    +0.007 A 
ATOM      4  C   UNL     1       9.899  -3.678  24.340  0.00  0.00    +0.000 A 
ATOM      5  C   UNL     1       9.536  -4.492  25.411  0.00  0.00    +0.000 A 
ATOM      6  C   UNL     1       8.681  -4.002  26.391  0.00  0.00    +0.000 A 
ATOM      7  C   UNL     1       8.178  -2.702  26.295  0.00  0.00    +0.007 A 
ENDBRANCH   1   2
BRANCH   1   8
ATOM      8  C   UNL     1       8.721   0.430  24.070  0.00  0.00    -0.007 A 
ATOM      9  C   UNL     1       9.554   1.483  24.491  0.00  0.00    +0.007 A 
ATOM     10  C   UNL     1      10.374   2.194  23.609  0.00  0.00    +0.000 A 
ATOM     11  C   UNL     1      10.403   1.859  22.265  0.00  0.00    +0.000 A 
ATOM     12  C   UNL     1       9.612   0.812  21.809  0.00  0.00    +0.000 A 
ATOM     13  C   UNL     1       8.791   0.105  22.699  0.00  0.00    +0.007 A 
ENDBRANCH   1   8
BRANCH   1  15
ATOM     14  C   UNL     1       7.041  -0.085  27.403  0.00  0.00    +0.195 C 
ATOM     15  O   UNL     1       8.031   0.166  26.412  0.00  0.00    -0.363 OA
ENDBRANCH   1  15
BRANCH   1  16
ATOM     16  C   UNL     1       6.346  -0.624  24.750  0.00  0.00    +0.325 C 
BRANCH  16  17
ATOM     17  C   UNL     1       5.635   0.717  24.513  0.00  0.00    +0.350 C 
ATOM     18  O   UNL     1       4.915   1.245  25.352  0.00  0.00    -0.247 OA
BRANCH  17  19
ATOM     19  O   UNL     1       5.755   1.249  23.269  0.00  0.00    -0.478 OA
ATOM     20  H   UNL     1       5.295   2.115  23.168  0.00  0.00    +0.295 HD
ENDBRANCH  17  19
ENDBRANCH  16  17
BRANCH  16  21
ATOM     21  O   UNL     1       6.072  -1.285  23.505  0.00  0.00    -0.444 OA
BRANCH  21  22
ATOM     22  C   UNL     1       5.708  -2.608  23.623  0.00  0.00    +0.319 A 
ATOM     23  N   UNL     1       5.023  -2.968  24.719  0.00  0.00    -0.200 NA
ATOM     24  C   UNL     1       5.077  -4.271  25.066  0.00  0.00    +0.045 A 
ATOM     25  C   UNL     1       4.503  -4.643  26.401  0.00  0.00    +0.066 C 
ATOM     26  C   UNL     1       5.756  -5.206  24.312  0.00  0.00    +0.046 A 
ATOM     27  C   UNL     1       6.384  -4.744  23.172  0.00  0.00    +0.045 A 
ATOM     28  C   UNL     1       7.140  -5.696  22.295  0.00  0.00    +0.066 C 
ATOM     29  N   UNL     1       6.403  -3.438  22.838  0.00  0.00    -0.200 NA
ENDBRANCH  21  22
ENDBRANCH  16  21
ENDBRANCH   1  16
TORSDOF 8
ENDMDL
MODEL 7
REMARK VINA RESULT:      -6.2      2.232      5.623
REMARK  Name = 
REMARK  11 active torsions:
REMARK  status: ('A' for Active; 'I' for Inactive)
REMARK    1  A    between atoms: C_1  and  O_2
REMARK    2  A    between atoms: O_2  and  C_3
REMARK    3  A    between atoms: C_3  and  C_4
REMARK    4  A    between atoms: C_3  and  C_18
REMARK    5  A    between atoms: C_3  and  C_24
REMARK    6  A    between atoms: C_4  and  O_6
REMARK    7  A    between atoms: C_4  and  C_15
REMARK    8  A    between atoms: O_6  and  C_7
REMARK    9  A    between atoms: C_9  and  C_10
REMARK   10  A    between atoms: C_12  and  C_13
REMARK   11  A    between atoms: C_15  and  O_16
REMARK                            x       y       z     vdW  Elec       q    Type
REMARK                         _______ _______ _______ _____ _____    ______ ____
ROOT
ATOM      1  C   UNL     1       8.364  -1.425  24.052  0.00  0.00    +0.166 C 
ENDROOT
BRANCH   1   2
ATOM      2  C   UNL     1       7.780  -2.725  23.376  0.00  0.00    -0.007 A 
ATOM      3  C   UNL     1       6.873  -2.650  22.298  0.00  0.00    +0.007 A 
ATOM      4  C   UNL     1       6.330  -3.808  21.728  0.00  0.00    +0.000 A 
ATOM      5  C   UNL     1       6.680  -5.064  22.220  0.00  0.00    +0.000 A 
ATOM      6  C   UNL     1       7.590  -5.165  23.266  0.00  0.00    +0.000 A 
ATOM      7  C   UNL     1       8.141  -4.012  23.830  0.00  0.00    +0.007 A 
ENDBRANCH   1   2
BRANCH   1   8
ATOM      8  C   UNL     1       8.027  -0.173  23.189  0.00  0.00    -0.007 A 
ATOM      9  C   UNL     1       6.803   0.510  23.308  0.00  0.00    +0.007 A 
ATOM     10  C   UNL     1       6.524   1.685  22.602  0.00  0.00    +0.000 A 
ATOM     11  C   UNL     1       7.478   2.232  21.759  0.00  0.00    +0.000 A 
ATOM     12  C   UNL     1       8.709   1.601  21.628  0.00  0.00    +0.000 A 
ATOM     13  C   UNL     1       8.981   0.423  22.338  0.00  0.00    +0.007 A 
ENDBRANCH   1   8
BRANCH   1  15
ATOM     14  C   UNL     1      10.483  -1.896  22.811  0.00  0.00    +0.195 C 
ATOM     15  O   UNL     1       9.818  -1.623  24.040  0.00  0.00    -0.363 OA
ENDBRANCH   1  15
BRANCH   1  16
ATOM     16  C   UNL     1       7.841  -1.439  25.551  0.00  0.00    +0.325 C 
BRANCH  16  17
ATOM     17  C   UNL     1       8.333  -0.211  26.332  0.00  0.00    +0.350 C 
ATOM     18  O   UNL     1       7.573   0.560  26.906  0.00  0.00    -0.247 OA
BRANCH  17  19
ATOM     19  O   UNL     1       9.665   0.048  26.268  0.00  0.00    -0.478 OA
ATOM     20  H   UNL     1       9.995   0.589  27.024  0.00  0.00    +0.295 HD
ENDBRANCH  17  19
ENDBRANCH  16  17
BRANCH  16  21
ATOM     21  O   UNL     1       6.422  -1.286  25.698  0.00  0.00    -0.444 OA
BRANCH  21  22
ATOM     22  C   UNL     1       5.746  -2.447  26.005  0.00  0.00    +0.319 A 
ATOM     23  N   UNL     1       6.318  -3.285  26.882  0.00  0.00    -0.200 NA
ATOM     24  C   UNL     1       5.928  -4.576  26.829  0.00  0.00    +0.045 A 
ATOM     25  C   UNL     1       6.714  -5.557  27.648  0.00  0.00    +0.066 C 
ATOM     26  C   UNL     1       4.954  -5.016  25.957  0.00  0.00    +0.046 A 
ATOM     27  C   UNL     1       4.387  -4.064  25.131  0.00  0.00    +0.045 A 
ATOM     28  C   UNL     1       3.318  -4.458  24.157  0.00  0.00    +0.066 C 
ATOM     29  N   UNL     1       4.805  -2.782  25.116  0.00  0.00    -0.200 NA
ENDBRANCH  21  22
ENDBRANCH  16  21
ENDBRANCH   1  16
TORSDOF 8
ENDMDL
MODEL 8
REMARK VINA RESULT:      -6.1      2.118      5.731
REMARK  Name = 
REMARK  11 active torsions:
REMARK  status: ('A' for Active; 'I' for Inactive)
REMARK    1  A    between atoms: C_1  and  O_2
REMARK    2  A    between atoms: O_2  and  C_3
REMARK    3  A    between atoms: C_3  and  C_4
REMARK    4  A    between atoms: C_3  and  C_18
REMARK    5  A    between atoms: C_3  and  C_24
REMARK    6  A    between atoms: C_4  and  O_6
REMARK    7  A    between atoms: C_4  and  C_15
REMARK    8  A    between atoms: O_6  and  C_7
REMARK    9  A    between atoms: C_9  and  C_10
REMARK   10  A    between atoms: C_12  and  C_13
REMARK   11  A    between atoms: C_15  and  O_16
REMARK                            x       y       z     vdW  Elec       q    Type
REMARK                         _______ _______ _______ _____ _____    ______ ____
ROOT
ATOM      1  C   UNL     1       8.056  -0.268  24.662  0.00  0.00    +0.166 C 
ENDROOT
BRANCH   1   2
ATOM      2  C   UNL     1       7.811   1.079  23.880  0.00  0.00    -0.007 A 
ATOM      3  C   UNL     1       6.950   1.138  22.764  0.00  0.00    +0.007 A 
ATOM      4  C   UNL     1       6.767   2.330  22.054  0.00  0.00    +0.000 A 
ATOM      5  C   UNL     1       7.438   3.489  22.441  0.00  0.00    +0.000 A 
ATOM      6  C   UNL     1       8.273   3.463  23.552  0.00  0.00    +0.000 A 
ATOM      7  C   UNL     1       8.449   2.277  24.269  0.00  0.00    +0.007 A 
ENDBRANCH   1   2
BRANCH   1   8
ATOM      8  C   UNL     1       6.717  -0.790  25.265  0.00  0.00    -0.007 A 
ATOM      9  C   UNL     1       6.037  -0.100  26.284  0.00  0.00    +0.007 A 
ATOM     10  C   UNL     1       4.792  -0.511  26.772  0.00  0.00    +0.000 A 
ATOM     11  C   UNL     1       4.171  -1.628  26.237  0.00  0.00    +0.000 A 
ATOM     12  C   UNL     1       4.798  -2.327  25.213  0.00  0.00    +0.000 A 
ATOM     13  C   UNL     1       6.047  -1.910  24.730  0.00  0.00    +0.007 A 
ENDBRANCH   1   8
BRANCH   1  15
ATOM     14  C   UNL     1       8.927  -0.648  26.974  0.00  0.00    +0.195 C 
ATOM     15  O   UNL     1       8.952   0.100  25.764  0.00  0.00    -0.363 OA
ENDBRANCH   1  15
BRANCH   1  16
ATOM     16  C   UNL     1       8.822  -1.226  23.653  0.00  0.00    +0.325 C 
BRANCH  16  17
ATOM     17  C   UNL     1       9.887  -0.464  22.851  0.00  0.00    +0.350 C 
ATOM     18  O   UNL     1       9.871  -0.390  21.628  0.00  0.00    -0.247 OA
BRANCH  17  19
ATOM     19  O   UNL     1      10.927   0.044  23.562  0.00  0.00    -0.478 OA
ATOM     20  H   UNL     1      11.806  -0.275  23.251  0.00  0.00    +0.295 HD
ENDBRANCH  17  19
ENDBRANCH  16  17
BRANCH  16  21
ATOM     21  O   UNL     1       9.637  -2.231  24.274  0.00  0.00    -0.444 OA
BRANCH  21  22
ATOM     22  C   UNL     1       9.065  -3.482  24.331  0.00  0.00    +0.319 A 
ATOM     23  N   UNL     1       8.539  -3.977  23.200  0.00  0.00    -0.200 NA
ATOM     24  C   UNL     1       7.599  -4.935  23.337  0.00  0.00    +0.045 A 
ATOM     25  C   UNL     1       6.851  -5.336  22.100  0.00  0.00    +0.066 C 
ATOM     26  C   UNL     1       7.224  -5.428  24.570  0.00  0.00    +0.046 A 
ATOM     27  C   UNL     1       7.863  -4.891  25.671  0.00  0.00    +0.045 A 
ATOM     28  C   UNL     1       7.517  -5.374  27.047  0.00  0.00    +0.066 C 
ATOM     29  N   UNL     1       8.756  -3.886  25.568  0.00  0.00    -0.200 NA
ENDBRANCH  21  22
ENDBRANCH  16  21
ENDBRANCH   1  16
TORSDOF 8
ENDMDL
MODEL 9
REMARK VINA RESULT:      -6.1      2.316      5.881
REMARK  Name = 
REMARK  11 active torsions:
REMARK  status: ('A' for Active; 'I' for Inactive)
REMARK    1  A    between atoms: C_1  and  O_2
REMARK    2  A    between atoms: O_2  and  C_3
REMARK    3  A    between atoms: C_3  and  C_4
REMARK    4  A    between atoms: C_3  and  C_18
REMARK    5  A    between atoms: C_3  and  C_24
REMARK    6  A    between atoms: C_4  and  O_6
REMARK    7  A    between atoms: C_4  and  C_15
REMARK    8  A    between atoms: O_6  and  C_7
REMARK    9  A    between atoms: C_9  and  C_10
REMARK   10  A    between atoms: C_12  and  C_13
REMARK   11  A    between atoms: C_15  and  O_16
REMARK                            x       y       z     vdW  Elec       q    Type
REMARK                         _______ _______ _______ _____ _____    ______ ____
ROOT
ATOM      1  C   UNL     1       8.135  -3.440  24.407  0.00  0.00    +0.166 C 
ENDROOT
BRANCH   1   2
ATOM      2  C   UNL     1       7.438  -4.092  23.152  0.00  0.00    -0.007 A 
ATOM      3  C   UNL     1       6.703  -3.315  22.231  0.00  0.00    +0.007 A 
ATOM      4  C   UNL     1       6.057  -3.907  21.140  0.00  0.00    +0.000 A 
ATOM      5  C   UNL     1       6.128  -5.286  20.944  0.00  0.00    +0.000 A 
ATOM      6  C   UNL     1       6.865  -6.070  21.823  0.00  0.00    +0.000 A 
ATOM      7  C   UNL     1       7.520  -5.480  22.907  0.00  0.00    +0.007 A 
ENDBRANCH   1   2
BRANCH   1   8
ATOM      8  C   UNL     1       7.519  -2.038  24.696  0.00  0.00    -0.007 A 
ATOM      9  C   UNL     1       6.131  -1.812  24.671  0.00  0.00    +0.007 A 
ATOM     10  C   UNL     1       5.562  -0.581  25.013  0.00  0.00    +0.000 A 
ATOM     11  C   UNL     1       6.370   0.470  25.415  0.00  0.00    +0.000 A 
ATOM     12  C   UNL     1       7.746   0.284  25.473  0.00  0.00    +0.000 A 
ATOM     13  C   UNL     1       8.309  -0.953  25.127  0.00  0.00    +0.007 A 
ENDBRANCH   1   8
BRANCH   1  15
ATOM     14  C   UNL     1       9.862  -2.305  23.001  0.00  0.00    +0.195 C 
ATOM     15  O   UNL     1       9.534  -3.261  24.002  0.00  0.00    -0.363 OA
ENDBRANCH   1  15
BRANCH   1  16
ATOM     16  C   UNL     1       8.054  -4.524  25.565  0.00  0.00    +0.325 C 
BRANCH  16  17
ATOM     17  C   UNL     1       9.451  -4.940  26.048  0.00  0.00    +0.350 C 
ATOM     18  O   UNL     1       9.950  -4.516  27.083  0.00  0.00    -0.247 OA
BRANCH  17  19
ATOM     19  O   UNL     1      10.166  -5.731  25.206  0.00  0.00    -0.478 OA
ATOM     20  H   UNL     1      10.875  -6.245  25.660  0.00  0.00    +0.295 HD
ENDBRANCH  17  19
ENDBRANCH  16  17
BRANCH  16  21
ATOM     21  O   UNL     1       7.485  -4.053  26.796  0.00  0.00    -0.444 OA
BRANCH  21  22
ATOM     22  C   UNL     1       6.375  -4.748  27.221  0.00  0.00    +0.319 A 
ATOM     23  N   UNL     1       6.255  -4.983  28.535  0.00  0.00    -0.200 NA
ATOM     24  C   UNL     1       5.471  -6.021  28.897  0.00  0.00    +0.045 A 
ATOM     25  C   UNL     1       5.505  -6.427  30.341  0.00  0.00    +0.066 C 
ATOM     26  C   UNL     1       4.780  -6.778  27.973  0.00  0.00    +0.046 A 
ATOM     27  C   UNL     1       4.927  -6.422  26.647  0.00  0.00    +0.045 A 
ATOM     28  C   UNL     1       4.208  -7.191  25.580  0.00  0.00    +0.066 C 
ATOM     29  N   UNL     1       5.756  -5.434  26.253  0.00  0.00    -0.200 NA
ENDBRANCH  21  22
ENDBRANCH  16  21
ENDBRANCH   1  16
TORSDOF 8
ENDMDL
