MODEL 1
REMARK VINA RESULT:      -7.6      0.000      0.000
REMARK  Name = 
REMARK  11 active torsions:
REMARK  status: ('A' for Active; 'I' for Inactive)
REMARK    1  A    between atoms: C_1  and  C_2
REMARK    2  A    between atoms: C_4  and  O_5
REMARK    3  A    between atoms: O_5  and  C_6
REMARK    4  A    between atoms: C_6  and  C_7
REMARK    5  A    between atoms: C_7  and  O_8
REMARK    6  A    between atoms: C_11  and  C_12
REMARK    7  A    between atoms: C_13  and  C_14
REMARK    8  A    between atoms: C_14  and  C_15
REMARK    9  A    between atoms: C_18  and  O_19
REMARK   10  A    between atoms: C_20  and  C_21
REMARK   11  A    between atoms: C_21  and  C_22
REMARK                            x       y       z     vdW  Elec       q    Type
REMARK                         _______ _______ _______ _____ _____    ______ ____
ROOT
ATOM      1  C   UNL     1       9.900   0.581  24.638  0.00  0.00    +0.070 C 
ENDROOT
BRANCH   1   4
ATOM      2  C   UNL     1       7.971  -0.210  26.840  0.00  0.00    +0.044 C 
ATOM      3  C   UNL     1       8.638  -1.230  25.943  0.00  0.00    -0.043 A 
ATOM      4  C   UNL     1       9.398  -0.864  24.808  0.00  0.00    -0.037 A 
ATOM      5  C   UNL     1       9.738  -1.884  23.883  0.00  0.00    -0.043 A 
ATOM      6  C   UNL     1      10.488  -1.589  22.610  0.00  0.00    +0.044 C 
ATOM      7  C   UNL     1       9.402  -3.230  24.156  0.00  0.00    +0.049 A 
ATOM      8  C   UNL     1       8.791  -3.574  25.359  0.00  0.00    +0.122 A 
ATOM      9  C   UNL     1       8.442  -2.585  26.260  0.00  0.00    +0.049 A 
BRANCH   8  10
ATOM     10  O   UNL     1       8.550  -4.868  25.738  0.00  0.00    -0.481 OA
BRANCH  10  11
ATOM     11  C   UNL     1       7.169  -5.220  25.589  0.00  0.00    +0.349 C 
BRANCH  11  12
ATOM     12  C   UNL     1       6.696  -5.941  26.845  0.00  0.00    +0.343 C 
ATOM     13  O   UNL     1       5.589  -6.449  26.967  0.00  0.00    -0.247 OA
BRANCH  12  14
ATOM     14  O   UNL     1       7.614  -5.951  27.846  0.00  0.00    -0.478 OA
ATOM     15  H   UNL     1       8.451  -5.553  27.526  0.00  0.00    +0.295 HD
ENDBRANCH  12  14
ENDBRANCH  11  12
ENDBRANCH  10  11
ENDBRANCH   8  10
ENDBRANCH   1   4
BRANCH   1  16
ATOM     16  C   UNL     1       9.004   1.570  23.924  0.00  0.00    -0.043 A 
ATOM     17  C   UNL     1       8.996   2.922  24.279  0.00  0.00    +0.011 A 
ATOM     18  C   UNL     1       8.378   3.903  23.498  0.00  0.00    -0.001 A 
ATOM     19  C   UNL     1       7.503   3.443  22.502  0.00  0.00    +0.120 A 
ATOM     20  C   UNL     1       7.375   2.085  22.208  0.00  0.00    +0.046 A 
ATOM     21  C   UNL     1       8.156   1.155  22.893  0.00  0.00    +0.007 A 
BRANCH  19  22
ATOM     22  O   UNL     1       6.737   4.351  21.819  0.00  0.00    -0.506 OA
ATOM     23  H   UNL     1       6.622   4.040  20.906  0.00  0.00    +0.292 HD
ENDBRANCH  19  22
BRANCH  18  24
ATOM     24  C   UNL     1       8.555   5.396  23.724  0.00  0.00    +0.074 C 
BRANCH  24  25
ATOM     25  C   UNL     1       9.871   6.015  24.205  0.00  0.00    -0.043 A 
ATOM     26  C   UNL     1      11.128   5.789  23.626  0.00  0.00    +0.004 A 
ATOM     27  C   UNL     1      12.314   6.208  24.236  0.00  0.00    +0.000 A 
ATOM     28  C   UNL     1      12.277   6.846  25.467  0.00  0.00    +0.000 A 
ATOM     29  C   UNL     1      11.048   7.108  26.060  0.00  0.00    +0.000 A 
ATOM     30  C   UNL     1       9.861   6.705  25.435  0.00  0.00    +0.004 A 
ENDBRANCH  24  25
ENDBRANCH  18  24
ENDBRANCH   1  16
TORSDOF 9
ENDMDL
MODEL 2
REMARK VINA RESULT:      -7.5      2.992      9.789
REMARK  Name = 
REMARK  11 active torsions:
REMARK  status: ('A' for Active; 'I' for Inactive)
REMARK    1  A    between atoms: C_1  and  C_2
REMARK    2  A    between atoms: C_4  and  O_5
REMARK    3  A    between atoms: O_5  and  C_6
REMARK    4  A    between atoms: C_6  and  C_7
REMARK    5  A    between atoms: C_7  and  O_8
REMARK    6  A    between atoms: C_11  and  C_12
REMARK    7  A    between atoms: C_13  and  C_14
REMARK    8  A    between atoms: C_14  and  C_15
REMARK    9  A    between atoms: C_18  and  O_19
REMARK   10  A    between atoms: C_20  and  C_21
REMARK   11  A    between atoms: C_21  and  C_22
REMARK                            x       y       z     vdW  Elec       q    Type
REMARK                         _______ _______ _______ _____ _____    ______ ____
ROOT
ATOM      1  C   UNL     1       7.298  -0.414  23.423  0.00  0.00    +0.070 C 
ENDROOT
BRANCH   1   4
ATOM      2  C   UNL     1       7.581   1.277  25.924  0.00  0.00    +0.044 C 
ATOM      3  C   UNL     1       8.317   1.598  24.642  0.00  0.00    -0.043 A 
ATOM      4  C   UNL     1       8.329   0.723  23.531  0.00  0.00    -0.037 A 
ATOM      5  C   UNL     1       9.267   0.978  22.499  0.00  0.00    -0.043 A 
ATOM      6  C   UNL     1       9.407   0.070  21.304  0.00  0.00    +0.044 C 
ATOM      7  C   UNL     1      10.086   2.130  22.553  0.00  0.00    +0.049 A 
ATOM      8  C   UNL     1       9.937   3.053  23.584  0.00  0.00    +0.122 A 
ATOM      9  C   UNL     1       9.035   2.805  24.602  0.00  0.00    +0.049 A 
BRANCH   8  10
ATOM     10  O   UNL     1      10.609   4.246  23.631  0.00  0.00    -0.481 OA
BRANCH  10  11
ATOM     11  C   UNL     1      11.925   4.138  23.074  0.00  0.00    +0.349 C 
BRANCH  11  12
ATOM     12  C   UNL     1      12.777   5.300  23.570  0.00  0.00    +0.343 C 
ATOM     13  O   UNL     1      12.339   6.244  24.214  0.00  0.00    -0.247 OA
BRANCH  12  14
ATOM     14  O   UNL     1      14.083   5.210  23.210  0.00  0.00    -0.478 OA
ATOM     15  H   UNL     1      14.578   5.971  23.581  0.00  0.00    +0.295 HD
ENDBRANCH  12  14
ENDBRANCH  11  12
ENDBRANCH  10  11
ENDBRANCH   8  10
ENDBRANCH   1   4
BRANCH   1  16
ATOM     16  C   UNL     1       7.744  -1.819  23.771  0.00  0.00    -0.043 A 
ATOM     17  C   UNL     1       6.934  -2.922  23.489  0.00  0.00    +0.011 A 
ATOM     18  C   UNL     1       7.400  -4.239  23.566  0.00  0.00    -0.001 A 
ATOM     19  C   UNL     1       8.621  -4.427  24.231  0.00  0.00    +0.120 A 
ATOM     20  C   UNL     1       9.399  -3.349  24.656  0.00  0.00    +0.046 A 
ATOM     21  C   UNL     1       8.977  -2.047  24.389  0.00  0.00    +0.007 A 
BRANCH  19  22
ATOM     22  O   UNL     1       9.047  -5.703  24.492  0.00  0.00    -0.506 OA
ATOM     23  H   UNL     1      10.010  -5.741  24.377  0.00  0.00    +0.292 HD
ENDBRANCH  19  22
BRANCH  18  24
ATOM     24  C   UNL     1       6.628  -5.438  23.039  0.00  0.00    +0.074 C 
BRANCH  24  25
ATOM     25  C   UNL     1       5.272  -5.868  23.605  0.00  0.00    -0.043 A 
ATOM     26  C   UNL     1       4.046  -5.759  22.933  0.00  0.00    +0.004 A 
ATOM     27  C   UNL     1       2.823  -5.968  23.577  0.00  0.00    +0.000 A 
ATOM     28  C   UNL     1       2.792  -6.268  24.931  0.00  0.00    +0.000 A 
ATOM     29  C   UNL     1       3.987  -6.408  25.625  0.00  0.00    +0.000 A 
ATOM     30  C   UNL     1       5.211  -6.218  24.970  0.00  0.00    +0.004 A 
ENDBRANCH  24  25
ENDBRANCH  18  24
ENDBRANCH   1  16
TORSDOF 9
ENDMDL
MODEL 3
REMARK VINA RESULT:      -7.5      2.582      9.779
REMARK  Name = 
REMARK  11 active torsions:
REMARK  status: ('A' for Active; 'I' for Inactive)
REMARK    1  A    between atoms: C_1  and  C_2
REMARK    2  A    between atoms: C_4  and  O_5
REMARK    3  A    between atoms: O_5  and  C_6
REMARK    4  A    between atoms: C_6  and  C_7
REMARK    5  A    between atoms: C_7  and  O_8
REMARK    6  A    between atoms: C_11  and  C_12
REMARK    7  A    between atoms: C_13  and  C_14
REMARK    8  A    between atoms: C_14  and  C_15
REMARK    9  A    between atoms: C_18  and  O_19
REMARK   10  A    between atoms: C_20  and  C_21
REMARK   11  A    between atoms: C_21  and  C_22
REMARK                            x       y       z     vdW  Elec       q    Type
REMARK                         _______ _______ _______ _____ _____    ______ ____
ROOT
ATOM      1  C   UNL     1       7.268  -0.201  23.627  0.00  0.00    +0.070 C 
ENDROOT
BRANCH   1   4
ATOM      2  C   UNL     1       8.604   0.909  21.142  0.00  0.00    +0.044 C 
ATOM      3  C   UNL     1       8.727   1.576  22.493  0.00  0.00    -0.043 A 
ATOM      4  C   UNL     1       7.970   1.168  23.616  0.00  0.00    -0.037 A 
ATOM      5  C   UNL     1       7.946   2.026  24.745  0.00  0.00    -0.043 A 
ATOM      6  C   UNL     1       7.119   1.717  25.966  0.00  0.00    +0.044 C 
ATOM      7  C   UNL     1       8.738   3.198  24.763  0.00  0.00    +0.049 A 
ATOM      8  C   UNL     1       9.591   3.487  23.702  0.00  0.00    +0.122 A 
ATOM      9  C   UNL     1       9.611   2.665  22.591  0.00  0.00    +0.049 A 
BRANCH   8  10
ATOM     10  O   UNL     1      10.473   4.537  23.709  0.00  0.00    -0.481 OA
BRANCH  10  11
ATOM     11  C   UNL     1      11.795   4.125  23.342  0.00  0.00    +0.349 C 
BRANCH  11  12
ATOM     12  C   UNL     1      12.769   5.267  23.605  0.00  0.00    +0.343 C 
ATOM     13  O   UNL     1      12.465   6.308  24.173  0.00  0.00    -0.247 OA
BRANCH  12  14
ATOM     14  O   UNL     1      14.018   5.039  23.125  0.00  0.00    -0.478 OA
ATOM     15  H   UNL     1      14.241   5.720  22.455  0.00  0.00    +0.295 HD
ENDBRANCH  12  14
ENDBRANCH  11  12
ENDBRANCH  10  11
ENDBRANCH   8  10
ENDBRANCH   1   4
BRANCH   1  16
ATOM     16  C   UNL     1       8.078  -1.417  24.024  0.00  0.00    -0.043 A 
ATOM     17  C   UNL     1       7.586  -2.341  24.949  0.00  0.00    +0.011 A 
ATOM     18  C   UNL     1       8.181  -3.588  25.159  0.00  0.00    -0.001 A 
ATOM     19  C   UNL     1       9.469  -3.758  24.629  0.00  0.00    +0.120 A 
ATOM     20  C   UNL     1      10.059  -2.794  23.810  0.00  0.00    +0.046 A 
ATOM     21  C   UNL     1       9.345  -1.644  23.477  0.00  0.00    +0.007 A 
BRANCH  19  22
ATOM     22  O   UNL     1      10.175  -4.889  24.946  0.00  0.00    -0.506 OA
ATOM     23  H   UNL     1      10.404  -4.861  25.889  0.00  0.00    +0.292 HD
ENDBRANCH  19  22
BRANCH  18  24
ATOM     24  C   UNL     1       7.540  -4.702  25.972  0.00  0.00    +0.074 C 
BRANCH  24  25
ATOM     25  C   UNL     1       6.251  -5.409  25.544  0.00  0.00    -0.043 A 
ATOM     26  C   UNL     1       5.431  -6.172  26.388  0.00  0.00    +0.004 A 
ATOM     27  C   UNL     1       4.391  -6.965  25.895  0.00  0.00    +0.000 A 
ATOM     28  C   UNL     1       4.157  -7.039  24.530  0.00  0.00    +0.000 A 
ATOM     29  C   UNL     1       4.934  -6.278  23.666  0.00  0.00    +0.000 A 
ATOM     30  C   UNL     1       5.962  -5.468  24.165  0.00  0.00    +0.004 A 
ENDBRANCH  24  25
ENDBRANCH  18  24
ENDBRANCH   1  16
TORSDOF 9
ENDMDL
MODEL 4
REMARK VINA RESULT:      -7.3      1.462      2.459
REMARK  Name = 
REMARK  11 active torsions:
REMARK  status: ('A' for Active; 'I' for Inactive)
REMARK    1  A    between atoms: C_1  and  C_2
REMARK    2  A    between atoms: C_4  and  O_5
REMARK    3  A    between atoms: O_5  and  C_6
REMARK    4  A    between atoms: C_6  and  C_7
REMARK    5  A    between atoms: C_7  and  O_8
REMARK    6  A    between atoms: C_11  and  C_12
REMARK    7  A    between atoms: C_13  and  C_14
REMARK    8  A    between atoms: C_14  and  C_15
REMARK    9  A    between atoms: C_18  and  O_19
REMARK   10  A    between atoms: C_20  and  C_21
REMARK   11  A    between atoms: C_21  and  C_22
REMARK                            x       y       z     vdW  Elec       q    Type
REMARK                         _______ _______ _______ _____ _____    ______ ____
ROOT
ATOM      1  C   UNL     1       9.774   0.556  24.647  0.00  0.00    +0.070 C 
ENDROOT
BRANCH   1   4
ATOM      2  C   UNL     1      10.597  -1.527  22.603  0.00  0.00    +0.044 C 
ATOM      3  C   UNL     1       9.580  -1.813  23.685  0.00  0.00    -0.043 A 
ATOM      4  C   UNL     1       9.320  -0.911  24.743  0.00  0.00    -0.037 A 
ATOM      5  C   UNL     1       8.569  -1.387  25.848  0.00  0.00    -0.043 A 
ATOM      6  C   UNL     1       8.292  -0.529  27.055  0.00  0.00    +0.044 C 
ATOM      7  C   UNL     1       8.024  -2.693  25.827  0.00  0.00    +0.049 A 
ATOM      8  C   UNL     1       8.169  -3.498  24.701  0.00  0.00    +0.122 A 
ATOM      9  C   UNL     1       8.912  -3.048  23.625  0.00  0.00    +0.049 A 
BRANCH   8  10
ATOM     10  O   UNL     1       7.565  -4.720  24.566  0.00  0.00    -0.481 OA
BRANCH  10  11
ATOM     11  C   UNL     1       6.328  -4.629  23.848  0.00  0.00    +0.349 C 
BRANCH  11  12
ATOM     12  C   UNL     1       6.403  -5.506  22.605  0.00  0.00    +0.343 C 
ATOM     13  O   UNL     1       7.423  -6.061  22.219  0.00  0.00    -0.247 OA
BRANCH  12  14
ATOM     14  O   UNL     1       5.226  -5.603  21.935  0.00  0.00    -0.478 OA
ATOM     15  H   UNL     1       5.402  -5.794  20.990  0.00  0.00    +0.295 HD
ENDBRANCH  12  14
ENDBRANCH  11  12
ENDBRANCH  10  11
ENDBRANCH   8  10
ENDBRANCH   1   4
BRANCH   1  16
ATOM     16  C   UNL     1       8.863   1.542  23.948  0.00  0.00    -0.043 A 
ATOM     17  C   UNL     1       8.926   2.908  24.233  0.00  0.00    +0.011 A 
ATOM     18  C   UNL     1       8.287   3.873  23.447  0.00  0.00    -0.001 A 
ATOM     19  C   UNL     1       7.328   3.398  22.540  0.00  0.00    +0.120 A 
ATOM     20  C   UNL     1       7.134   2.033  22.325  0.00  0.00    +0.046 A 
ATOM     21  C   UNL     1       7.930   1.109  23.001  0.00  0.00    +0.007 A 
BRANCH  19  22
ATOM     22  O   UNL     1       6.546   4.299  21.866  0.00  0.00    -0.506 OA
ATOM     23  H   UNL     1       5.613   4.064  21.998  0.00  0.00    +0.292 HD
ENDBRANCH  19  22
BRANCH  18  24
ATOM     24  C   UNL     1       8.530   5.367  23.585  0.00  0.00    +0.074 C 
BRANCH  24  25
ATOM     25  C   UNL     1       9.869   5.955  24.041  0.00  0.00    -0.043 A 
ATOM     26  C   UNL     1      11.118   5.637  23.491  0.00  0.00    +0.004 A 
ATOM     27  C   UNL     1      12.317   6.039  24.086  0.00  0.00    +0.000 A 
ATOM     28  C   UNL     1      12.299   6.754  25.274  0.00  0.00    +0.000 A 
ATOM     29  C   UNL     1      11.079   7.108  25.837  0.00  0.00    +0.000 A 
ATOM     30  C   UNL     1       9.880   6.720  25.225  0.00  0.00    +0.004 A 
ENDBRANCH  24  25
ENDBRANCH  18  24
ENDBRANCH   1  16
TORSDOF 9
ENDMDL
MODEL 5
REMARK VINA RESULT:      -7.3      2.571      3.985
REMARK  Name = 
REMARK  11 active torsions:
REMARK  status: ('A' for Active; 'I' for Inactive)
REMARK    1  A    between atoms: C_1  and  C_2
REMARK    2  A    between atoms: C_4  and  O_5
REMARK    3  A    between atoms: O_5  and  C_6
REMARK    4  A    between atoms: C_6  and  C_7
REMARK    5  A    between atoms: C_7  and  O_8
REMARK    6  A    between atoms: C_11  and  C_12
REMARK    7  A    between atoms: C_13  and  C_14
REMARK    8  A    between atoms: C_14  and  C_15
REMARK    9  A    between atoms: C_18  and  O_19
REMARK   10  A    between atoms: C_20  and  C_21
REMARK   11  A    between atoms: C_21  and  C_22
REMARK                            x       y       z     vdW  Elec       q    Type
REMARK                         _______ _______ _______ _____ _____    ______ ____
ROOT
ATOM      1  C   UNL     1       8.478  -2.029  24.917  0.00  0.00    +0.070 C 
ENDROOT
BRANCH   1   4
ATOM      2  C   UNL     1       8.860  -5.008  24.502  0.00  0.00    +0.044 C 
ATOM      3  C   UNL     1       7.570  -4.300  24.149  0.00  0.00    -0.043 A 
ATOM      4  C   UNL     1       7.321  -2.953  24.498  0.00  0.00    -0.037 A 
ATOM      5  C   UNL     1       5.991  -2.474  24.377  0.00  0.00    -0.043 A 
ATOM      6  C   UNL     1       5.607  -1.075  24.785  0.00  0.00    +0.044 C 
ATOM      7  C   UNL     1       4.985  -3.304  23.830  0.00  0.00    +0.049 A 
ATOM      8  C   UNL     1       5.301  -4.572  23.352  0.00  0.00    +0.122 A 
ATOM      9  C   UNL     1       6.591  -5.053  23.479  0.00  0.00    +0.049 A 
BRANCH   8  10
ATOM     10  O   UNL     1       4.403  -5.376  22.701  0.00  0.00    -0.481 OA
BRANCH  10  11
ATOM     11  C   UNL     1       3.291  -5.721  23.537  0.00  0.00    +0.349 C 
BRANCH  11  12
ATOM     12  C   UNL     1       3.462  -7.150  24.036  0.00  0.00    +0.343 C 
ATOM     13  O   UNL     1       4.254  -7.481  24.908  0.00  0.00    -0.247 OA
BRANCH  12  14
ATOM     14  O   UNL     1       2.663  -8.047  23.402  0.00  0.00    -0.478 OA
ATOM     15  H   UNL     1       3.216  -8.671  22.887  0.00  0.00    +0.295 HD
ENDBRANCH  12  14
ENDBRANCH  11  12
ENDBRANCH  10  11
ENDBRANCH   8  10
ENDBRANCH   1   4
BRANCH   1  16
ATOM     16  C   UNL     1       8.894  -0.928  23.964  0.00  0.00    -0.043 A 
ATOM     17  C   UNL     1       8.979   0.400  24.391  0.00  0.00    +0.011 A 
ATOM     18  C   UNL     1       9.587   1.400  23.626  0.00  0.00    -0.001 A 
ATOM     19  C   UNL     1       9.838   1.087  22.281  0.00  0.00    +0.120 A 
ATOM     20  C   UNL     1       9.633  -0.198  21.777  0.00  0.00    +0.046 A 
ATOM     21  C   UNL     1       9.200  -1.212  22.630  0.00  0.00    +0.007 A 
BRANCH  19  22
ATOM     22  O   UNL     1      10.270   2.076  21.438  0.00  0.00    -0.506 OA
ATOM     23  H   UNL     1      10.026   1.840  20.528  0.00  0.00    +0.292 HD
ENDBRANCH  19  22
BRANCH  18  24
ATOM     24  C   UNL     1       9.910   2.788  24.156  0.00  0.00    +0.074 C 
BRANCH  24  25
ATOM     25  C   UNL     1       9.114   4.036  23.762  0.00  0.00    -0.043 A 
ATOM     26  C   UNL     1       7.883   4.029  23.090  0.00  0.00    +0.004 A 
ATOM     27  C   UNL     1       7.313   5.194  22.570  0.00  0.00    +0.000 A 
ATOM     28  C   UNL     1       7.978   6.406  22.685  0.00  0.00    +0.000 A 
ATOM     29  C   UNL     1       9.189   6.456  23.364  0.00  0.00    +0.000 A 
ATOM     30  C   UNL     1       9.746   5.288  23.902  0.00  0.00    +0.004 A 
ENDBRANCH  24  25
ENDBRANCH  18  24
ENDBRANCH   1  16
TORSDOF 9
ENDMDL
MODEL 6
REMARK VINA RESULT:      -7.2      1.640      2.790
REMARK  Name = 
REMARK  11 active torsions:
REMARK  status: ('A' for Active; 'I' for Inactive)
REMARK    1  A    between atoms: C_1  and  C_2
REMARK    2  A    between atoms: C_4  and  O_5
REMARK    3  A    between atoms: O_5  and  C_6
REMARK    4  A    between atoms: C_6  and  C_7
REMARK    5  A    between atoms: C_7  and  O_8
REMARK    6  A    between atoms: C_11  and  C_12
REMARK    7  A    between atoms: C_13  and  C_14
REMARK    8  A    between atoms: C_14  and  C_15
REMARK    9  A    between atoms: C_18  and  O_19
REMARK   10  A    between atoms: C_20  and  C_21
REMARK   11  A    between atoms: C_21  and  C_22
REMARK                            x       y       z     vdW  Elec       q    Type
REMARK                         _______ _______ _______ _____ _____    ______ ____
ROOT
ATOM      1  C   UNL     1       9.532  -2.656  24.007  0.00  0.00    +0.070 C 
ENDROOT
BRANCH   1   4
ATOM      2  C   UNL     1       8.674  -1.863  26.805  0.00  0.00    +0.044 C 
ATOM      3  C   UNL     1       8.047  -3.022  26.065  0.00  0.00    -0.043 A 
ATOM      4  C   UNL     1       8.315  -3.290  24.702  0.00  0.00    -0.037 A 
ATOM      5  C   UNL     1       7.472  -4.213  24.031  0.00  0.00    -0.043 A 
ATOM      6  C   UNL     1       7.631  -4.519  22.565  0.00  0.00    +0.044 C 
ATOM      7  C   UNL     1       6.465  -4.903  24.746  0.00  0.00    +0.049 A 
ATOM      8  C   UNL     1       6.332  -4.730  26.120  0.00  0.00    +0.122 A 
ATOM      9  C   UNL     1       7.139  -3.822  26.780  0.00  0.00    +0.049 A 
BRANCH   8  10
ATOM     10  O   UNL     1       5.462  -5.457  26.890  0.00  0.00    -0.481 OA
BRANCH  10  11
ATOM     11  C   UNL     1       5.782  -5.368  28.284  0.00  0.00    +0.349 C 
BRANCH  11  12
ATOM     12  C   UNL     1       5.577  -6.731  28.934  0.00  0.00    +0.343 C 
ATOM     13  O   UNL     1       4.480  -7.208  29.194  0.00  0.00    -0.247 OA
BRANCH  12  14
ATOM     14  O   UNL     1       6.737  -7.373  29.229  0.00  0.00    -0.478 OA
ATOM     15  H   UNL     1       6.611  -7.923  30.031  0.00  0.00    +0.295 HD
ENDBRANCH  12  14
ENDBRANCH  11  12
ENDBRANCH  10  11
ENDBRANCH   8  10
ENDBRANCH   1   4
BRANCH   1  16
ATOM     16  C   UNL     1       9.331  -1.357  23.257  0.00  0.00    -0.043 A 
ATOM     17  C   UNL     1       9.059  -0.167  23.937  0.00  0.00    +0.011 A 
ATOM     18  C   UNL     1       9.109   1.085  23.315  0.00  0.00    -0.001 A 
ATOM     19  C   UNL     1       9.143   1.080  21.912  0.00  0.00    +0.120 A 
ATOM     20  C   UNL     1       9.274  -0.104  21.185  0.00  0.00    +0.046 A 
ATOM     21  C   UNL     1       9.408  -1.315  21.862  0.00  0.00    +0.007 A 
BRANCH  19  22
ATOM     22  O   UNL     1       9.018   2.268  21.240  0.00  0.00    -0.506 OA
ATOM     23  H   UNL     1       9.249   2.994  21.843  0.00  0.00    +0.292 HD
ENDBRANCH  19  22
BRANCH  18  24
ATOM     24  C   UNL     1       9.057   2.404  24.071  0.00  0.00    +0.074 C 
BRANCH  24  25
ATOM     25  C   UNL     1       9.987   3.579  23.758  0.00  0.00    -0.043 A 
ATOM     26  C   UNL     1      11.337   3.466  23.396  0.00  0.00    +0.004 A 
ATOM     27  C   UNL     1      12.186   4.574  23.333  0.00  0.00    +0.000 A 
ATOM     28  C   UNL     1      11.710   5.836  23.662  0.00  0.00    +0.000 A 
ATOM     29  C   UNL     1      10.373   5.990  24.003  0.00  0.00    +0.000 A 
ATOM     30  C   UNL     1       9.520   4.879  24.044  0.00  0.00    +0.004 A 
ENDBRANCH  24  25
ENDBRANCH  18  24
ENDBRANCH   1  16
TORSDOF 9
ENDMDL
MODEL 7
REMARK VINA RESULT:      -7.1      2.852      9.409
REMARK  Name = 
REMARK  11 active torsions:
REMARK  status: ('A' for Active; 'I' for Inactive)
REMARK    1  A    between atoms: C_1  and  C_2
REMARK    2  A    between atoms: C_4  and  O_5
REMARK    3  A    between atoms: O_5  and  C_6
REMARK    4  A    between atoms: C_6  and  C_7
REMARK    5  A    between atoms: C_7  and  O_8
REMARK    6  A    between atoms: C_11  and  C_12
REMARK    7  A    between atoms: C_13  and  C_14
REMARK    8  A    between atoms: C_14  and  C_15
REMARK    9  A    between atoms: C_18  and  O_19
REMARK   10  A    between atoms: C_20  and  C_21
REMARK   11  A    between atoms: C_21  and  C_22
REMARK                            x       y       z     vdW  Elec       q    Type
REMARK                         _______ _______ _______ _____ _____    ______ ____
ROOT
ATOM      1  C   UNL     1       7.438   0.937  23.951  0.00  0.00    +0.070 C 
ENDROOT
BRANCH   1   4
ATOM      2  C   UNL     1       7.385   3.217  25.949  0.00  0.00    +0.044 C 
ATOM      3  C   UNL     1       8.320   3.204  24.761  0.00  0.00    -0.043 A 
ATOM      4  C   UNL     1       8.476   2.072  23.926  0.00  0.00    -0.037 A 
ATOM      5  C   UNL     1       9.570   2.062  23.025  0.00  0.00    -0.043 A 
ATOM      6  C   UNL     1       9.863   0.878  22.139  0.00  0.00    +0.044 C 
ATOM      7  C   UNL     1      10.408   3.196  22.911  0.00  0.00    +0.049 A 
ATOM      8  C   UNL     1      10.131   4.351  23.636  0.00  0.00    +0.122 A 
ATOM      9  C   UNL     1       9.075   4.366  24.528  0.00  0.00    +0.049 A 
BRANCH   8  10
ATOM     10  O   UNL     1      10.826   5.522  23.482  0.00  0.00    -0.481 OA
BRANCH  10  11
ATOM     11  C   UNL     1      12.148   5.433  24.029  0.00  0.00    +0.349 C 
BRANCH  11  12
ATOM     12  C   UNL     1      13.160   5.378  22.891  0.00  0.00    +0.343 C 
ATOM     13  O   UNL     1      12.897   5.651  21.727  0.00  0.00    -0.247 OA
BRANCH  12  14
ATOM     14  O   UNL     1      14.395   4.969  23.280  0.00  0.00    -0.478 OA
ATOM     15  H   UNL     1      15.068   5.597  22.943  0.00  0.00    +0.295 HD
ENDBRANCH  12  14
ENDBRANCH  11  12
ENDBRANCH  10  11
ENDBRANCH   8  10
ENDBRANCH   1   4
BRANCH   1  16
ATOM     16  C   UNL     1       7.706  -0.258  24.841  0.00  0.00    -0.043 A 
ATOM     17  C   UNL     1       6.814  -1.332  24.894  0.00  0.00    +0.011 A 
ATOM     18  C   UNL     1       7.134  -2.549  25.503  0.00  0.00    -0.001 A 
ATOM     19  C   UNL     1       8.270  -2.551  26.327  0.00  0.00    +0.120 A 
ATOM     20  C   UNL     1       9.117  -1.445  26.412  0.00  0.00    +0.046 A 
ATOM     21  C   UNL     1       8.854  -0.316  25.637  0.00  0.00    +0.007 A 
BRANCH  19  22
ATOM     22  O   UNL     1       8.539  -3.659  27.087  0.00  0.00    -0.506 OA
ATOM     23  H   UNL     1       8.130  -3.546  27.961  0.00  0.00    +0.292 HD
ENDBRANCH  19  22
BRANCH  18  24
ATOM     24  C   UNL     1       6.289  -3.806  25.370  0.00  0.00    +0.074 C 
BRANCH  24  25
ATOM     25  C   UNL     1       6.299  -4.688  24.118  0.00  0.00    -0.043 A 
ATOM     26  C   UNL     1       7.406  -4.887  23.281  0.00  0.00    +0.004 A 
ATOM     27  C   UNL     1       7.297  -5.526  22.043  0.00  0.00    +0.000 A 
ATOM     28  C   UNL     1       6.060  -5.963  21.592  0.00  0.00    +0.000 A 
ATOM     29  C   UNL     1       4.945  -5.804  22.404  0.00  0.00    +0.000 A 
ATOM     30  C   UNL     1       5.063  -5.181  23.653  0.00  0.00    +0.004 A 
ENDBRANCH  24  25
ENDBRANCH  18  24
ENDBRANCH   1  16
TORSDOF 9
ENDMDL
MODEL 8
REMARK VINA RESULT:      -7.0      1.821      3.252
REMARK  Name = 
REMARK  11 active torsions:
REMARK  status: ('A' for Active; 'I' for Inactive)
REMARK    1  A    between atoms: C_1  and  C_2
REMARK    2  A    between atoms: C_4  and  O_5
REMARK    3  A    between atoms: O_5  and  C_6
REMARK    4  A    between atoms: C_6  and  C_7
REMARK    5  A    between atoms: C_7  and  O_8
REMARK    6  A    between atoms: C_11  and  C_12
REMARK    7  A    between atoms: C_13  and  C_14
REMARK    8  A    between atoms: C_14  and  C_15
REMARK    9  A    between atoms: C_18  and  O_19
REMARK   10  A    between atoms: C_20  and  C_21
REMARK   11  A    between atoms: C_21  and  C_22
REMARK                            x       y       z     vdW  Elec       q    Type
REMARK                         _______ _______ _______ _____ _____    ______ ____
ROOT
ATOM      1  C   UNL     1       8.816  -1.756  25.991  0.00  0.00    +0.070 C 
ENDROOT
BRANCH   1   4
ATOM      2  C   UNL     1       5.901  -1.663  26.821  0.00  0.00    +0.044 C 
ATOM      3  C   UNL     1       6.639  -2.965  26.601  0.00  0.00    -0.043 A 
ATOM      4  C   UNL     1       7.939  -3.019  26.047  0.00  0.00    -0.037 A 
ATOM      5  C   UNL     1       8.424  -4.282  25.622  0.00  0.00    -0.043 A 
ATOM      6  C   UNL     1       9.769  -4.439  24.960  0.00  0.00    +0.044 C 
ATOM      7  C   UNL     1       7.656  -5.449  25.842  0.00  0.00    +0.049 A 
ATOM      8  C   UNL     1       6.449  -5.377  26.531  0.00  0.00    +0.122 A 
ATOM      9  C   UNL     1       5.961  -4.149  26.937  0.00  0.00    +0.049 A 
BRANCH   8  10
ATOM     10  O   UNL     1       5.717  -6.480  26.885  0.00  0.00    -0.481 OA
BRANCH  10  11
ATOM     11  C   UNL     1       4.354  -6.378  26.452  0.00  0.00    +0.349 C 
BRANCH  11  12
ATOM     12  C   UNL     1       4.171  -7.188  25.175  0.00  0.00    +0.343 C 
ATOM     13  O   UNL     1       4.704  -6.914  24.108  0.00  0.00    -0.247 OA
BRANCH  12  14
ATOM     14  O   UNL     1       3.330  -8.244  25.316  0.00  0.00    -0.478 OA
ATOM     15  H   UNL     1       3.676  -8.848  26.007  0.00  0.00    +0.295 HD
ENDBRANCH  12  14
ENDBRANCH  11  12
ENDBRANCH  10  11
ENDBRANCH   8  10
ENDBRANCH   1   4
BRANCH   1  16
ATOM     16  C   UNL     1       8.816  -0.942  24.715  0.00  0.00    -0.043 A 
ATOM     17  C   UNL     1       9.605   0.205  24.592  0.00  0.00    +0.011 A 
ATOM     18  C   UNL     1       9.824   0.842  23.366  0.00  0.00    -0.001 A 
ATOM     19  C   UNL     1       8.977   0.467  22.312  0.00  0.00    +0.120 A 
ATOM     20  C   UNL     1       8.072  -0.588  22.437  0.00  0.00    +0.046 A 
ATOM     21  C   UNL     1       8.022  -1.315  23.626  0.00  0.00    +0.007 A 
BRANCH  19  22
ATOM     22  O   UNL     1       9.024   1.172  21.138  0.00  0.00    -0.506 OA
ATOM     23  H   UNL     1       9.344   2.070  21.325  0.00  0.00    +0.292 HD
ENDBRANCH  19  22
BRANCH  18  24
ATOM     24  C   UNL     1      10.858   1.936  23.158  0.00  0.00    +0.074 C 
BRANCH  24  25
ATOM     25  C   UNL     1      10.622   3.394  23.564  0.00  0.00    -0.043 A 
ATOM     26  C   UNL     1       9.377   3.947  23.896  0.00  0.00    +0.004 A 
ATOM     27  C   UNL     1       9.192   5.324  24.048  0.00  0.00    +0.000 A 
ATOM     28  C   UNL     1      10.251   6.196  23.844  0.00  0.00    +0.000 A 
ATOM     29  C   UNL     1      11.505   5.683  23.538  0.00  0.00    +0.000 A 
ATOM     30  C   UNL     1      11.690   4.301  23.406  0.00  0.00    +0.004 A 
ENDBRANCH  24  25
ENDBRANCH  18  24
ENDBRANCH   1  16
TORSDOF 9
ENDMDL
MODEL 9
REMARK VINA RESULT:      -7.0      1.758      3.180
REMARK  Name = 
REMARK  11 active torsions:
REMARK  status: ('A' for Active; 'I' for Inactive)
REMARK    1  A    between atoms: C_1  and  C_2
REMARK    2  A    between atoms: C_4  and  O_5
REMARK    3  A    between atoms: O_5  and  C_6
REMARK    4  A    between atoms: C_6  and  C_7
REMARK    5  A    between atoms: C_7  and  O_8
REMARK    6  A    between atoms: C_11  and  C_12
REMARK    7  A    between atoms: C_13  and  C_14
REMARK    8  A    between atoms: C_14  and  C_15
REMARK    9  A    between atoms: C_18  and  O_19
REMARK   10  A    between atoms: C_20  and  C_21
REMARK   11  A    between atoms: C_21  and  C_22
REMARK                            x       y       z     vdW  Elec       q    Type
REMARK                         _______ _______ _______ _____ _____    ______ ____
ROOT
ATOM      1  C   UNL     1       9.448  -2.693  23.991  0.00  0.00    +0.070 C 
ENDROOT
BRANCH   1   4
ATOM      2  C   UNL     1       7.783  -4.938  22.815  0.00  0.00    +0.044 C 
ATOM      3  C   UNL     1       7.393  -4.222  24.089  0.00  0.00    -0.043 A 
ATOM      4  C   UNL     1       8.247  -3.300  24.737  0.00  0.00    -0.037 A 
ATOM      5  C   UNL     1       7.914  -2.904  26.057  0.00  0.00    -0.043 A 
ATOM      6  C   UNL     1       8.791  -1.977  26.858  0.00  0.00    +0.044 C 
ATOM      7  C   UNL     1       6.711  -3.354  26.651  0.00  0.00    +0.049 A 
ATOM      8  C   UNL     1       5.817  -4.136  25.925  0.00  0.00    +0.122 A 
ATOM      9  C   UNL     1       6.141  -4.539  24.643  0.00  0.00    +0.049 A 
BRANCH   8  10
ATOM     10  O   UNL     1       4.583  -4.503  26.395  0.00  0.00    -0.481 OA
BRANCH  10  11
ATOM     11  C   UNL     1       4.678  -5.262  27.607  0.00  0.00    +0.349 C 
BRANCH  11  12
ATOM     12  C   UNL     1       4.793  -6.742  27.264  0.00  0.00    +0.343 C 
ATOM     13  O   UNL     1       4.400  -7.235  26.215  0.00  0.00    -0.247 OA
BRANCH  12  14
ATOM     14  O   UNL     1       5.357  -7.487  28.249  0.00  0.00    -0.478 OA
ATOM     15  H   UNL     1       4.817  -7.414  29.064  0.00  0.00    +0.295 HD
ENDBRANCH  12  14
ENDBRANCH  11  12
ENDBRANCH  10  11
ENDBRANCH   8  10
ENDBRANCH   1   4
BRANCH   1  16
ATOM     16  C   UNL     1       9.242  -1.395  23.240  0.00  0.00    -0.043 A 
ATOM     17  C   UNL     1       8.982  -0.202  23.920  0.00  0.00    +0.011 A 
ATOM     18  C   UNL     1       9.028   1.048  23.295  0.00  0.00    -0.001 A 
ATOM     19  C   UNL     1       9.045   1.040  21.892  0.00  0.00    +0.120 A 
ATOM     20  C   UNL     1       9.163  -0.146  21.166  0.00  0.00    +0.046 A 
ATOM     21  C   UNL     1       9.302  -1.357  21.844  0.00  0.00    +0.007 A 
BRANCH  19  22
ATOM     22  O   UNL     1       8.916   2.226  21.218  0.00  0.00    -0.506 OA
ATOM     23  H   UNL     1       9.320   2.133  20.340  0.00  0.00    +0.292 HD
ENDBRANCH  19  22
BRANCH  18  24
ATOM     24  C   UNL     1       8.989   2.368  24.047  0.00  0.00    +0.074 C 
BRANCH  24  25
ATOM     25  C   UNL     1       9.941   3.528  23.743  0.00  0.00    -0.043 A 
ATOM     26  C   UNL     1      11.288   3.392  23.377  0.00  0.00    +0.004 A 
ATOM     27  C   UNL     1      12.158   4.484  23.322  0.00  0.00    +0.000 A 
ATOM     28  C   UNL     1      11.708   5.752  23.662  0.00  0.00    +0.000 A 
ATOM     29  C   UNL     1      10.374   5.929  24.007  0.00  0.00    +0.000 A 
ATOM     30  C   UNL     1       9.501   4.834  24.041  0.00  0.00    +0.004 A 
ENDBRANCH  24  25
ENDBRANCH  18  24
ENDBRANCH   1  16
TORSDOF 9
ENDMDL
