MODEL 1
REMARK VINA RESULT:      -6.5      0.000      0.000
REMARK  Name = 
REMARK  11 active torsions:
REMARK  status: ('A' for Active; 'I' for Inactive)
REMARK    1  A    between atoms: C_1  and  C_2
REMARK    2  A    between atoms: CA_3  and  C_25
REMARK    3  A    between atoms: CA_9  and  N_11
REMARK    4  A    between atoms: C_12  and  C_14
REMARK    5  A    between atoms: C_14  and  C_15
REMARK    6  A    between atoms: C_15  and  C_16
REMARK    7  A    between atoms: C_16  and  CA_17
REMARK    8  A    between atoms: CA_17  and  N_19
REMARK    9  A    between atoms: CA_17  and  C_20
REMARK   10  A    between atoms: C_20  and  O_21
REMARK   11  A    between atoms: C_25  and  O_26
REMARK                            x       y       z     vdW  Elec       q    Type
REMARK                         _______ _______ _______ _____ _____    ______ ____
ROOT
ATOM      1  N   UNL     1       9.065  -1.669  24.188  0.00  0.00    -0.302 N 
ATOM      2  H   UNL     1       8.530  -1.055  24.793  0.00  0.00    +0.150 HD
ATOM      3  C   UNL     1      10.003  -1.124  23.346  0.00  0.00    +0.214 C 
ATOM      4  O   UNL     1      10.586  -1.808  22.511  0.00  0.00    -0.276 OA
ENDROOT
BRANCH   1  10
ATOM      5  C   UNL     1       4.583  -6.740  25.526  0.00  0.00    +0.042 C 
ATOM      6  C   UNL     1       5.644  -5.700  25.220  0.00  0.00    -0.034 C 
ATOM      7  C   UNL     1       6.612  -5.638  26.396  0.00  0.00    +0.103 C 
ATOM      8  S   UNL     1       8.286  -5.165  25.916  0.00  0.00    -0.131 S 
ATOM      9  C   UNL     1       7.693  -3.680  25.087  0.00  0.00    +0.169 C 
ATOM     10  CA  UNL     1       8.657  -3.093  24.007  0.00  0.00    +0.191 C 
ATOM     11  C   UNL     1       7.463  -3.342  23.050  0.00  0.00    +0.244 C 
ATOM     12  O   UNL     1       7.169  -3.075  21.908  0.00  0.00    -0.273 OA
ATOM     13  N   UNL     1       6.832  -4.082  23.981  0.00  0.00    -0.249 N 
ATOM     14  CA  UNL     1       5.770  -4.950  24.083  0.00  0.00    +0.122 C 
BRANCH  14  15
ATOM     15  C   UNL     1       4.794  -5.110  22.923  0.00  0.00    +0.351 C 
ATOM     16  OXT UNL     1       3.631  -4.739  22.947  0.00  0.00    -0.244 OA
BRANCH  15  17
ATOM     17  O   UNL     1       5.269  -5.649  21.785  0.00  0.00    -0.476 OA
ATOM     18  H   UNL     1       5.809  -6.464  21.835  0.00  0.00    +0.295 HD
ENDBRANCH  15  17
ENDBRANCH  14  15
ENDBRANCH   1  10
BRANCH   3  19
ATOM     19  C   UNL     1      10.254   0.357  23.539  0.00  0.00    +0.096 C 
BRANCH  19  20
ATOM     20  C   UNL     1      10.143   1.055  22.186  0.00  0.00    +0.011 C 
BRANCH  20  21
ATOM     21  C   UNL     1       8.842   0.761  21.435  0.00  0.00    +0.030 C 
BRANCH  21  22
ATOM     22  CA  UNL     1       7.762   1.829  21.681  0.00  0.00    +0.161 C 
BRANCH  22  23
ATOM     23  N   UNL     1       8.364   3.112  22.138  0.00  0.00    -0.318 NA
ATOM     24  H1  UNL     1       7.823   3.452  22.937  0.00  0.00    +0.119 HD
ATOM     25  H2  UNL     1       9.293   2.911  22.522  0.00  0.00    +0.119 HD
ENDBRANCH  22  23
BRANCH  22  26
ATOM     26  C   UNL     1       6.764   1.347  22.747  0.00  0.00    +0.322 C 
ATOM     27  OXT UNL     1       6.102   2.078  23.463  0.00  0.00    -0.249 OA
BRANCH  26  28
ATOM     28  O   UNL     1       6.668  -0.008  22.764  0.00  0.00    -0.480 OA
ATOM     29  H   UNL     1       5.937  -0.252  22.144  0.00  0.00    +0.295 HD
ENDBRANCH  26  28
ENDBRANCH  22  26
ENDBRANCH  21  22
ENDBRANCH  20  21
ENDBRANCH  19  20
ENDBRANCH   3  19
TORSDOF 10
ENDMDL
MODEL 2
REMARK VINA RESULT:      -6.3      1.683      2.095
REMARK  Name = 
REMARK  11 active torsions:
REMARK  status: ('A' for Active; 'I' for Inactive)
REMARK    1  A    between atoms: C_1  and  C_2
REMARK    2  A    between atoms: CA_3  and  C_25
REMARK    3  A    between atoms: CA_9  and  N_11
REMARK    4  A    between atoms: C_12  and  C_14
REMARK    5  A    between atoms: C_14  and  C_15
REMARK    6  A    between atoms: C_15  and  C_16
REMARK    7  A    between atoms: C_16  and  CA_17
REMARK    8  A    between atoms: CA_17  and  N_19
REMARK    9  A    between atoms: CA_17  and  C_20
REMARK   10  A    between atoms: C_20  and  O_21
REMARK   11  A    between atoms: C_25  and  O_26
REMARK                            x       y       z     vdW  Elec       q    Type
REMARK                         _______ _______ _______ _____ _____    ______ ____
ROOT
ATOM      1  N   UNL     1       8.100  -1.893  22.074  0.00  0.00    -0.302 N 
ATOM      2  H   UNL     1       7.326  -1.432  21.605  0.00  0.00    +0.150 HD
ATOM      3  C   UNL     1       9.344  -1.313  22.036  0.00  0.00    +0.214 C 
ATOM      4  O   UNL     1      10.331  -1.889  22.480  0.00  0.00    -0.276 OA
ENDROOT
BRANCH   1  10
ATOM      5  C   UNL     1       5.266  -6.370  26.491  0.00  0.00    +0.042 C 
ATOM      6  C   UNL     1       5.973  -5.452  25.512  0.00  0.00    -0.034 C 
ATOM      7  C   UNL     1       7.180  -4.838  26.212  0.00  0.00    +0.103 C 
ATOM      8  S   UNL     1       8.536  -4.453  25.085  0.00  0.00    -0.131 S 
ATOM      9  C   UNL     1       7.455  -3.484  24.019  0.00  0.00    +0.169 C 
ATOM     10  CA  UNL     1       7.961  -3.299  22.553  0.00  0.00    +0.191 C 
ATOM     11  C   UNL     1       6.636  -4.015  22.185  0.00  0.00    +0.244 C 
ATOM     12  O   UNL     1       6.006  -4.257  21.182  0.00  0.00    -0.273 OA
ATOM     13  N   UNL     1       6.436  -4.371  23.468  0.00  0.00    -0.249 N 
ATOM     14  CA  UNL     1       5.640  -5.215  24.207  0.00  0.00    +0.122 C 
BRANCH  14  15
ATOM     15  C   UNL     1       4.450  -5.912  23.559  0.00  0.00    +0.351 C 
ATOM     16  OXT UNL     1       3.513  -5.330  23.034  0.00  0.00    -0.244 OA
BRANCH  15  17
ATOM     17  O   UNL     1       4.467  -7.257  23.522  0.00  0.00    -0.476 OA
ATOM     18  H   UNL     1       3.778  -7.754  24.010  0.00  0.00    +0.295 HD
ENDBRANCH  15  17
ENDBRANCH  14  15
ENDBRANCH   1  10
BRANCH   3  19
ATOM     19  C   UNL     1       9.388   0.071  21.421  0.00  0.00    +0.096 C 
BRANCH  19  20
ATOM     20  C   UNL     1      10.089   1.018  22.391  0.00  0.00    +0.011 C 
BRANCH  20  21
ATOM     21  C   UNL     1       9.156   1.671  23.414  0.00  0.00    +0.030 C 
BRANCH  21  22
ATOM     22  CA  UNL     1       9.348   1.110  24.833  0.00  0.00    +0.161 C 
BRANCH  22  23
ATOM     23  N   UNL     1      10.666   0.431  24.972  0.00  0.00    -0.318 NA
ATOM     24  H1  UNL     1      11.350   1.121  25.292  0.00  0.00    +0.119 HD
ATOM     25  H2  UNL     1      10.600  -0.242  25.743  0.00  0.00    +0.119 HD
ENDBRANCH  22  23
BRANCH  22  26
ATOM     26  C   UNL     1       8.237   0.101  25.167  0.00  0.00    +0.322 C 
ATOM     27  OXT UNL     1       7.196  -0.022  24.546  0.00  0.00    -0.249 OA
BRANCH  26  28
ATOM     28  O   UNL     1       8.579  -0.685  26.222  0.00  0.00    -0.480 OA
ATOM     29  H   UNL     1       7.852  -1.346  26.335  0.00  0.00    +0.295 HD
ENDBRANCH  26  28
ENDBRANCH  22  26
ENDBRANCH  21  22
ENDBRANCH  20  21
ENDBRANCH  19  20
ENDBRANCH   3  19
TORSDOF 10
ENDMDL
MODEL 3
REMARK VINA RESULT:      -6.3      2.937      7.176
REMARK  Name = 
REMARK  11 active torsions:
REMARK  status: ('A' for Active; 'I' for Inactive)
REMARK    1  A    between atoms: C_1  and  C_2
REMARK    2  A    between atoms: CA_3  and  C_25
REMARK    3  A    between atoms: CA_9  and  N_11
REMARK    4  A    between atoms: C_12  and  C_14
REMARK    5  A    between atoms: C_14  and  C_15
REMARK    6  A    between atoms: C_15  and  C_16
REMARK    7  A    between atoms: C_16  and  CA_17
REMARK    8  A    between atoms: CA_17  and  N_19
REMARK    9  A    between atoms: CA_17  and  C_20
REMARK   10  A    between atoms: C_20  and  O_21
REMARK   11  A    between atoms: C_25  and  O_26
REMARK                            x       y       z     vdW  Elec       q    Type
REMARK                         _______ _______ _______ _____ _____    ______ ____
ROOT
ATOM      1  N   UNL     1       7.687  -2.598  22.801  0.00  0.00    -0.302 N 
ATOM      2  H   UNL     1       8.602  -2.993  22.996  0.00  0.00    +0.150 HD
ATOM      3  C   UNL     1       6.648  -3.442  22.493  0.00  0.00    +0.214 C 
ATOM      4  O   UNL     1       5.559  -3.009  22.132  0.00  0.00    -0.276 OA
ENDROOT
BRANCH   1  10
ATOM      5  C   UNL     1       8.527   3.848  25.109  0.00  0.00    +0.042 C 
ATOM      6  C   UNL     1       8.260   2.466  24.543  0.00  0.00    -0.034 C 
ATOM      7  C   UNL     1       6.957   1.945  25.140  0.00  0.00    +0.103 C 
ATOM      8  S   UNL     1       6.073   0.817  24.043  0.00  0.00    -0.131 S 
ATOM      9  C   UNL     1       7.525  -0.232  23.853  0.00  0.00    +0.169 C 
ATOM     10  CA  UNL     1       7.531  -1.131  22.576  0.00  0.00    +0.191 C 
ATOM     11  C   UNL     1       8.829  -0.353  22.240  0.00  0.00    +0.244 C 
ATOM     12  O   UNL     1       9.719  -0.419  21.425  0.00  0.00    -0.273 OA
ATOM     13  N   UNL     1       8.576   0.548  23.209  0.00  0.00    -0.249 N 
ATOM     14  CA  UNL     1       9.011   1.784  23.627  0.00  0.00    +0.122 C 
BRANCH  14  15
ATOM     15  C   UNL     1      10.272   2.396  23.030  0.00  0.00    +0.351 C 
ATOM     16  OXT UNL     1      11.238   2.759  23.685  0.00  0.00    -0.244 OA
BRANCH  15  17
ATOM     17  O   UNL     1      10.340   2.491  21.690  0.00  0.00    -0.476 OA
ATOM     18  H   UNL     1       9.726   3.098  21.226  0.00  0.00    +0.295 HD
ENDBRANCH  15  17
ENDBRANCH  14  15
ENDBRANCH   1  10
BRANCH   3  19
ATOM     19  C   UNL     1       6.955  -4.918  22.645  0.00  0.00    +0.096 C 
BRANCH  19  20
ATOM     20  C   UNL     1       6.334  -5.417  23.947  0.00  0.00    +0.011 C 
BRANCH  20  21
ATOM     21  C   UNL     1       6.881  -4.736  25.204  0.00  0.00    +0.030 C 
BRANCH  21  22
ATOM     22  CA  UNL     1       8.143  -5.426  25.750  0.00  0.00    +0.161 C 
BRANCH  22  23
ATOM     23  N   UNL     1       8.153  -5.435  27.239  0.00  0.00    -0.318 NA
ATOM     24  H1  UNL     1       7.763  -6.326  27.556  0.00  0.00    +0.119 HD
ATOM     25  H2  UNL     1       9.128  -5.454  27.553  0.00  0.00    +0.119 HD
ENDBRANCH  22  23
BRANCH  22  26
ATOM     26  C   UNL     1       9.407  -4.704  25.254  0.00  0.00    +0.322 C 
ATOM     27  OXT UNL     1       9.440  -3.555  24.848  0.00  0.00    -0.249 OA
BRANCH  26  28
ATOM     28  O   UNL     1      10.508  -5.491  25.370  0.00  0.00    -0.480 OA
ATOM     29  H   UNL     1      10.912  -5.555  24.470  0.00  0.00    +0.295 HD
ENDBRANCH  26  28
ENDBRANCH  22  26
ENDBRANCH  21  22
ENDBRANCH  20  21
ENDBRANCH  19  20
ENDBRANCH   3  19
TORSDOF 10
ENDMDL
MODEL 4
REMARK VINA RESULT:      -6.1      1.464      1.772
REMARK  Name = 
REMARK  11 active torsions:
REMARK  status: ('A' for Active; 'I' for Inactive)
REMARK    1  A    between atoms: C_1  and  C_2
REMARK    2  A    between atoms: CA_3  and  C_25
REMARK    3  A    between atoms: CA_9  and  N_11
REMARK    4  A    between atoms: C_12  and  C_14
REMARK    5  A    between atoms: C_14  and  C_15
REMARK    6  A    between atoms: C_15  and  C_16
REMARK    7  A    between atoms: C_16  and  CA_17
REMARK    8  A    between atoms: CA_17  and  N_19
REMARK    9  A    between atoms: CA_17  and  C_20
REMARK   10  A    between atoms: C_20  and  O_21
REMARK   11  A    between atoms: C_25  and  O_26
REMARK                            x       y       z     vdW  Elec       q    Type
REMARK                         _______ _______ _______ _____ _____    ______ ____
ROOT
ATOM      1  N   UNL     1       9.228  -1.531  24.867  0.00  0.00    -0.302 N 
ATOM      2  H   UNL     1       8.643  -0.995  25.500  0.00  0.00    +0.150 HD
ATOM      3  C   UNL     1      10.191  -0.880  24.135  0.00  0.00    +0.214 C 
ATOM      4  O   UNL     1      10.837  -1.461  23.270  0.00  0.00    -0.276 OA
ENDROOT
BRANCH   1  10
ATOM      5  C   UNL     1       4.684  -6.713  25.156  0.00  0.00    +0.042 C 
ATOM      6  C   UNL     1       5.761  -5.647  25.086  0.00  0.00    -0.034 C 
ATOM      7  C   UNL     1       6.546  -5.668  26.394  0.00  0.00    +0.103 C 
ATOM      8  S   UNL     1       8.264  -5.150  26.201  0.00  0.00    -0.131 S 
ATOM      9  C   UNL     1       7.774  -3.611  25.405  0.00  0.00    +0.169 C 
ATOM     10  CA  UNL     1       8.875  -2.940  24.525  0.00  0.00    +0.191 C 
ATOM     11  C   UNL     1       7.838  -3.123  23.387  0.00  0.00    +0.244 C 
ATOM     12  O   UNL     1       7.710  -2.773  22.237  0.00  0.00    -0.273 OA
ATOM     13  N   UNL     1       7.090  -3.934  24.158  0.00  0.00    -0.249 N 
ATOM     14  CA  UNL     1       6.039  -4.814  24.039  0.00  0.00    +0.122 C 
BRANCH  14  15
ATOM     15  C   UNL     1       5.246  -4.892  22.739  0.00  0.00    +0.351 C 
ATOM     16  OXT UNL     1       4.099  -4.495  22.608  0.00  0.00    -0.244 OA
BRANCH  15  17
ATOM     17  O   UNL     1       5.878  -5.383  21.658  0.00  0.00    -0.476 OA
ATOM     18  H   UNL     1       6.573  -6.063  21.782  0.00  0.00    +0.295 HD
ENDBRANCH  15  17
ENDBRANCH  14  15
ENDBRANCH   1  10
BRANCH   3  19
ATOM     19  C   UNL     1      10.385   0.581  24.487  0.00  0.00    +0.096 C 
BRANCH  19  20
ATOM     20  C   UNL     1       9.033   1.181  24.860  0.00  0.00    +0.011 C 
BRANCH  20  21
ATOM     21  C   UNL     1       8.514   2.223  23.866  0.00  0.00    +0.030 C 
BRANCH  21  22
ATOM     22  CA  UNL     1       7.909   1.587  22.603  0.00  0.00    +0.161 C 
BRANCH  22  23
ATOM     23  N   UNL     1       7.146   0.351  22.932  0.00  0.00    -0.318 NA
ATOM     24  H1  UNL     1       7.730  -0.456  22.697  0.00  0.00    +0.119 HD
ATOM     25  H2  UNL     1       7.038   0.303  23.950  0.00  0.00    +0.119 HD
ENDBRANCH  22  23
BRANCH  22  26
ATOM     26  C   UNL     1       9.017   1.229  21.599  0.00  0.00    +0.322 C 
ATOM     27  OXT UNL     1       9.061   0.200  20.947  0.00  0.00    -0.249 OA
BRANCH  26  28
ATOM     28  O   UNL     1       9.928   2.230  21.484  0.00  0.00    -0.480 OA
ATOM     29  H   UNL     1      10.044   2.617  22.387  0.00  0.00    +0.295 HD
ENDBRANCH  26  28
ENDBRANCH  22  26
ENDBRANCH  21  22
ENDBRANCH  20  21
ENDBRANCH  19  20
ENDBRANCH   3  19
TORSDOF 10
ENDMDL
MODEL 5
REMARK VINA RESULT:      -6.1      1.503      1.797
REMARK  Name = 
REMARK  11 active torsions:
REMARK  status: ('A' for Active; 'I' for Inactive)
REMARK    1  A    between atoms: C_1  and  C_2
REMARK    2  A    between atoms: CA_3  and  C_25
REMARK    3  A    between atoms: CA_9  and  N_11
REMARK    4  A    between atoms: C_12  and  C_14
REMARK    5  A    between atoms: C_14  and  C_15
REMARK    6  A    between atoms: C_15  and  C_16
REMARK    7  A    between atoms: C_16  and  CA_17
REMARK    8  A    between atoms: CA_17  and  N_19
REMARK    9  A    between atoms: CA_17  and  C_20
REMARK   10  A    between atoms: C_20  and  O_21
REMARK   11  A    between atoms: C_25  and  O_26
REMARK                            x       y       z     vdW  Elec       q    Type
REMARK                         _______ _______ _______ _____ _____    ______ ____
ROOT
ATOM      1  N   UNL     1       8.226  -1.847  22.152  0.00  0.00    -0.302 N 
ATOM      2  H   UNL     1       7.530  -1.214  21.771  0.00  0.00    +0.150 HD
ATOM      3  C   UNL     1       9.543  -1.459  22.170  0.00  0.00    +0.214 C 
ATOM      4  O   UNL     1      10.433  -2.233  22.506  0.00  0.00    -0.276 OA
ENDROOT
BRANCH   1  10
ATOM      5  C   UNL     1       5.041  -6.474  26.156  0.00  0.00    +0.042 C 
ATOM      6  C   UNL     1       5.810  -5.534  25.248  0.00  0.00    -0.034 C 
ATOM      7  C   UNL     1       7.168  -5.254  25.882  0.00  0.00    +0.103 C 
ATOM      8  S   UNL     1       8.462  -4.913  24.672  0.00  0.00    -0.131 S 
ATOM      9  C   UNL     1       7.482  -3.614  23.899  0.00  0.00    +0.169 C 
ATOM     10  CA  UNL     1       7.878  -3.272  22.429  0.00  0.00    +0.191 C 
ATOM     11  C   UNL     1       6.416  -3.687  22.118  0.00  0.00    +0.244 C 
ATOM     12  O   UNL     1       5.664  -3.649  21.173  0.00  0.00    -0.273 OA
ATOM     13  N   UNL     1       6.273  -4.216  23.348  0.00  0.00    -0.249 N 
ATOM     14  CA  UNL     1       5.408  -5.029  24.042  0.00  0.00    +0.122 C 
BRANCH  14  15
ATOM     15  C   UNL     1       4.057  -5.401  23.444  0.00  0.00    +0.351 C 
ATOM     16  OXT UNL     1       2.985  -4.972  23.844  0.00  0.00    -0.244 OA
BRANCH  15  17
ATOM     17  O   UNL     1       4.058  -6.215  22.373  0.00  0.00    -0.476 OA
ATOM     18  H   UNL     1       3.295  -6.192  21.759  0.00  0.00    +0.295 HD
ENDBRANCH  15  17
ENDBRANCH  14  15
ENDBRANCH   1  10
BRANCH   3  19
ATOM     19  C   UNL     1       9.794  -0.023  21.758  0.00  0.00    +0.096 C 
BRANCH  19  20
ATOM     20  C   UNL     1      10.213   0.775  22.989  0.00  0.00    +0.011 C 
BRANCH  20  21
ATOM     21  C   UNL     1      10.172   2.294  22.796  0.00  0.00    +0.030 C 
BRANCH  21  22
ATOM     22  CA  UNL     1       8.930   2.939  23.435  0.00  0.00    +0.161 C 
BRANCH  22  23
ATOM     23  N   UNL     1       8.366   2.076  24.510  0.00  0.00    -0.318 NA
ATOM     24  H1  UNL     1       7.392   1.870  24.275  0.00  0.00    +0.119 HD
ATOM     25  H2  UNL     1       8.838   1.168  24.473  0.00  0.00    +0.119 HD
ENDBRANCH  22  23
BRANCH  22  26
ATOM     26  C   UNL     1       7.843   3.176  22.374  0.00  0.00    +0.322 C 
ATOM     27  OXT UNL     1       7.101   2.317  21.931  0.00  0.00    -0.249 OA
BRANCH  26  28
ATOM     28  O   UNL     1       7.771   4.486  22.019  0.00  0.00    -0.480 OA
ATOM     29  H   UNL     1       6.835   4.660  21.751  0.00  0.00    +0.295 HD
ENDBRANCH  26  28
ENDBRANCH  22  26
ENDBRANCH  21  22
ENDBRANCH  20  21
ENDBRANCH  19  20
ENDBRANCH   3  19
TORSDOF 10
ENDMDL
MODEL 6
REMARK VINA RESULT:      -5.9      2.933      4.046
REMARK  Name = 
REMARK  11 active torsions:
REMARK  status: ('A' for Active; 'I' for Inactive)
REMARK    1  A    between atoms: C_1  and  C_2
REMARK    2  A    between atoms: CA_3  and  C_25
REMARK    3  A    between atoms: CA_9  and  N_11
REMARK    4  A    between atoms: C_12  and  C_14
REMARK    5  A    between atoms: C_14  and  C_15
REMARK    6  A    between atoms: C_15  and  C_16
REMARK    7  A    between atoms: C_16  and  CA_17
REMARK    8  A    between atoms: CA_17  and  N_19
REMARK    9  A    between atoms: CA_17  and  C_20
REMARK   10  A    between atoms: C_20  and  O_21
REMARK   11  A    between atoms: C_25  and  O_26
REMARK                            x       y       z     vdW  Elec       q    Type
REMARK                         _______ _______ _______ _____ _____    ______ ____
ROOT
ATOM      1  N   UNL     1       7.528   0.273  24.737  0.00  0.00    -0.302 N 
ATOM      2  H   UNL     1       8.498   0.421  24.476  0.00  0.00    +0.150 HD
ATOM      3  C   UNL     1       6.817   1.313  25.283  0.00  0.00    +0.214 C 
ATOM      4  O   UNL     1       5.685   1.151  25.726  0.00  0.00    -0.276 OA
ENDROOT
BRANCH   1  10
ATOM      5  C   UNL     1       7.621  -6.233  22.443  0.00  0.00    +0.042 C 
ATOM      6  C   UNL     1       7.497  -4.815  22.970  0.00  0.00    -0.034 C 
ATOM      7  C   UNL     1       6.658  -4.007  21.986  0.00  0.00    +0.103 C 
ATOM      8  S   UNL     1       5.726  -2.676  22.771  0.00  0.00    -0.131 S 
ATOM      9  C   UNL     1       7.212  -2.005  23.537  0.00  0.00    +0.169 C 
ATOM     10  CA  UNL     1       6.964  -1.108  24.790  0.00  0.00    +0.191 C 
ATOM     11  C   UNL     1       7.834  -2.170  25.512  0.00  0.00    +0.244 C 
ATOM     12  O   UNL     1       8.357  -2.303  26.593  0.00  0.00    -0.273 OA
ATOM     13  N   UNL     1       7.746  -3.002  24.458  0.00  0.00    -0.249 N 
ATOM     14  CA  UNL     1       8.002  -4.315  24.138  0.00  0.00    +0.122 C 
BRANCH  14  15
ATOM     15  C   UNL     1       8.782  -5.202  25.101  0.00  0.00    +0.351 C 
ATOM     16  OXT UNL     1       8.283  -5.813  26.033  0.00  0.00    -0.244 OA
BRANCH  15  17
ATOM     17  O   UNL     1      10.099  -5.358  24.869  0.00  0.00    -0.476 OA
ATOM     18  H   UNL     1      10.592  -4.635  24.429  0.00  0.00    +0.295 HD
ENDBRANCH  15  17
ENDBRANCH  14  15
ENDBRANCH   1  10
BRANCH   3  19
ATOM     19  C   UNL     1       7.533   2.648  25.283  0.00  0.00    +0.096 C 
BRANCH  19  20
ATOM     20  C   UNL     1       8.180   2.859  23.917  0.00  0.00    +0.011 C 
BRANCH  20  21
ATOM     21  C   UNL     1       9.678   3.167  23.974  0.00  0.00    +0.030 C 
BRANCH  21  22
ATOM     22  CA  UNL     1      10.517   2.181  23.144  0.00  0.00    +0.161 C 
BRANCH  22  23
ATOM     23  N   UNL     1      10.036   2.112  21.736  0.00  0.00    -0.318 NA
ATOM     24  H1  UNL     1       9.705   1.161  21.558  0.00  0.00    +0.119 HD
ATOM     25  H2  UNL     1       9.198   2.696  21.656  0.00  0.00    +0.119 HD
ENDBRANCH  22  23
BRANCH  22  26
ATOM     26  C   UNL     1      10.449   0.771  23.756  0.00  0.00    +0.322 C 
ATOM     27  OXT UNL     1      10.285  -0.257  23.122  0.00  0.00    -0.249 OA
BRANCH  26  28
ATOM     28  O   UNL     1      10.646   0.802  25.100  0.00  0.00    -0.480 OA
ATOM     29  H   UNL     1      10.195   0.005  25.474  0.00  0.00    +0.295 HD
ENDBRANCH  26  28
ENDBRANCH  22  26
ENDBRANCH  21  22
ENDBRANCH  20  21
ENDBRANCH  19  20
ENDBRANCH   3  19
TORSDOF 10
ENDMDL
MODEL 7
REMARK VINA RESULT:      -5.9      2.499      2.857
REMARK  Name = 
REMARK  11 active torsions:
REMARK  status: ('A' for Active; 'I' for Inactive)
REMARK    1  A    between atoms: C_1  and  C_2
REMARK    2  A    between atoms: CA_3  and  C_25
REMARK    3  A    between atoms: CA_9  and  N_11
REMARK    4  A    between atoms: C_12  and  C_14
REMARK    5  A    between atoms: C_14  and  C_15
REMARK    6  A    between atoms: C_15  and  C_16
REMARK    7  A    between atoms: C_16  and  CA_17
REMARK    8  A    between atoms: CA_17  and  N_19
REMARK    9  A    between atoms: CA_17  and  C_20
REMARK   10  A    between atoms: C_20  and  O_21
REMARK   11  A    between atoms: C_25  and  O_26
REMARK                            x       y       z     vdW  Elec       q    Type
REMARK                         _______ _______ _______ _____ _____    ______ ____
ROOT
ATOM      1  N   UNL     1       8.196  -1.801  23.240  0.00  0.00    -0.302 N 
ATOM      2  H   UNL     1       8.521  -2.435  22.518  0.00  0.00    +0.150 HD
ATOM      3  C   UNL     1       8.913  -0.657  23.496  0.00  0.00    +0.214 C 
ATOM      4  O   UNL     1       8.632   0.076  24.437  0.00  0.00    -0.276 OA
ENDROOT
BRANCH   1  10
ATOM      5  C   UNL     1       4.584  -6.901  26.162  0.00  0.00    +0.042 C 
ATOM      6  C   UNL     1       5.295  -5.715  25.536  0.00  0.00    -0.034 C 
ATOM      7  C   UNL     1       4.626  -5.402  24.202  0.00  0.00    +0.103 C 
ATOM      8  S   UNL     1       4.718  -3.657  23.752  0.00  0.00    -0.131 S 
ATOM      9  C   UNL     1       6.507  -3.637  23.952  0.00  0.00    +0.169 C 
ATOM     10  CA  UNL     1       7.132  -2.226  24.195  0.00  0.00    +0.191 C 
ATOM     11  C   UNL     1       7.623  -2.860  25.523  0.00  0.00    +0.244 C 
ATOM     12  O   UNL     1       8.365  -2.560  26.429  0.00  0.00    -0.273 OA
ATOM     13  N   UNL     1       6.818  -3.925  25.348  0.00  0.00    -0.249 N 
ATOM     14  CA  UNL     1       6.334  -4.998  26.059  0.00  0.00    +0.122 C 
BRANCH  14  15
ATOM     15  C   UNL     1       6.913  -5.336  27.428  0.00  0.00    +0.351 C 
ATOM     16  OXT UNL     1       6.379  -5.054  28.490  0.00  0.00    -0.244 OA
BRANCH  15  17
ATOM     17  O   UNL     1       8.062  -6.036  27.458  0.00  0.00    -0.476 OA
ATOM     18  H   UNL     1       8.494  -6.201  28.321  0.00  0.00    +0.295 HD
ENDBRANCH  15  17
ENDBRANCH  14  15
ENDBRANCH   1  10
BRANCH   3  19
ATOM     19  C   UNL     1      10.048  -0.383  22.530  0.00  0.00    +0.096 C 
BRANCH  19  20
ATOM     20  C   UNL     1       9.956   1.068  22.064  0.00  0.00    +0.011 C 
BRANCH  20  21
ATOM     21  C   UNL     1       8.636   1.423  21.375  0.00  0.00    +0.030 C 
BRANCH  21  22
ATOM     22  CA  UNL     1       7.911   2.597  22.053  0.00  0.00    +0.161 C 
BRANCH  22  23
ATOM     23  N   UNL     1       8.580   2.983  23.327  0.00  0.00    -0.318 NA
ATOM     24  H1  UNL     1       7.859   3.284  23.988  0.00  0.00    +0.119 HD
ATOM     25  H2  UNL     1       8.978   2.138  23.748  0.00  0.00    +0.119 HD
ENDBRANCH  22  23
BRANCH  22  26
ATOM     26  C   UNL     1       6.451   2.222  22.359  0.00  0.00    +0.322 C 
ATOM     27  OXT UNL     1       5.509   2.994  22.315  0.00  0.00    -0.249 OA
BRANCH  26  28
ATOM     28  O   UNL     1       6.325   0.899  22.640  0.00  0.00    -0.480 OA
ATOM     29  H   UNL     1       6.358   0.418  21.777  0.00  0.00    +0.295 HD
ENDBRANCH  26  28
ENDBRANCH  22  26
ENDBRANCH  21  22
ENDBRANCH  20  21
ENDBRANCH  19  20
ENDBRANCH   3  19
TORSDOF 10
ENDMDL
MODEL 8
REMARK VINA RESULT:      -5.8      3.949      8.508
REMARK  Name = 
REMARK  11 active torsions:
REMARK  status: ('A' for Active; 'I' for Inactive)
REMARK    1  A    between atoms: C_1  and  C_2
REMARK    2  A    between atoms: CA_3  and  C_25
REMARK    3  A    between atoms: CA_9  and  N_11
REMARK    4  A    between atoms: C_12  and  C_14
REMARK    5  A    between atoms: C_14  and  C_15
REMARK    6  A    between atoms: C_15  and  C_16
REMARK    7  A    between atoms: C_16  and  CA_17
REMARK    8  A    between atoms: CA_17  and  N_19
REMARK    9  A    between atoms: CA_17  and  C_20
REMARK   10  A    between atoms: C_20  and  O_21
REMARK   11  A    between atoms: C_25  and  O_26
REMARK                            x       y       z     vdW  Elec       q    Type
REMARK                         _______ _______ _______ _____ _____    ______ ____
ROOT
ATOM      1  N   UNL     1       9.174   0.218  23.622  0.00  0.00    -0.302 N 
ATOM      2  H   UNL     1       9.017   0.186  24.625  0.00  0.00    +0.150 HD
ATOM      3  C   UNL     1       9.705  -0.882  22.994  0.00  0.00    +0.214 C 
ATOM      4  O   UNL     1      10.026  -0.849  21.811  0.00  0.00    -0.276 OA
ENDROOT
BRANCH   1  10
ATOM      5  C   UNL     1       7.230   6.836  23.523  0.00  0.00    +0.042 C 
ATOM      6  C   UNL     1       7.647   5.380  23.438  0.00  0.00    -0.034 C 
ATOM      7  C   UNL     1       6.427   4.551  23.052  0.00  0.00    +0.103 C 
ATOM      8  S   UNL     1       6.844   3.065  22.115  0.00  0.00    -0.131 S 
ATOM      9  C   UNL     1       8.008   2.523  23.377  0.00  0.00    +0.169 C 
ATOM     10  CA  UNL     1       9.095   1.514  22.888  0.00  0.00    +0.191 C 
ATOM     11  C   UNL     1      10.083   2.617  23.348  0.00  0.00    +0.244 C 
ATOM     12  O   UNL     1      11.277   2.734  23.499  0.00  0.00    -0.273 OA
ATOM     13  N   UNL     1       9.080   3.507  23.470  0.00  0.00    -0.249 N 
ATOM     14  CA  UNL     1       8.897   4.861  23.631  0.00  0.00    +0.122 C 
BRANCH  14  15
ATOM     15  C   UNL     1      10.082   5.762  23.959  0.00  0.00    +0.351 C 
ATOM     16  OXT UNL     1      10.226   6.350  25.019  0.00  0.00    -0.244 OA
BRANCH  15  17
ATOM     17  O   UNL     1      11.052   5.869  23.033  0.00  0.00    -0.476 OA
ATOM     18  H   UNL     1      11.130   6.701  22.521  0.00  0.00    +0.295 HD
ENDBRANCH  15  17
ENDBRANCH  14  15
ENDBRANCH   1  10
BRANCH   3  19
ATOM     19  C   UNL     1       9.849  -2.112  23.867  0.00  0.00    +0.096 C 
BRANCH  19  20
ATOM     20  C   UNL     1       8.487  -2.787  23.992  0.00  0.00    +0.011 C 
BRANCH  20  21
ATOM     21  C   UNL     1       8.555  -4.301  24.208  0.00  0.00    +0.030 C 
BRANCH  21  22
ATOM     22  CA  UNL     1       8.853  -4.679  25.669  0.00  0.00    +0.161 C 
BRANCH  22  23
ATOM     23  N   UNL     1      10.030  -5.587  25.763  0.00  0.00    -0.318 NA
ATOM     24  H1  UNL     1       9.700  -6.507  26.066  0.00  0.00    +0.119 HD
ATOM     25  H2  UNL     1      10.392  -5.741  24.817  0.00  0.00    +0.119 HD
ENDBRANCH  22  23
BRANCH  22  26
ATOM     26  C   UNL     1       7.639  -5.381  26.300  0.00  0.00    +0.322 C 
ATOM     27  OXT UNL     1       6.544  -5.486  25.776  0.00  0.00    -0.249 OA
BRANCH  26  28
ATOM     28  O   UNL     1       7.949  -5.922  27.507  0.00  0.00    -0.480 OA
ATOM     29  H   UNL     1       7.473  -6.787  27.564  0.00  0.00    +0.295 HD
ENDBRANCH  26  28
ENDBRANCH  22  26
ENDBRANCH  21  22
ENDBRANCH  20  21
ENDBRANCH  19  20
ENDBRANCH   3  19
TORSDOF 10
ENDMDL
MODEL 9
REMARK VINA RESULT:      -5.7      2.182      2.383
REMARK  Name = 
REMARK  11 active torsions:
REMARK  status: ('A' for Active; 'I' for Inactive)
REMARK    1  A    between atoms: C_1  and  C_2
REMARK    2  A    between atoms: CA_3  and  C_25
REMARK    3  A    between atoms: CA_9  and  N_11
REMARK    4  A    between atoms: C_12  and  C_14
REMARK    5  A    between atoms: C_14  and  C_15
REMARK    6  A    between atoms: C_15  and  C_16
REMARK    7  A    between atoms: C_16  and  CA_17
REMARK    8  A    between atoms: CA_17  and  N_19
REMARK    9  A    between atoms: CA_17  and  C_20
REMARK   10  A    between atoms: C_20  and  O_21
REMARK   11  A    between atoms: C_25  and  O_26
REMARK                            x       y       z     vdW  Elec       q    Type
REMARK                         _______ _______ _______ _____ _____    ______ ____
ROOT
ATOM      1  N   UNL     1       8.302  -2.359  23.667  0.00  0.00    -0.302 N 
ATOM      2  H   UNL     1       7.771  -1.684  23.124  0.00  0.00    +0.150 HD
ATOM      3  C   UNL     1       9.657  -2.455  23.470  0.00  0.00    +0.214 C 
ATOM      4  O   UNL     1      10.320  -3.335  24.010  0.00  0.00    -0.276 OA
ENDROOT
BRANCH   1  10
ATOM      5  C   UNL     1       2.374  -5.080  25.914  0.00  0.00    +0.042 C 
ATOM      6  C   UNL     1       3.725  -4.522  25.507  0.00  0.00    -0.034 C 
ATOM      7  C   UNL     1       4.087  -3.390  26.462  0.00  0.00    +0.103 C 
ATOM      8  S   UNL     1       5.866  -3.197  26.696  0.00  0.00    -0.131 S 
ATOM      9  C   UNL     1       6.147  -3.077  24.921  0.00  0.00    +0.169 C 
ATOM     10  CA  UNL     1       7.599  -3.413  24.455  0.00  0.00    +0.191 C 
ATOM     11  C   UNL     1       6.895  -4.522  23.630  0.00  0.00    +0.244 C 
ATOM     12  O   UNL     1       7.197  -5.316  22.770  0.00  0.00    -0.273 OA
ATOM     13  N   UNL     1       5.745  -4.336  24.304  0.00  0.00    -0.249 N 
ATOM     14  CA  UNL     1       4.530  -4.953  24.489  0.00  0.00    +0.122 C 
BRANCH  14  15
ATOM     15  C   UNL     1       4.125  -6.131  23.611  0.00  0.00    +0.351 C 
ATOM     16  OXT UNL     1       3.535  -6.026  22.547  0.00  0.00    -0.244 OA
BRANCH  15  17
ATOM     17  O   UNL     1       4.493  -7.361  24.017  0.00  0.00    -0.476 OA
ATOM     18  H   UNL     1       5.344  -7.730  23.702  0.00  0.00    +0.295 HD
ENDBRANCH  15  17
ENDBRANCH  14  15
ENDBRANCH   1  10
BRANCH   3  19
ATOM     19  C   UNL     1      10.249  -1.401  22.557  0.00  0.00    +0.096 C 
BRANCH  19  20
ATOM     20  C   UNL     1       9.114  -0.576  21.958  0.00  0.00    +0.011 C 
BRANCH  20  21
ATOM     21  C   UNL     1       9.485   0.879  21.660  0.00  0.00    +0.030 C 
BRANCH  21  22
ATOM     22  CA  UNL     1       8.999   1.849  22.750  0.00  0.00    +0.161 C 
BRANCH  22  23
ATOM     23  N   UNL     1       8.566   3.148  22.163  0.00  0.00    -0.318 NA
ATOM     24  H1  UNL     1       8.381   3.799  22.930  0.00  0.00    +0.119 HD
ATOM     25  H2  UNL     1       9.364   3.556  21.666  0.00  0.00    +0.119 HD
ENDBRANCH  22  23
BRANCH  22  26
ATOM     26  C   UNL     1      10.119   2.119  23.768  0.00  0.00    +0.322 C 
ATOM     27  OXT UNL     1      11.037   2.904  23.603  0.00  0.00    -0.249 OA
BRANCH  26  28
ATOM     28  O   UNL     1       9.937   1.406  24.910  0.00  0.00    -0.480 OA
ATOM     29  H   UNL     1       8.961   1.292  25.024  0.00  0.00    +0.295 HD
ENDBRANCH  26  28
ENDBRANCH  22  26
ENDBRANCH  21  22
ENDBRANCH  20  21
ENDBRANCH  19  20
ENDBRANCH   3  19
TORSDOF 10
ENDMDL
