MODEL 1
REMARK VINA RESULT:      -7.2      0.000      0.000
REMARK  Name = 
REMARK  6 active torsions:
REMARK  status: ('A' for Active; 'I' for Inactive)
REMARK    1  A    between atoms: O_1  and  C_2
REMARK    2  A    between atoms: C_2  and  C_4
REMARK    3  A    between atoms: C_16  and  C_17
REMARK    4  A    between atoms: C_17  and  O_18
REMARK    5  A    between atoms: N_20  and  C_21
REMARK    6  A    between atoms: C_23  and  C_27
REMARK                            x       y       z     vdW  Elec       q    Type
REMARK                         _______ _______ _______ _____ _____    ______ ____
ROOT
ATOM      1  C   UNL     1       5.226  -5.481  23.132  0.00  0.00    +0.103 A 
ATOM      2  C   UNL     1       5.377  -4.317  23.912  0.00  0.00    +0.164 A 
ATOM      3  O   UNL     1       4.362  -4.046  24.791  0.00  0.00    -0.451 OA
ATOM      4  C   UNL     1       4.400  -2.881  25.511  0.00  0.00    +0.164 A 
ATOM      5  C   UNL     1       3.342  -2.676  26.423  0.00  0.00    +0.103 A 
ATOM      6  C   UNL     1       3.279  -1.501  27.173  0.00  0.00    +0.019 A 
ATOM      7  C   UNL     1       4.199  -0.495  26.934  0.00  0.00    +0.003 A 
ATOM      8  C   UNL     1       5.217  -0.690  25.995  0.00  0.00    +0.027 A 
ATOM      9  C   UNL     1       5.415  -1.922  25.338  0.00  0.00    +0.082 A 
ATOM     10  N   UNL     1       6.574  -2.230  24.508  0.00  0.00    -0.263 N 
ATOM     11  C   UNL     1       6.524  -3.503  23.804  0.00  0.00    +0.082 A 
ATOM     12  C   UNL     1       7.568  -4.005  23.003  0.00  0.00    +0.027 A 
ATOM     13  C   UNL     1       7.410  -5.136  22.195  0.00  0.00    +0.003 A 
ATOM     14  C   UNL     1       6.225  -5.856  22.233  0.00  0.00    +0.019 A 
ENDROOT
BRANCH  10  15
ATOM     15  C   UNL     1       7.686  -1.292  24.358  0.00  0.00    +0.040 A 
ATOM     16  C   UNL     1       8.783  -1.275  25.242  0.00  0.00    +0.024 A 
ATOM     17  C   UNL     1       9.855  -0.385  25.082  0.00  0.00    +0.002 A 
ATOM     18  C   UNL     1       9.948   0.390  23.934  0.00  0.00    +0.012 A 
ATOM     19  C   UNL     1       8.932   0.326  22.977  0.00  0.00    +0.057 A 
ATOM     20  C   UNL     1       7.763  -0.402  23.269  0.00  0.00    +0.036 A 
BRANCH  19  21
ATOM     21  C   UNL     1       9.161   0.909  21.602  0.00  0.00    +0.417 C 
ATOM     22  F   UNL     1       9.443  -0.055  20.684  0.00  0.00    -0.166 F 
ATOM     23  F   UNL     1      10.194   1.791  21.552  0.00  0.00    -0.166 F 
ATOM     24  F   UNL     1       8.070   1.566  21.110  0.00  0.00    -0.166 F 
ENDBRANCH  19  21
ENDBRANCH  10  15
BRANCH   1  25
ATOM     25  C   UNL     1       4.015  -6.343  23.166  0.00  0.00    +0.340 C 
ATOM     26  O   UNL     1       2.977  -6.026  22.610  0.00  0.00    -0.245 OA
BRANCH  25  27
ATOM     27  O   UNL     1       4.165  -7.515  23.804  0.00  0.00    -0.477 OA
ATOM     28  H   UNL     1       3.356  -8.059  23.908  0.00  0.00    +0.295 HD
ENDBRANCH  25  27
ENDBRANCH   1  25
BRANCH   5  29
ATOM     29  C   UNL     1       2.284  -3.684  26.702  0.00  0.00    +0.340 C 
ATOM     30  O   UNL     1       1.100  -3.402  26.655  0.00  0.00    -0.245 OA
BRANCH  29  31
ATOM     31  O   UNL     1       2.734  -4.923  26.948  0.00  0.00    -0.477 OA
ATOM     32  H   UNL     1       3.638  -5.140  26.622  0.00  0.00    +0.295 HD
ENDBRANCH  29  31
ENDBRANCH   5  29
TORSDOF 6
ENDMDL
MODEL 2
REMARK VINA RESULT:      -7.2      0.079      3.948
REMARK  Name = 
REMARK  6 active torsions:
REMARK  status: ('A' for Active; 'I' for Inactive)
REMARK    1  A    between atoms: O_1  and  C_2
REMARK    2  A    between atoms: C_2  and  C_4
REMARK    3  A    between atoms: C_16  and  C_17
REMARK    4  A    between atoms: C_17  and  O_18
REMARK    5  A    between atoms: N_20  and  C_21
REMARK    6  A    between atoms: C_23  and  C_27
REMARK                            x       y       z     vdW  Elec       q    Type
REMARK                         _______ _______ _______ _____ _____    ______ ____
ROOT
ATOM      1  C   UNL     1       3.357  -2.721  26.505  0.00  0.00    +0.103 A 
ATOM      2  C   UNL     1       4.392  -2.879  25.562  0.00  0.00    +0.164 A 
ATOM      3  O   UNL     1       4.349  -4.020  24.806  0.00  0.00    -0.451 OA
ATOM      4  C   UNL     1       5.375  -4.283  23.938  0.00  0.00    +0.164 A 
ATOM      5  C   UNL     1       5.254  -5.458  23.164  0.00  0.00    +0.103 A 
ATOM      6  C   UNL     1       6.269  -5.823  22.279  0.00  0.00    +0.019 A 
ATOM      7  C   UNL     1       7.439  -5.085  22.249  0.00  0.00    +0.003 A 
ATOM      8  C   UNL     1       7.568  -3.948  23.052  0.00  0.00    +0.027 A 
ATOM      9  C   UNL     1       6.506  -3.450  23.835  0.00  0.00    +0.082 A 
ATOM     10  N   UNL     1       6.530  -2.167  24.527  0.00  0.00    -0.263 N 
ATOM     11  C   UNL     1       5.393  -1.898  25.396  0.00  0.00    +0.082 A 
ATOM     12  C   UNL     1       5.205  -0.694  26.103  0.00  0.00    +0.027 A 
ATOM     13  C   UNL     1       4.205  -0.546  27.070  0.00  0.00    +0.003 A 
ATOM     14  C   UNL     1       3.301  -1.573  27.297  0.00  0.00    +0.019 A 
ENDROOT
BRANCH  10  15
ATOM     15  C   UNL     1       7.651  -1.238  24.391  0.00  0.00    +0.040 A 
ATOM     16  C   UNL     1       8.738  -1.230  25.288  0.00  0.00    +0.024 A 
ATOM     17  C   UNL     1       9.819  -0.350  25.140  0.00  0.00    +0.002 A 
ATOM     18  C   UNL     1       9.932   0.425  23.993  0.00  0.00    +0.012 A 
ATOM     19  C   UNL     1       8.926   0.369  23.025  0.00  0.00    +0.057 A 
ATOM     20  C   UNL     1       7.748  -0.349  23.303  0.00  0.00    +0.036 A 
BRANCH  19  21
ATOM     21  C   UNL     1       9.176   0.951  21.652  0.00  0.00    +0.417 C 
ATOM     22  F   UNL     1       9.443  -0.017  20.734  0.00  0.00    -0.166 F 
ATOM     23  F   UNL     1      10.228   1.810  21.611  0.00  0.00    -0.166 F 
ATOM     24  F   UNL     1       8.103   1.633  21.156  0.00  0.00    -0.166 F 
ENDBRANCH  19  21
ENDBRANCH  10  15
BRANCH   1  25
ATOM     25  C   UNL     1       2.312  -3.746  26.758  0.00  0.00    +0.340 C 
ATOM     26  O   UNL     1       1.122  -3.482  26.724  0.00  0.00    -0.245 OA
BRANCH  25  27
ATOM     27  O   UNL     1       2.770  -4.991  26.973  0.00  0.00    -0.477 OA
ATOM     28  H   UNL     1       2.216  -5.722  26.629  0.00  0.00    +0.295 HD
ENDBRANCH  25  27
ENDBRANCH   1  25
BRANCH   5  29
ATOM     29  C   UNL     1       4.053  -6.334  23.176  0.00  0.00    +0.340 C 
ATOM     30  O   UNL     1       3.021  -6.017  22.610  0.00  0.00    -0.245 OA
BRANCH  29  31
ATOM     31  O   UNL     1       4.215  -7.509  23.802  0.00  0.00    -0.477 OA
ATOM     32  H   UNL     1       4.211  -7.490  24.787  0.00  0.00    +0.295 HD
ENDBRANCH  29  31
ENDBRANCH   5  29
TORSDOF 6
ENDMDL
MODEL 3
REMARK VINA RESULT:      -7.2      5.023      8.205
REMARK  Name = 
REMARK  6 active torsions:
REMARK  status: ('A' for Active; 'I' for Inactive)
REMARK    1  A    between atoms: O_1  and  C_2
REMARK    2  A    between atoms: C_2  and  C_4
REMARK    3  A    between atoms: C_16  and  C_17
REMARK    4  A    between atoms: C_17  and  O_18
REMARK    5  A    between atoms: N_20  and  C_21
REMARK    6  A    between atoms: C_23  and  C_27
REMARK                            x       y       z     vdW  Elec       q    Type
REMARK                         _______ _______ _______ _____ _____    ______ ____
ROOT
ATOM      1  C   UNL     1       6.981   3.003  26.955  0.00  0.00    +0.103 A 
ATOM      2  C   UNL     1       7.470   2.108  25.982  0.00  0.00    +0.164 A 
ATOM      3  O   UNL     1       8.353   2.630  25.074  0.00  0.00    -0.451 OA
ATOM      4  C   UNL     1       8.793   1.840  24.045  0.00  0.00    +0.164 A 
ATOM      5  C   UNL     1       9.726   2.426  23.162  0.00  0.00    +0.103 A 
ATOM      6  C   UNL     1      10.202   1.708  22.065  0.00  0.00    +0.019 A 
ATOM      7  C   UNL     1       9.669   0.461  21.789  0.00  0.00    +0.003 A 
ATOM      8  C   UNL     1       8.711  -0.093  22.645  0.00  0.00    +0.027 A 
ATOM      9  C   UNL     1       8.327   0.526  23.852  0.00  0.00    +0.082 A 
ATOM     10  N   UNL     1       7.488  -0.105  24.865  0.00  0.00    -0.263 N 
ATOM     11  C   UNL     1       7.088   0.750  25.973  0.00  0.00    +0.082 A 
ATOM     12  C   UNL     1       6.329   0.311  27.076  0.00  0.00    +0.027 A 
ATOM     13  C   UNL     1       5.806   1.200  28.022  0.00  0.00    +0.003 A 
ATOM     14  C   UNL     1       6.104   2.553  27.942  0.00  0.00    +0.019 A 
ENDROOT
BRANCH  10  15
ATOM     15  C   UNL     1       7.040  -1.492  24.741  0.00  0.00    +0.040 A 
ATOM     16  C   UNL     1       5.820  -1.839  24.128  0.00  0.00    +0.024 A 
ATOM     17  C   UNL     1       5.406  -3.172  23.996  0.00  0.00    +0.002 A 
ATOM     18  C   UNL     1       6.280  -4.205  24.311  0.00  0.00    +0.012 A 
ATOM     19  C   UNL     1       7.544  -3.903  24.824  0.00  0.00    +0.057 A 
ATOM     20  C   UNL     1       7.846  -2.569  25.157  0.00  0.00    +0.036 A 
BRANCH  19  21
ATOM     21  C   UNL     1       8.606  -4.977  24.876  0.00  0.00    +0.417 C 
ATOM     22  F   UNL     1       8.592  -5.757  23.761  0.00  0.00    -0.166 F 
ATOM     23  F   UNL     1       8.470  -5.823  25.930  0.00  0.00    -0.166 F 
ATOM     24  F   UNL     1       9.873  -4.474  24.947  0.00  0.00    -0.166 F 
ENDBRANCH  19  21
ENDBRANCH  10  15
BRANCH   1  25
ATOM     25  C   UNL     1       7.308   4.453  26.977  0.00  0.00    +0.340 C 
ATOM     26  O   UNL     1       7.559   5.046  28.012  0.00  0.00    -0.245 OA
BRANCH  25  27
ATOM     27  O   UNL     1       7.361   5.046  25.773  0.00  0.00    -0.477 OA
ATOM     28  H   UNL     1       7.928   5.843  25.707  0.00  0.00    +0.295 HD
ENDBRANCH  25  27
ENDBRANCH   1  25
BRANCH   5  29
ATOM     29  C   UNL     1      10.309   3.780  23.357  0.00  0.00    +0.340 C 
ATOM     30  O   UNL     1      11.514   3.962  23.393  0.00  0.00    -0.245 OA
BRANCH  29  31
ATOM     31  O   UNL     1       9.415   4.777  23.432  0.00  0.00    -0.477 OA
ATOM     32  H   UNL     1       9.774   5.691  23.499  0.00  0.00    +0.295 HD
ENDBRANCH  29  31
ENDBRANCH   5  29
TORSDOF 6
ENDMDL
MODEL 4
REMARK VINA RESULT:      -7.1      4.994      7.321
REMARK  Name = 
REMARK  6 active torsions:
REMARK  status: ('A' for Active; 'I' for Inactive)
REMARK    1  A    between atoms: O_1  and  C_2
REMARK    2  A    between atoms: C_2  and  C_4
REMARK    3  A    between atoms: C_16  and  C_17
REMARK    4  A    between atoms: C_17  and  O_18
REMARK    5  A    between atoms: N_20  and  C_21
REMARK    6  A    between atoms: C_23  and  C_27
REMARK                            x       y       z     vdW  Elec       q    Type
REMARK                         _______ _______ _______ _____ _____    ______ ____
ROOT
ATOM      1  C   UNL     1       9.703   2.361  23.116  0.00  0.00    +0.103 A 
ATOM      2  C   UNL     1       8.755   1.784  23.985  0.00  0.00    +0.164 A 
ATOM      3  O   UNL     1       8.305   2.583  25.002  0.00  0.00    -0.451 OA
ATOM      4  C   UNL     1       7.456   2.055  25.938  0.00  0.00    +0.164 A 
ATOM      5  C   UNL     1       7.002   2.939  26.940  0.00  0.00    +0.103 A 
ATOM      6  C   UNL     1       6.162   2.479  27.955  0.00  0.00    +0.019 A 
ATOM      7  C   UNL     1       5.870   1.129  28.032  0.00  0.00    +0.003 A 
ATOM      8  C   UNL     1       6.361   0.252  27.059  0.00  0.00    +0.027 A 
ATOM      9  C   UNL     1       7.072   0.700  25.926  0.00  0.00    +0.082 A 
ATOM     10  N   UNL     1       7.429  -0.148  24.794  0.00  0.00    -0.263 N 
ATOM     11  C   UNL     1       8.285   0.468  23.791  0.00  0.00    +0.082 A 
ATOM     12  C   UNL     1       8.688  -0.167  22.600  0.00  0.00    +0.027 A 
ATOM     13  C   UNL     1       9.660   0.382  21.755  0.00  0.00    +0.003 A 
ATOM     14  C   UNL     1      10.193   1.633  22.031  0.00  0.00    +0.019 A 
ENDROOT
BRANCH  10  15
ATOM     15  C   UNL     1       6.991  -1.540  24.707  0.00  0.00    +0.040 A 
ATOM     16  C   UNL     1       5.757  -1.909  24.134  0.00  0.00    +0.024 A 
ATOM     17  C   UNL     1       5.352  -3.248  24.037  0.00  0.00    +0.002 A 
ATOM     18  C   UNL     1       6.243  -4.267  24.346  0.00  0.00    +0.012 A 
ATOM     19  C   UNL     1       7.518  -3.945  24.818  0.00  0.00    +0.057 A 
ATOM     20  C   UNL     1       7.817  -2.604  25.120  0.00  0.00    +0.036 A 
BRANCH  19  21
ATOM     21  C   UNL     1       8.591  -5.009  24.859  0.00  0.00    +0.417 C 
ATOM     22  F   UNL     1       8.578  -5.784  23.742  0.00  0.00    -0.166 F 
ATOM     23  F   UNL     1       8.470  -5.861  25.911  0.00  0.00    -0.166 F 
ATOM     24  F   UNL     1       9.854  -4.494  24.926  0.00  0.00    -0.166 F 
ENDBRANCH  19  21
ENDBRANCH  10  15
BRANCH   1  25
ATOM     25  C   UNL     1      10.272   3.721  23.307  0.00  0.00    +0.340 C 
ATOM     26  O   UNL     1      11.474   3.922  23.340  0.00  0.00    -0.245 OA
BRANCH  25  27
ATOM     27  O   UNL     1       9.370   4.713  23.384  0.00  0.00    -0.477 OA
ATOM     28  H   UNL     1       8.641   4.588  24.027  0.00  0.00    +0.295 HD
ENDBRANCH  25  27
ENDBRANCH   1  25
BRANCH   5  29
ATOM     29  C   UNL     1       7.312   4.394  26.961  0.00  0.00    +0.340 C 
ATOM     30  O   UNL     1       7.577   4.979  27.996  0.00  0.00    -0.245 OA
BRANCH  29  31
ATOM     31  O   UNL     1       7.333   4.985  25.757  0.00  0.00    -0.477 OA
ATOM     32  H   UNL     1       6.914   5.874  25.693  0.00  0.00    +0.295 HD
ENDBRANCH  29  31
ENDBRANCH   5  29
TORSDOF 6
ENDMDL
MODEL 5
REMARK VINA RESULT:      -6.9      4.747      6.536
REMARK  Name = 
REMARK  6 active torsions:
REMARK  status: ('A' for Active; 'I' for Inactive)
REMARK    1  A    between atoms: O_1  and  C_2
REMARK    2  A    between atoms: C_2  and  C_4
REMARK    3  A    between atoms: C_16  and  C_17
REMARK    4  A    between atoms: C_17  and  O_18
REMARK    5  A    between atoms: N_20  and  C_21
REMARK    6  A    between atoms: C_23  and  C_27
REMARK                            x       y       z     vdW  Elec       q    Type
REMARK                         _______ _______ _______ _____ _____    ______ ____
ROOT
ATOM      1  C   UNL     1       8.439   0.516  22.183  0.00  0.00    +0.103 A 
ATOM      2  C   UNL     1       7.650  -0.016  23.223  0.00  0.00    +0.164 A 
ATOM      3  O   UNL     1       6.722   0.831  23.768  0.00  0.00    -0.451 OA
ATOM      4  C   UNL     1       5.988   0.410  24.845  0.00  0.00    +0.164 A 
ATOM      5  C   UNL     1       5.025   1.317  25.339  0.00  0.00    +0.103 A 
ATOM      6  C   UNL     1       4.256   0.987  26.455  0.00  0.00    +0.019 A 
ATOM      7  C   UNL     1       4.522  -0.188  27.137  0.00  0.00    +0.003 A 
ATOM      8  C   UNL     1       5.509  -1.060  26.665  0.00  0.00    +0.027 A 
ATOM      9  C   UNL     1       6.192  -0.845  25.450  0.00  0.00    +0.082 A 
ATOM     10  N   UNL     1       7.078  -1.819  24.825  0.00  0.00    -0.263 N 
ATOM     11  C   UNL     1       7.797  -1.353  23.649  0.00  0.00    +0.082 A 
ATOM     12  C   UNL     1       8.651  -2.161  22.873  0.00  0.00    +0.027 A 
ATOM     13  C   UNL     1       9.468  -1.631  21.867  0.00  0.00    +0.003 A 
ATOM     14  C   UNL     1       9.387  -0.284  21.545  0.00  0.00    +0.019 A 
ENDROOT
BRANCH  10  15
ATOM     15  C   UNL     1       7.263  -3.160  25.379  0.00  0.00    +0.040 A 
ATOM     16  C   UNL     1       8.345  -3.485  26.222  0.00  0.00    +0.024 A 
ATOM     17  C   UNL     1       8.506  -4.767  26.765  0.00  0.00    +0.002 A 
ATOM     18  C   UNL     1       7.497  -5.712  26.627  0.00  0.00    +0.012 A 
ATOM     19  C   UNL     1       6.356  -5.395  25.887  0.00  0.00    +0.057 A 
ATOM     20  C   UNL     1       6.322  -4.186  25.167  0.00  0.00    +0.036 A 
BRANCH  19  21
ATOM     21  C   UNL     1       5.131  -6.275  25.987  0.00  0.00    +0.417 C 
ATOM     22  F   UNL     1       3.991  -5.543  26.107  0.00  0.00    -0.166 F 
ATOM     23  F   UNL     1       5.153  -7.116  27.054  0.00  0.00    -0.166 F 
ATOM     24  F   UNL     1       4.942  -7.057  24.885  0.00  0.00    -0.166 F 
ENDBRANCH  19  21
ENDBRANCH  10  15
BRANCH   1  25
ATOM     25  C   UNL     1       8.363   1.931  21.735  0.00  0.00    +0.340 C 
ATOM     26  O   UNL     1       7.304   2.468  21.458  0.00  0.00    -0.245 OA
BRANCH  25  27
ATOM     27  O   UNL     1       9.535   2.587  21.709  0.00  0.00    -0.477 OA
ATOM     28  H   UNL     1      10.315   2.070  21.417  0.00  0.00    +0.295 HD
ENDBRANCH  25  27
ENDBRANCH   1  25
BRANCH   5  29
ATOM     29  C   UNL     1       4.715   2.622  24.697  0.00  0.00    +0.340 C 
ATOM     30  O   UNL     1       5.002   3.682  25.225  0.00  0.00    -0.245 OA
BRANCH  29  31
ATOM     31  O   UNL     1       4.153   2.536  23.482  0.00  0.00    -0.477 OA
ATOM     32  H   UNL     1       3.743   1.673  23.243  0.00  0.00    +0.295 HD
ENDBRANCH  29  31
ENDBRANCH   5  29
TORSDOF 6
ENDMDL
MODEL 6
REMARK VINA RESULT:      -6.8      4.197      6.473
REMARK  Name = 
REMARK  6 active torsions:
REMARK  status: ('A' for Active; 'I' for Inactive)
REMARK    1  A    between atoms: O_1  and  C_2
REMARK    2  A    between atoms: C_2  and  C_4
REMARK    3  A    between atoms: C_16  and  C_17
REMARK    4  A    between atoms: C_17  and  O_18
REMARK    5  A    between atoms: N_20  and  C_21
REMARK    6  A    between atoms: C_23  and  C_27
REMARK                            x       y       z     vdW  Elec       q    Type
REMARK                         _______ _______ _______ _____ _____    ______ ____
ROOT
ATOM      1  C   UNL     1       8.579   2.104  22.809  0.00  0.00    +0.103 A 
ATOM      2  C   UNL     1       7.818   1.094  23.431  0.00  0.00    +0.164 A 
ATOM      3  O   UNL     1       6.818   1.520  24.265  0.00  0.00    -0.451 OA
ATOM      4  C   UNL     1       6.104   0.592  24.975  0.00  0.00    +0.164 A 
ATOM      5  C   UNL     1       5.065   1.093  25.791  0.00  0.00    +0.103 A 
ATOM      6  C   UNL     1       4.309   0.224  26.577  0.00  0.00    +0.019 A 
ATOM      7  C   UNL     1       4.656  -1.114  26.634  0.00  0.00    +0.003 A 
ATOM      8  C   UNL     1       5.715  -1.593  25.857  0.00  0.00    +0.027 A 
ATOM      9  C   UNL     1       6.397  -0.784  24.925  0.00  0.00    +0.082 A 
ATOM     10  N   UNL     1       7.367  -1.286  23.958  0.00  0.00    -0.263 N 
ATOM     11  C   UNL     1       8.064  -0.273  23.181  0.00  0.00    +0.082 A 
ATOM     12  C   UNL     1       8.992  -0.559  22.159  0.00  0.00    +0.027 A 
ATOM     13  C   UNL     1       9.779   0.434  21.567  0.00  0.00    +0.003 A 
ATOM     14  C   UNL     1       9.596   1.765  21.917  0.00  0.00    +0.019 A 
ENDROOT
BRANCH  10  15
ATOM     15  C   UNL     1       7.649  -2.715  23.821  0.00  0.00    +0.040 A 
ATOM     16  C   UNL     1       8.418  -3.426  24.763  0.00  0.00    +0.024 A 
ATOM     17  C   UNL     1       8.670  -4.799  24.635  0.00  0.00    +0.002 A 
ATOM     18  C   UNL     1       8.012  -5.537  23.659  0.00  0.00    +0.012 A 
ATOM     19  C   UNL     1       7.155  -4.888  22.767  0.00  0.00    +0.057 A 
ATOM     20  C   UNL     1       7.098  -3.482  22.776  0.00  0.00    +0.036 A 
BRANCH  19  21
ATOM     21  C   UNL     1       6.205  -5.700  21.917  0.00  0.00    +0.417 C 
ATOM     22  F   UNL     1       6.244  -5.319  20.612  0.00  0.00    -0.166 F 
ATOM     23  F   UNL     1       4.907  -5.593  22.303  0.00  0.00    -0.166 F 
ATOM     24  F   UNL     1       6.496  -7.033  21.913  0.00  0.00    -0.166 F 
ENDBRANCH  19  21
ENDBRANCH  10  15
BRANCH   1  25
ATOM     25  C   UNL     1       8.398   3.554  23.080  0.00  0.00    +0.340 C 
ATOM     26  O   UNL     1       8.853   4.090  24.076  0.00  0.00    -0.245 OA
BRANCH  25  27
ATOM     27  O   UNL     1       7.747   4.238  22.125  0.00  0.00    -0.477 OA
ATOM     28  H   UNL     1       8.298   4.610  21.405  0.00  0.00    +0.295 HD
ENDBRANCH  25  27
ENDBRANCH   1  25
BRANCH   5  29
ATOM     29  C   UNL     1       4.662   2.524  25.828  0.00  0.00    +0.340 C 
ATOM     30  O   UNL     1       3.500   2.867  25.702  0.00  0.00    -0.245 OA
BRANCH  29  31
ATOM     31  O   UNL     1       5.661   3.388  26.064  0.00  0.00    -0.477 OA
ATOM     32  H   UNL     1       6.541   3.163  25.683  0.00  0.00    +0.295 HD
ENDBRANCH  29  31
ENDBRANCH   5  29
TORSDOF 6
ENDMDL
MODEL 7
REMARK VINA RESULT:      -6.8      4.743      7.474
REMARK  Name = 
REMARK  6 active torsions:
REMARK  status: ('A' for Active; 'I' for Inactive)
REMARK    1  A    between atoms: O_1  and  C_2
REMARK    2  A    between atoms: C_2  and  C_4
REMARK    3  A    between atoms: C_16  and  C_17
REMARK    4  A    between atoms: C_17  and  O_18
REMARK    5  A    between atoms: N_20  and  C_21
REMARK    6  A    between atoms: C_23  and  C_27
REMARK                            x       y       z     vdW  Elec       q    Type
REMARK                         _______ _______ _______ _____ _____    ______ ____
ROOT
ATOM      1  C   UNL     1       5.040   1.377  25.295  0.00  0.00    +0.103 A 
ATOM      2  C   UNL     1       6.015   0.469  24.837  0.00  0.00    +0.164 A 
ATOM      3  O   UNL     1       6.780   0.888  23.781  0.00  0.00    -0.451 OA
ATOM      4  C   UNL     1       7.681   0.020  23.225  0.00  0.00    +0.164 A 
ATOM      5  C   UNL     1       8.462   0.524  22.162  0.00  0.00    +0.103 A 
ATOM      6  C   UNL     1       9.380  -0.301  21.513  0.00  0.00    +0.019 A 
ATOM      7  C   UNL     1       9.440  -1.643  21.847  0.00  0.00    +0.003 A 
ATOM      8  C   UNL     1       8.630  -2.143  22.871  0.00  0.00    +0.027 A 
ATOM      9  C   UNL     1       7.812  -1.312  23.663  0.00  0.00    +0.082 A 
ATOM     10  N   UNL     1       7.108  -1.756  24.861  0.00  0.00    -0.263 N 
ATOM     11  C   UNL     1       6.203  -0.785  25.457  0.00  0.00    +0.082 A 
ATOM     12  C   UNL     1       5.480  -1.003  26.646  0.00  0.00    +0.027 A 
ATOM     13  C   UNL     1       4.481  -0.127  27.083  0.00  0.00    +0.003 A 
ATOM     14  C   UNL     1       4.237   1.049  26.388  0.00  0.00    +0.019 A 
ENDROOT
BRANCH  10  15
ATOM     15  C   UNL     1       7.271  -3.109  25.393  0.00  0.00    +0.040 A 
ATOM     16  C   UNL     1       8.310  -3.451  26.281  0.00  0.00    +0.024 A 
ATOM     17  C   UNL     1       8.449  -4.746  26.801  0.00  0.00    +0.002 A 
ATOM     18  C   UNL     1       7.451  -5.689  26.591  0.00  0.00    +0.012 A 
ATOM     19  C   UNL     1       6.347  -5.357  25.802  0.00  0.00    +0.057 A 
ATOM     20  C   UNL     1       6.345  -4.132  25.109  0.00  0.00    +0.036 A 
BRANCH  19  21
ATOM     21  C   UNL     1       5.122  -6.242  25.819  0.00  0.00    +0.417 C 
ATOM     22  F   UNL     1       5.139  -7.108  26.868  0.00  0.00    -0.166 F 
ATOM     23  F   UNL     1       4.989  -7.005  24.702  0.00  0.00    -0.166 F 
ATOM     24  F   UNL     1       3.957  -5.543  25.948  0.00  0.00    -0.166 F 
ENDBRANCH  19  21
ENDBRANCH  10  15
BRANCH   1  25
ATOM     25  C   UNL     1       4.764   2.684  24.645  0.00  0.00    +0.340 C 
ATOM     26  O   UNL     1       5.150   3.739  25.119  0.00  0.00    -0.245 OA
BRANCH  25  27
ATOM     27  O   UNL     1       4.108   2.615  23.475  0.00  0.00    -0.477 OA
ATOM     28  H   UNL     1       3.565   3.395  23.234  0.00  0.00    +0.295 HD
ENDBRANCH  25  27
ENDBRANCH   1  25
BRANCH   5  29
ATOM     29  C   UNL     1       8.421   1.939  21.707  0.00  0.00    +0.340 C 
ATOM     30  O   UNL     1       7.377   2.481  21.389  0.00  0.00    -0.245 OA
BRANCH  29  31
ATOM     31  O   UNL     1       9.601   2.575  21.728  0.00  0.00    -0.477 OA
ATOM     32  H   UNL     1      10.302   2.190  22.304  0.00  0.00    +0.295 HD
ENDBRANCH  29  31
ENDBRANCH   5  29
TORSDOF 6
ENDMDL
MODEL 8
REMARK VINA RESULT:      -6.8      4.235      7.157
REMARK  Name = 
REMARK  6 active torsions:
REMARK  status: ('A' for Active; 'I' for Inactive)
REMARK    1  A    between atoms: O_1  and  C_2
REMARK    2  A    between atoms: C_2  and  C_4
REMARK    3  A    between atoms: C_16  and  C_17
REMARK    4  A    between atoms: C_17  and  O_18
REMARK    5  A    between atoms: N_20  and  C_21
REMARK    6  A    between atoms: C_23  and  C_27
REMARK                            x       y       z     vdW  Elec       q    Type
REMARK                         _______ _______ _______ _____ _____    ______ ____
ROOT
ATOM      1  C   UNL     1       5.077   1.053  25.823  0.00  0.00    +0.103 A 
ATOM      2  C   UNL     1       6.139   0.556  25.042  0.00  0.00    +0.164 A 
ATOM      3  O   UNL     1       6.880   1.491  24.369  0.00  0.00    -0.451 OA
ATOM      4  C   UNL     1       7.867   1.070  23.517  0.00  0.00    +0.164 A 
ATOM      5  C   UNL     1       8.615   2.083  22.879  0.00  0.00    +0.103 A 
ATOM      6  C   UNL     1       9.617   1.748  21.967  0.00  0.00    +0.019 A 
ATOM      7  C   UNL     1       9.794   0.422  21.614  0.00  0.00    +0.003 A 
ATOM      8  C   UNL     1       9.017  -0.571  22.218  0.00  0.00    +0.027 A 
ATOM      9  C   UNL     1       8.112  -0.293  23.263  0.00  0.00    +0.082 A 
ATOM     10  N   UNL     1       7.433  -1.314  24.053  0.00  0.00    -0.263 N 
ATOM     11  C   UNL     1       6.432  -0.824  24.989  0.00  0.00    +0.082 A 
ATOM     12  C   UNL     1       5.712  -1.645  25.879  0.00  0.00    +0.027 A 
ATOM     13  C   UNL     1       4.629  -1.167  26.625  0.00  0.00    +0.003 A 
ATOM     14  C   UNL     1       4.289   0.177  26.572  0.00  0.00    +0.019 A 
ENDROOT
BRANCH  10  15
ATOM     15  C   UNL     1       7.710  -2.738  23.873  0.00  0.00    +0.040 A 
ATOM     16  C   UNL     1       8.512  -3.470  24.770  0.00  0.00    +0.024 A 
ATOM     17  C   UNL     1       8.758  -4.840  24.601  0.00  0.00    +0.002 A 
ATOM     18  C   UNL     1       8.067  -5.556  23.633  0.00  0.00    +0.012 A 
ATOM     19  C   UNL     1       7.179  -4.887  22.787  0.00  0.00    +0.057 A 
ATOM     20  C   UNL     1       7.123  -3.481  22.830  0.00  0.00    +0.036 A 
BRANCH  19  21
ATOM     21  C   UNL     1       6.200  -5.679  21.952  0.00  0.00    +0.417 C 
ATOM     22  F   UNL     1       6.207  -5.281  20.651  0.00  0.00    -0.166 F 
ATOM     23  F   UNL     1       4.913  -5.566  22.374  0.00  0.00    -0.166 F 
ATOM     24  F   UNL     1       6.479  -7.015  21.922  0.00  0.00    -0.166 F 
ENDBRANCH  19  21
ENDBRANCH  10  15
BRANCH   1  25
ATOM     25  C   UNL     1       4.692   2.487  25.872  0.00  0.00    +0.340 C 
ATOM     26  O   UNL     1       4.713   3.130  26.907  0.00  0.00    -0.245 OA
BRANCH  25  27
ATOM     27  O   UNL     1       4.374   3.035  24.687  0.00  0.00    -0.477 OA
ATOM     28  H   UNL     1       3.557   3.576  24.664  0.00  0.00    +0.295 HD
ENDBRANCH  25  27
ENDBRANCH   1  25
BRANCH   5  29
ATOM     29  C   UNL     1       8.452   3.534  23.163  0.00  0.00    +0.340 C 
ATOM     30  O   UNL     1       8.876   4.039  24.187  0.00  0.00    -0.245 OA
BRANCH  29  31
ATOM     31  O   UNL     1       7.858   4.239  22.188  0.00  0.00    -0.477 OA
ATOM     32  H   UNL     1       7.929   3.878  21.274  0.00  0.00    +0.295 HD
ENDBRANCH  29  31
ENDBRANCH   5  29
TORSDOF 6
ENDMDL
MODEL 9
REMARK VINA RESULT:      -6.8      2.735      4.876
REMARK  Name = 
REMARK  6 active torsions:
REMARK  status: ('A' for Active; 'I' for Inactive)
REMARK    1  A    between atoms: O_1  and  C_2
REMARK    2  A    between atoms: C_2  and  C_4
REMARK    3  A    between atoms: C_16  and  C_17
REMARK    4  A    between atoms: C_17  and  O_18
REMARK    5  A    between atoms: N_20  and  C_21
REMARK    6  A    between atoms: C_23  and  C_27
REMARK                            x       y       z     vdW  Elec       q    Type
REMARK                         _______ _______ _______ _____ _____    ______ ____
ROOT
ATOM      1  C   UNL     1       4.831  -1.102  27.125  0.00  0.00    +0.103 A 
ATOM      2  C   UNL     1       5.910  -1.572  26.349  0.00  0.00    +0.164 A 
ATOM      3  O   UNL     1       6.296  -2.866  26.578  0.00  0.00    -0.451 OA
ATOM      4  C   UNL     1       7.397  -3.357  25.928  0.00  0.00    +0.164 A 
ATOM      5  C   UNL     1       7.723  -4.707  26.181  0.00  0.00    +0.103 A 
ATOM      6  C   UNL     1       8.849  -5.281  25.590  0.00  0.00    +0.019 A 
ATOM      7  C   UNL     1       9.701  -4.486  24.844  0.00  0.00    +0.003 A 
ATOM      8  C   UNL     1       9.394  -3.138  24.636  0.00  0.00    +0.027 A 
ATOM      9  C   UNL     1       8.184  -2.561  25.074  0.00  0.00    +0.082 A 
ATOM     10  N   UNL     1       7.735  -1.222  24.709  0.00  0.00    -0.263 N 
ATOM     11  C   UNL     1       6.529  -0.758  25.377  0.00  0.00    +0.082 A 
ATOM     12  C   UNL     1       5.906   0.479  25.117  0.00  0.00    +0.027 A 
ATOM     13  C   UNL     1       4.863   0.970  25.909  0.00  0.00    +0.003 A 
ATOM     14  C   UNL     1       4.347   0.194  26.936  0.00  0.00    +0.019 A 
ENDROOT
BRANCH  10  15
ATOM     15  C   UNL     1       8.484  -0.388  23.769  0.00  0.00    +0.040 A 
ATOM     16  C   UNL     1       8.608  -0.714  22.404  0.00  0.00    +0.024 A 
ATOM     17  C   UNL     1       9.312   0.100  21.506  0.00  0.00    +0.002 A 
ATOM     18  C   UNL     1       9.759   1.352  21.907  0.00  0.00    +0.012 A 
ATOM     19  C   UNL     1       9.562   1.762  23.228  0.00  0.00    +0.057 A 
ATOM     20  C   UNL     1       9.058   0.837  24.162  0.00  0.00    +0.036 A 
BRANCH  19  21
ATOM     21  C   UNL     1       9.754   3.214  23.598  0.00  0.00    +0.417 C 
ATOM     22  F   UNL     1       9.430   3.452  24.898  0.00  0.00    -0.166 F 
ATOM     23  F   UNL     1       8.995   4.066  22.859  0.00  0.00    -0.166 F 
ATOM     24  F   UNL     1      11.045   3.636  23.465  0.00  0.00    -0.166 F 
ENDBRANCH  19  21
ENDBRANCH  10  15
BRANCH   1  25
ATOM     25  C   UNL     1       4.180  -1.897  28.198  0.00  0.00    +0.340 C 
ATOM     26  O   UNL     1       4.046  -1.471  29.332  0.00  0.00    -0.245 OA
BRANCH  25  27
ATOM     27  O   UNL     1       3.704  -3.094  27.815  0.00  0.00    -0.477 OA
ATOM     28  H   UNL     1       3.479  -3.187  26.865  0.00  0.00    +0.295 HD
ENDBRANCH  25  27
ENDBRANCH   1  25
BRANCH   5  29
ATOM     29  C   UNL     1       6.889  -5.616  27.013  0.00  0.00    +0.340 C 
ATOM     30  O   UNL     1       7.262  -6.012  28.103  0.00  0.00    -0.245 OA
BRANCH  29  31
ATOM     31  O   UNL     1       5.687  -5.912  26.497  0.00  0.00    -0.477 OA
ATOM     32  H   UNL     1       4.906  -5.485  26.918  0.00  0.00    +0.295 HD
ENDBRANCH  29  31
ENDBRANCH   5  29
TORSDOF 6
ENDMDL
