MODEL 1
REMARK VINA RESULT:      -6.5      0.000      0.000
REMARK  Name = 
REMARK  12 active torsions:
REMARK  status: ('A' for Active; 'I' for Inactive)
REMARK    1  A    between atoms: O_1  and  C_2
REMARK    2  A    between atoms: C_2  and  C_4
REMARK    3  A    between atoms: C_2  and  C_17
REMARK    4  A    between atoms: C_4  and  N_5
REMARK    5  A    between atoms: N_5  and  C_6
REMARK    6  A    between atoms: C_6  and  C_7
REMARK    7  A    between atoms: C_7  and  C_8
REMARK    8  A    between atoms: C_8  and  C_9
REMARK    9  A    between atoms: C_9  and  C_10
REMARK   10  A    between atoms: C_13  and  O_14
REMARK   11  A    between atoms: C_19  and  O_20
REMARK   12  A    between atoms: C_21  and  O_22
REMARK                            x       y       z     vdW  Elec       q    Type
REMARK                         _______ _______ _______ _____ _____    ______ ____
ROOT
ATOM      1  C   UNL     1       6.816  -4.852  27.214  0.00  0.00    +0.117 C 
ENDROOT
BRANCH   1   2
ATOM      2  N   UNL     1       8.023  -5.620  26.836  0.00  0.00    -0.313 NA
ATOM      3  H   UNL     1       7.777  -6.243  26.066  0.00  0.00    +0.122 HD
BRANCH   2   4
ATOM      4  C   UNL     1       9.062  -4.700  26.356  0.00  0.00    +0.081 C 
BRANCH   4   5
ATOM      5  C   UNL     1       9.054  -4.626  24.828  0.00  0.00    +0.015 C 
BRANCH   5   6
ATOM      6  C   UNL     1       9.713  -3.329  24.353  0.00  0.00    +0.006 C 
BRANCH   6   7
ATOM      7  C   UNL     1       8.968  -2.087  24.846  0.00  0.00    +0.035 C 
BRANCH   7   8
ATOM      8  C   UNL     1       9.262  -0.900  23.960  0.00  0.00    -0.047 A 
ATOM      9  C   UNL     1       9.776   0.283  24.511  0.00  0.00    +0.007 A 
ATOM     10  C   UNL     1      10.115   1.357  23.687  0.00  0.00    +0.045 A 
ATOM     11  C   UNL     1       9.945   1.252  22.313  0.00  0.00    +0.117 A 
ATOM     12  C   UNL     1       9.421   0.093  21.747  0.00  0.00    +0.045 A 
ATOM     13  C   UNL     1       9.082  -0.982  22.572  0.00  0.00    +0.007 A 
BRANCH  11  14
ATOM     14  O   UNL     1      10.321   2.311  21.542  0.00  0.00    -0.507 OA
ATOM     15  H   UNL     1      11.222   2.152  21.218  0.00  0.00    +0.292 HD
ENDBRANCH  11  14
ENDBRANCH   7   8
ENDBRANCH   6   7
ENDBRANCH   5   6
ENDBRANCH   4   5
ENDBRANCH   2   4
ENDBRANCH   1   2
BRANCH   1  16
ATOM     16  C   UNL     1       5.543  -5.371  26.503  0.00  0.00    +0.158 C 
BRANCH  16  17
ATOM     17  C   UNL     1       5.505  -4.915  25.056  0.00  0.00    -0.014 A 
ATOM     18  C   UNL     1       5.503  -3.539  24.755  0.00  0.00    +0.010 A 
ATOM     19  C   UNL     1       5.518  -3.097  23.429  0.00  0.00    +0.049 A 
ATOM     20  C   UNL     1       5.539  -4.030  22.405  0.00  0.00    +0.158 A 
ATOM     21  C   UNL     1       5.535  -5.392  22.683  0.00  0.00    +0.159 A 
ATOM     22  C   UNL     1       5.521  -5.843  23.999  0.00  0.00    +0.055 A 
BRANCH  20  23
ATOM     23  O   UNL     1       5.563  -3.600  21.109  0.00  0.00    -0.503 OA
ATOM     24  H   UNL     1       5.175  -4.340  20.600  0.00  0.00    +0.292 HD
ENDBRANCH  20  23
BRANCH  21  25
ATOM     25  O   UNL     1       5.552  -6.261  21.626  0.00  0.00    -0.503 OA
ATOM     26  H   UNL     1       6.427  -6.683  21.605  0.00  0.00    +0.292 HD
ENDBRANCH  21  25
ENDBRANCH  16  17
BRANCH  16  27
ATOM     27  O   UNL     1       5.511  -6.801  26.561  0.00  0.00    -0.386 OA
ATOM     28  H   UNL     1       5.351  -7.087  25.644  0.00  0.00    +0.210 HD
ENDBRANCH  16  27
ENDBRANCH   1  16
TORSDOF 12
ENDMDL
MODEL 2
REMARK VINA RESULT:      -6.3      1.474      2.108
REMARK  Name = 
REMARK  12 active torsions:
REMARK  status: ('A' for Active; 'I' for Inactive)
REMARK    1  A    between atoms: O_1  and  C_2
REMARK    2  A    between atoms: C_2  and  C_4
REMARK    3  A    between atoms: C_2  and  C_17
REMARK    4  A    between atoms: C_4  and  N_5
REMARK    5  A    between atoms: N_5  and  C_6
REMARK    6  A    between atoms: C_6  and  C_7
REMARK    7  A    between atoms: C_7  and  C_8
REMARK    8  A    between atoms: C_8  and  C_9
REMARK    9  A    between atoms: C_9  and  C_10
REMARK   10  A    between atoms: C_13  and  O_14
REMARK   11  A    between atoms: C_19  and  O_20
REMARK   12  A    between atoms: C_21  and  O_22
REMARK                            x       y       z     vdW  Elec       q    Type
REMARK                         _______ _______ _______ _____ _____    ______ ____
ROOT
ATOM      1  C   UNL     1       7.090  -4.799  27.132  0.00  0.00    +0.117 C 
ENDROOT
BRANCH   1   2
ATOM      2  N   UNL     1       8.204  -5.699  26.759  0.00  0.00    -0.313 NA
ATOM      3  H   UNL     1       7.815  -6.499  26.259  0.00  0.00    +0.122 HD
BRANCH   2   4
ATOM      4  C   UNL     1       9.117  -4.999  25.847  0.00  0.00    +0.081 C 
BRANCH   4   5
ATOM      5  C   UNL     1       8.521  -4.923  24.439  0.00  0.00    +0.015 C 
BRANCH   5   6
ATOM      6  C   UNL     1       8.530  -3.477  23.934  0.00  0.00    +0.006 C 
BRANCH   6   7
ATOM      7  C   UNL     1       9.910  -2.830  24.057  0.00  0.00    +0.035 C 
BRANCH   7   8
ATOM      8  C   UNL     1       9.940  -1.495  23.350  0.00  0.00    -0.047 A 
ATOM      9  C   UNL     1       9.498  -1.388  22.024  0.00  0.00    +0.007 A 
ATOM     10  C   UNL     1       9.458  -0.145  21.390  0.00  0.00    +0.045 A 
ATOM     11  C   UNL     1       9.855   0.992  22.080  0.00  0.00    +0.117 A 
ATOM     12  C   UNL     1      10.313   0.906  23.391  0.00  0.00    +0.045 A 
ATOM     13  C   UNL     1      10.353  -0.338  24.025  0.00  0.00    +0.007 A 
BRANCH  11  14
ATOM     14  O   UNL     1       9.768   2.191  21.436  0.00  0.00    -0.507 OA
ATOM     15  H   UNL     1       8.875   2.277  21.066  0.00  0.00    +0.292 HD
ENDBRANCH  11  14
ENDBRANCH   7   8
ENDBRANCH   6   7
ENDBRANCH   5   6
ENDBRANCH   4   5
ENDBRANCH   2   4
ENDBRANCH   1   2
BRANCH   1  16
ATOM     16  C   UNL     1       5.772  -5.570  27.384  0.00  0.00    +0.158 C 
BRANCH  16  17
ATOM     17  C   UNL     1       5.008  -5.778  26.090  0.00  0.00    -0.014 A 
ATOM     18  C   UNL     1       4.966  -4.750  25.129  0.00  0.00    +0.010 A 
ATOM     19  C   UNL     1       4.309  -4.937  23.909  0.00  0.00    +0.049 A 
ATOM     20  C   UNL     1       3.700  -6.155  23.648  0.00  0.00    +0.158 A 
ATOM     21  C   UNL     1       3.728  -7.180  24.587  0.00  0.00    +0.159 A 
ATOM     22  C   UNL     1       4.379  -7.003  25.804  0.00  0.00    +0.055 A 
BRANCH  20  23
ATOM     23  O   UNL     1       3.067  -6.343  22.453  0.00  0.00    -0.503 OA
ATOM     24  H   UNL     1       3.141  -7.304  22.289  0.00  0.00    +0.292 HD
ENDBRANCH  20  23
BRANCH  21  25
ATOM     25  O   UNL     1       3.103  -8.354  24.270  0.00  0.00    -0.503 OA
ATOM     26  H   UNL     1       3.495  -9.055  24.819  0.00  0.00    +0.292 HD
ENDBRANCH  21  25
ENDBRANCH  16  17
BRANCH  16  27
ATOM     27  O   UNL     1       6.065  -6.838  27.983  0.00  0.00    -0.386 OA
ATOM     28  H   UNL     1       5.202  -7.280  28.069  0.00  0.00    +0.210 HD
ENDBRANCH  16  27
ENDBRANCH   1  16
TORSDOF 12
ENDMDL
MODEL 3
REMARK VINA RESULT:      -6.3      1.579      2.246
REMARK  Name = 
REMARK  12 active torsions:
REMARK  status: ('A' for Active; 'I' for Inactive)
REMARK    1  A    between atoms: O_1  and  C_2
REMARK    2  A    between atoms: C_2  and  C_4
REMARK    3  A    between atoms: C_2  and  C_17
REMARK    4  A    between atoms: C_4  and  N_5
REMARK    5  A    between atoms: N_5  and  C_6
REMARK    6  A    between atoms: C_6  and  C_7
REMARK    7  A    between atoms: C_7  and  C_8
REMARK    8  A    between atoms: C_8  and  C_9
REMARK    9  A    between atoms: C_9  and  C_10
REMARK   10  A    between atoms: C_13  and  O_14
REMARK   11  A    between atoms: C_19  and  O_20
REMARK   12  A    between atoms: C_21  and  O_22
REMARK                            x       y       z     vdW  Elec       q    Type
REMARK                         _______ _______ _______ _____ _____    ______ ____
ROOT
ATOM      1  C   UNL     1       6.920  -3.898  26.861  0.00  0.00    +0.117 C 
ENDROOT
BRANCH   1   2
ATOM      2  N   UNL     1       8.025  -3.000  26.457  0.00  0.00    -0.313 NA
ATOM      3  H   UNL     1       8.645  -3.518  25.833  0.00  0.00    +0.122 HD
BRANCH   2   4
ATOM      4  C   UNL     1       7.483  -1.859  25.708  0.00  0.00    +0.081 C 
BRANCH   4   5
ATOM      5  C   UNL     1       8.015  -1.854  24.273  0.00  0.00    +0.015 C 
BRANCH   5   6
ATOM      6  C   UNL     1       9.452  -2.381  24.235  0.00  0.00    +0.006 C 
BRANCH   6   7
ATOM      7  C   UNL     1      10.219  -1.882  23.009  0.00  0.00    +0.035 C 
BRANCH   7   8
ATOM      8  C   UNL     1      10.263  -0.372  22.984  0.00  0.00    -0.047 A 
ATOM      9  C   UNL     1       9.775   0.331  21.874  0.00  0.00    +0.007 A 
ATOM     10  C   UNL     1       9.750   1.726  21.876  0.00  0.00    +0.045 A 
ATOM     11  C   UNL     1      10.207   2.421  22.988  0.00  0.00    +0.117 A 
ATOM     12  C   UNL     1      10.710   1.744  24.094  0.00  0.00    +0.045 A 
ATOM     13  C   UNL     1      10.736   0.347  24.091  0.00  0.00    +0.007 A 
BRANCH  11  14
ATOM     14  O   UNL     1      10.133   3.782  22.962  0.00  0.00    -0.507 OA
ATOM     15  H   UNL     1      11.031   4.138  22.875  0.00  0.00    +0.292 HD
ENDBRANCH  11  14
ENDBRANCH   7   8
ENDBRANCH   6   7
ENDBRANCH   5   6
ENDBRANCH   4   5
ENDBRANCH   2   4
ENDBRANCH   1   2
BRANCH   1  16
ATOM     16  C   UNL     1       7.072  -5.320  26.269  0.00  0.00    +0.158 C 
BRANCH  16  17
ATOM     17  C   UNL     1       6.727  -5.333  24.792  0.00  0.00    -0.014 A 
ATOM     18  C   UNL     1       7.747  -5.507  23.836  0.00  0.00    +0.010 A 
ATOM     19  C   UNL     1       7.446  -5.571  22.472  0.00  0.00    +0.049 A 
ATOM     20  C   UNL     1       6.125  -5.467  22.065  0.00  0.00    +0.158 A 
ATOM     21  C   UNL     1       5.106  -5.291  22.994  0.00  0.00    +0.159 A 
ATOM     22  C   UNL     1       5.395  -5.225  24.353  0.00  0.00    +0.055 A 
BRANCH  20  23
ATOM     23  O   UNL     1       5.828  -5.540  20.734  0.00  0.00    -0.503 OA
ATOM     24  H   UNL     1       5.311  -6.365  20.646  0.00  0.00    +0.292 HD
ENDBRANCH  20  23
BRANCH  21  25
ATOM     25  O   UNL     1       3.825  -5.190  22.526  0.00  0.00    -0.503 OA
ATOM     26  H   UNL     1       3.870  -4.881  21.606  0.00  0.00    +0.292 HD
ENDBRANCH  21  25
ENDBRANCH  16  17
BRANCH  16  27
ATOM     27  O   UNL     1       8.417  -5.776  26.458  0.00  0.00    -0.386 OA
ATOM     28  H   UNL     1       8.974  -5.004  26.253  0.00  0.00    +0.210 HD
ENDBRANCH  16  27
ENDBRANCH   1  16
TORSDOF 12
ENDMDL
MODEL 4
REMARK VINA RESULT:      -6.2      1.620      2.559
REMARK  Name = 
REMARK  12 active torsions:
REMARK  status: ('A' for Active; 'I' for Inactive)
REMARK    1  A    between atoms: O_1  and  C_2
REMARK    2  A    between atoms: C_2  and  C_4
REMARK    3  A    between atoms: C_2  and  C_17
REMARK    4  A    between atoms: C_4  and  N_5
REMARK    5  A    between atoms: N_5  and  C_6
REMARK    6  A    between atoms: C_6  and  C_7
REMARK    7  A    between atoms: C_7  and  C_8
REMARK    8  A    between atoms: C_8  and  C_9
REMARK    9  A    between atoms: C_9  and  C_10
REMARK   10  A    between atoms: C_13  and  O_14
REMARK   11  A    between atoms: C_19  and  O_20
REMARK   12  A    between atoms: C_21  and  O_22
REMARK                            x       y       z     vdW  Elec       q    Type
REMARK                         _______ _______ _______ _____ _____    ______ ____
ROOT
ATOM      1  C   UNL     1       7.429  -4.023  26.504  0.00  0.00    +0.117 C 
ENDROOT
BRANCH   1   2
ATOM      2  N   UNL     1       8.893  -4.225  26.595  0.00  0.00    -0.313 NA
ATOM      3  H   UNL     1       9.073  -4.952  27.287  0.00  0.00    +0.122 HD
BRANCH   2   4
ATOM      4  C   UNL     1       9.405  -4.697  25.302  0.00  0.00    +0.081 C 
BRANCH   4   5
ATOM      5  C   UNL     1       8.958  -3.768  24.172  0.00  0.00    +0.015 C 
BRANCH   5   6
ATOM      6  C   UNL     1       9.803  -2.491  24.166  0.00  0.00    +0.006 C 
BRANCH   6   7
ATOM      7  C   UNL     1       9.925  -1.885  22.767  0.00  0.00    +0.035 C 
BRANCH   7   8
ATOM      8  C   UNL     1      10.099  -0.386  22.846  0.00  0.00    -0.047 A 
ATOM      9  C   UNL     1       9.719   0.428  21.770  0.00  0.00    +0.007 A 
ATOM     10  C   UNL     1       9.814   1.817  21.867  0.00  0.00    +0.045 A 
ATOM     11  C   UNL     1      10.283   2.395  23.039  0.00  0.00    +0.117 A 
ATOM     12  C   UNL     1      10.680   1.606  24.113  0.00  0.00    +0.045 A 
ATOM     13  C   UNL     1      10.586   0.215  24.016  0.00  0.00    +0.007 A 
BRANCH  11  14
ATOM     14  O   UNL     1      10.326   3.756  23.104  0.00  0.00    -0.507 OA
ATOM     15  H   UNL     1       9.969   4.116  22.276  0.00  0.00    +0.292 HD
ENDBRANCH  11  14
ENDBRANCH   7   8
ENDBRANCH   6   7
ENDBRANCH   5   6
ENDBRANCH   4   5
ENDBRANCH   2   4
ENDBRANCH   1   2
BRANCH   1  16
ATOM     16  C   UNL     1       6.637  -5.145  27.217  0.00  0.00    +0.158 C 
BRANCH  16  17
ATOM     17  C   UNL     1       5.730  -5.873  26.242  0.00  0.00    -0.014 A 
ATOM     18  C   UNL     1       4.693  -6.692  26.729  0.00  0.00    +0.010 A 
ATOM     19  C   UNL     1       3.815  -7.333  25.849  0.00  0.00    +0.049 A 
ATOM     20  C   UNL     1       3.972  -7.150  24.484  0.00  0.00    +0.158 A 
ATOM     21  C   UNL     1       4.993  -6.349  23.986  0.00  0.00    +0.159 A 
ATOM     22  C   UNL     1       5.872  -5.707  24.853  0.00  0.00    +0.055 A 
BRANCH  20  23
ATOM     23  O   UNL     1       3.109  -7.768  23.624  0.00  0.00    -0.503 OA
ATOM     24  H   UNL     1       3.645  -8.473  23.208  0.00  0.00    +0.292 HD
ENDBRANCH  20  23
BRANCH  21  25
ATOM     25  O   UNL     1       5.096  -6.215  22.629  0.00  0.00    -0.503 OA
ATOM     26  H   UNL     1       4.769  -5.330  22.394  0.00  0.00    +0.292 HD
ENDBRANCH  21  25
ENDBRANCH  16  17
BRANCH  16  27
ATOM     27  O   UNL     1       7.551  -6.072  27.814  0.00  0.00    -0.386 OA
ATOM     28  H   UNL     1       8.433  -5.776  27.526  0.00  0.00    +0.210 HD
ENDBRANCH  16  27
ENDBRANCH   1  16
TORSDOF 12
ENDMDL
MODEL 5
REMARK VINA RESULT:      -6.2      1.710      5.267
REMARK  Name = 
REMARK  12 active torsions:
REMARK  status: ('A' for Active; 'I' for Inactive)
REMARK    1  A    between atoms: O_1  and  C_2
REMARK    2  A    between atoms: C_2  and  C_4
REMARK    3  A    between atoms: C_2  and  C_17
REMARK    4  A    between atoms: C_4  and  N_5
REMARK    5  A    between atoms: N_5  and  C_6
REMARK    6  A    between atoms: C_6  and  C_7
REMARK    7  A    between atoms: C_7  and  C_8
REMARK    8  A    between atoms: C_8  and  C_9
REMARK    9  A    between atoms: C_9  and  C_10
REMARK   10  A    between atoms: C_13  and  O_14
REMARK   11  A    between atoms: C_19  and  O_20
REMARK   12  A    between atoms: C_21  and  O_22
REMARK                            x       y       z     vdW  Elec       q    Type
REMARK                         _______ _______ _______ _____ _____    ______ ____
ROOT
ATOM      1  C   UNL     1       8.502  -4.676  26.696  0.00  0.00    +0.117 C 
ENDROOT
BRANCH   1   2
ATOM      2  N   UNL     1       7.747  -5.897  27.057  0.00  0.00    -0.313 NA
ATOM      3  H   UNL     1       8.316  -6.444  27.705  0.00  0.00    +0.122 HD
BRANCH   2   4
ATOM      4  C   UNL     1       6.509  -5.522  27.752  0.00  0.00    +0.081 C 
BRANCH   4   5
ATOM      5  C   UNL     1       6.129  -4.075  27.434  0.00  0.00    +0.015 C 
BRANCH   5   6
ATOM      6  C   UNL     1       4.872  -4.033  26.560  0.00  0.00    +0.006 C 
BRANCH   6   7
ATOM      7  C   UNL     1       4.994  -3.022  25.419  0.00  0.00    +0.035 C 
BRANCH   7   8
ATOM      8  C   UNL     1       5.411  -3.708  24.139  0.00  0.00    -0.047 A 
ATOM      9  C   UNL     1       5.472  -5.107  24.075  0.00  0.00    +0.007 A 
ATOM     10  C   UNL     1       5.789  -5.746  22.875  0.00  0.00    +0.045 A 
ATOM     11  C   UNL     1       6.041  -4.991  21.738  0.00  0.00    +0.117 A 
ATOM     12  C   UNL     1       6.001  -3.601  21.783  0.00  0.00    +0.045 A 
ATOM     13  C   UNL     1       5.685  -2.961  22.984  0.00  0.00    +0.007 A 
BRANCH  11  14
ATOM     14  O   UNL     1       6.312  -5.656  20.579  0.00  0.00    -0.507 OA
ATOM     15  H   UNL     1       5.475  -5.823  20.117  0.00  0.00    +0.292 HD
ENDBRANCH  11  14
ENDBRANCH   7   8
ENDBRANCH   6   7
ENDBRANCH   5   6
ENDBRANCH   4   5
ENDBRANCH   2   4
ENDBRANCH   1   2
BRANCH   1  16
ATOM     16  C   UNL     1       8.981  -4.696  25.225  0.00  0.00    +0.158 C 
BRANCH  16  17
ATOM     17  C   UNL     1       9.044  -3.291  24.655  0.00  0.00    -0.014 A 
ATOM     18  C   UNL     1       8.615  -2.199  25.435  0.00  0.00    +0.010 A 
ATOM     19  C   UNL     1       8.710  -0.892  24.949  0.00  0.00    +0.049 A 
ATOM     20  C   UNL     1       9.238  -0.676  23.686  0.00  0.00    +0.158 A 
ATOM     21  C   UNL     1       9.662  -1.742  22.900  0.00  0.00    +0.159 A 
ATOM     22  C   UNL     1       9.572  -3.047  23.375  0.00  0.00    +0.055 A 
BRANCH  20  23
ATOM     23  O   UNL     1       9.340   0.601  23.213  0.00  0.00    -0.503 OA
ATOM     24  H   UNL     1      10.206   0.622  22.757  0.00  0.00    +0.292 HD
ENDBRANCH  20  23
BRANCH  21  25
ATOM     25  O   UNL     1      10.168  -1.461  21.661  0.00  0.00    -0.503 OA
ATOM     26  H   UNL     1      11.130  -1.600  21.697  0.00  0.00    +0.292 HD
ENDBRANCH  21  25
ENDBRANCH  16  17
BRANCH  16  27
ATOM     27  O   UNL     1      10.273  -5.308  25.149  0.00  0.00    -0.386 OA
ATOM     28  H   UNL     1      10.894  -4.623  25.456  0.00  0.00    +0.210 HD
ENDBRANCH  16  27
ENDBRANCH   1  16
TORSDOF 12
ENDMDL
MODEL 6
REMARK VINA RESULT:      -6.2      2.007      3.838
REMARK  Name = 
REMARK  12 active torsions:
REMARK  status: ('A' for Active; 'I' for Inactive)
REMARK    1  A    between atoms: O_1  and  C_2
REMARK    2  A    between atoms: C_2  and  C_4
REMARK    3  A    between atoms: C_2  and  C_17
REMARK    4  A    between atoms: C_4  and  N_5
REMARK    5  A    between atoms: N_5  and  C_6
REMARK    6  A    between atoms: C_6  and  C_7
REMARK    7  A    between atoms: C_7  and  C_8
REMARK    8  A    between atoms: C_8  and  C_9
REMARK    9  A    between atoms: C_9  and  C_10
REMARK   10  A    between atoms: C_13  and  O_14
REMARK   11  A    between atoms: C_19  and  O_20
REMARK   12  A    between atoms: C_21  and  O_22
REMARK                            x       y       z     vdW  Elec       q    Type
REMARK                         _______ _______ _______ _____ _____    ______ ____
ROOT
ATOM      1  C   UNL     1       4.909  -4.742  22.746  0.00  0.00    +0.117 C 
ENDROOT
BRANCH   1   2
ATOM      2  N   UNL     1       5.705  -3.796  21.933  0.00  0.00    -0.313 NA
ATOM      3  H   UNL     1       5.259  -3.705  21.020  0.00  0.00    +0.122 HD
BRANCH   2   4
ATOM      4  C   UNL     1       5.698  -2.473  22.571  0.00  0.00    +0.081 C 
BRANCH   4   5
ATOM      5  C   UNL     1       7.034  -2.200  23.264  0.00  0.00    +0.015 C 
BRANCH   5   6
ATOM      6  C   UNL     1       8.173  -2.183  22.241  0.00  0.00    +0.006 C 
BRANCH   6   7
ATOM      7  C   UNL     1       9.538  -1.977  22.898  0.00  0.00    +0.035 C 
BRANCH   7   8
ATOM      8  C   UNL     1       9.894  -0.510  22.944  0.00  0.00    -0.047 A 
ATOM      9  C   UNL     1       9.669   0.308  21.828  0.00  0.00    +0.007 A 
ATOM     10  C   UNL     1       9.931   1.677  21.891  0.00  0.00    +0.045 A 
ATOM     11  C   UNL     1      10.415   2.233  23.068  0.00  0.00    +0.117 A 
ATOM     12  C   UNL     1      10.661   1.437  24.182  0.00  0.00    +0.045 A 
ATOM     13  C   UNL     1      10.399   0.067  24.120  0.00  0.00    +0.007 A 
BRANCH  11  14
ATOM     14  O   UNL     1      10.624   3.580  23.097  0.00  0.00    -0.507 OA
ATOM     15  H   UNL     1      10.138   3.983  22.360  0.00  0.00    +0.292 HD
ENDBRANCH  11  14
ENDBRANCH   7   8
ENDBRANCH   6   7
ENDBRANCH   5   6
ENDBRANCH   4   5
ENDBRANCH   2   4
ENDBRANCH   1   2
BRANCH   1  16
ATOM     16  C   UNL     1       5.712  -6.009  23.127  0.00  0.00    +0.158 C 
BRANCH  16  17
ATOM     17  C   UNL     1       6.730  -5.702  24.209  0.00  0.00    -0.014 A 
ATOM     18  C   UNL     1       8.084  -5.524  23.867  0.00  0.00    +0.010 A 
ATOM     19  C   UNL     1       9.030  -5.192  24.842  0.00  0.00    +0.049 A 
ATOM     20  C   UNL     1       8.621  -5.034  26.156  0.00  0.00    +0.158 A 
ATOM     21  C   UNL     1       7.289  -5.211  26.513  0.00  0.00    +0.159 A 
ATOM     22  C   UNL     1       6.339  -5.541  25.551  0.00  0.00    +0.055 A 
BRANCH  20  23
ATOM     23  O   UNL     1       9.542  -4.700  27.107  0.00  0.00    -0.503 OA
ATOM     24  H   UNL     1       9.015  -4.292  27.823  0.00  0.00    +0.292 HD
ENDBRANCH  20  23
BRANCH  21  25
ATOM     25  O   UNL     1       6.952  -5.045  27.828  0.00  0.00    -0.503 OA
ATOM     26  H   UNL     1       7.772  -4.884  28.325  0.00  0.00    +0.292 HD
ENDBRANCH  21  25
ENDBRANCH  16  17
BRANCH  16  27
ATOM     27  O   UNL     1       4.813  -7.028  23.581  0.00  0.00    -0.386 OA
ATOM     28  H   UNL     1       4.045  -6.969  22.984  0.00  0.00    +0.210 HD
ENDBRANCH  16  27
ENDBRANCH   1  16
TORSDOF 12
ENDMDL
MODEL 7
REMARK VINA RESULT:      -6.2      2.490      4.421
REMARK  Name = 
REMARK  12 active torsions:
REMARK  status: ('A' for Active; 'I' for Inactive)
REMARK    1  A    between atoms: O_1  and  C_2
REMARK    2  A    between atoms: C_2  and  C_4
REMARK    3  A    between atoms: C_2  and  C_17
REMARK    4  A    between atoms: C_4  and  N_5
REMARK    5  A    between atoms: N_5  and  C_6
REMARK    6  A    between atoms: C_6  and  C_7
REMARK    7  A    between atoms: C_7  and  C_8
REMARK    8  A    between atoms: C_8  and  C_9
REMARK    9  A    between atoms: C_9  and  C_10
REMARK   10  A    between atoms: C_13  and  O_14
REMARK   11  A    between atoms: C_19  and  O_20
REMARK   12  A    between atoms: C_21  and  O_22
REMARK                            x       y       z     vdW  Elec       q    Type
REMARK                         _______ _______ _______ _____ _____    ______ ____
ROOT
ATOM      1  C   UNL     1       8.019  -1.862  22.555  0.00  0.00    +0.117 C 
ENDROOT
BRANCH   1   2
ATOM      2  N   UNL     1       9.370  -1.967  21.961  0.00  0.00    -0.313 NA
ATOM      3  H   UNL     1       9.418  -1.335  21.161  0.00  0.00    +0.122 HD
BRANCH   2   4
ATOM      4  C   UNL     1      10.374  -1.530  22.939  0.00  0.00    +0.081 C 
BRANCH   4   5
ATOM      5  C   UNL     1       9.698  -1.021  24.215  0.00  0.00    +0.015 C 
BRANCH   5   6
ATOM      6  C   UNL     1      10.379   0.260  24.705  0.00  0.00    +0.006 C 
BRANCH   6   7
ATOM      7  C   UNL     1      10.789   1.175  23.549  0.00  0.00    +0.035 C 
BRANCH   7   8
ATOM      8  C   UNL     1       9.624   2.027  23.103  0.00  0.00    -0.047 A 
ATOM      9  C   UNL     1       8.913   1.699  21.941  0.00  0.00    +0.007 A 
ATOM     10  C   UNL     1       7.794   2.442  21.563  0.00  0.00    +0.045 A 
ATOM     11  C   UNL     1       7.381   3.512  22.347  0.00  0.00    +0.117 A 
ATOM     12  C   UNL     1       8.082   3.864  23.496  0.00  0.00    +0.045 A 
ATOM     13  C   UNL     1       9.202   3.121  23.873  0.00  0.00    +0.007 A 
BRANCH  11  14
ATOM     14  O   UNL     1       6.262   4.189  21.962  0.00  0.00    -0.507 OA
ATOM     15  H   UNL     1       5.886   4.631  22.739  0.00  0.00    +0.292 HD
ENDBRANCH  11  14
ENDBRANCH   7   8
ENDBRANCH   6   7
ENDBRANCH   5   6
ENDBRANCH   4   5
ENDBRANCH   2   4
ENDBRANCH   1   2
BRANCH   1  16
ATOM     16  C   UNL     1       7.279  -3.220  22.576  0.00  0.00    +0.158 C 
BRANCH  16  17
ATOM     17  C   UNL     1       7.462  -3.919  23.910  0.00  0.00    -0.014 A 
ATOM     18  C   UNL     1       6.400  -3.956  24.833  0.00  0.00    +0.010 A 
ATOM     19  C   UNL     1       6.531  -4.636  26.048  0.00  0.00    +0.049 A 
ATOM     20  C   UNL     1       7.722  -5.283  26.337  0.00  0.00    +0.158 A 
ATOM     21  C   UNL     1       8.783  -5.252  25.439  0.00  0.00    +0.159 A 
ATOM     22  C   UNL     1       8.663  -4.579  24.228  0.00  0.00    +0.055 A 
BRANCH  20  23
ATOM     23  O   UNL     1       7.848  -5.956  27.518  0.00  0.00    -0.503 OA
ATOM     24  H   UNL     1       8.508  -5.438  28.022  0.00  0.00    +0.292 HD
ENDBRANCH  20  23
BRANCH  21  25
ATOM     25  O   UNL     1       9.933  -5.907  25.787  0.00  0.00    -0.503 OA
ATOM     26  H   UNL     1      10.590  -5.236  26.038  0.00  0.00    +0.292 HD
ENDBRANCH  21  25
ENDBRANCH  16  17
BRANCH  16  27
ATOM     27  O   UNL     1       5.884  -3.010  22.326  0.00  0.00    -0.386 OA
ATOM     28  H   UNL     1       5.575  -2.466  23.073  0.00  0.00    +0.210 HD
ENDBRANCH  16  27
ENDBRANCH   1  16
TORSDOF 12
ENDMDL
MODEL 8
REMARK VINA RESULT:      -6.1      2.247      3.647
REMARK  Name = 
REMARK  12 active torsions:
REMARK  status: ('A' for Active; 'I' for Inactive)
REMARK    1  A    between atoms: O_1  and  C_2
REMARK    2  A    between atoms: C_2  and  C_4
REMARK    3  A    between atoms: C_2  and  C_17
REMARK    4  A    between atoms: C_4  and  N_5
REMARK    5  A    between atoms: N_5  and  C_6
REMARK    6  A    between atoms: C_6  and  C_7
REMARK    7  A    between atoms: C_7  and  C_8
REMARK    8  A    between atoms: C_8  and  C_9
REMARK    9  A    between atoms: C_9  and  C_10
REMARK   10  A    between atoms: C_13  and  O_14
REMARK   11  A    between atoms: C_19  and  O_20
REMARK   12  A    between atoms: C_21  and  O_22
REMARK                            x       y       z     vdW  Elec       q    Type
REMARK                         _______ _______ _______ _____ _____    ______ ____
ROOT
ATOM      1  C   UNL     1       4.490  -2.613  25.225  0.00  0.00    +0.117 C 
ENDROOT
BRANCH   1   2
ATOM      2  N   UNL     1       5.204  -1.367  24.867  0.00  0.00    -0.313 NA
ATOM      3  H   UNL     1       4.584  -0.797  24.292  0.00  0.00    +0.122 HD
BRANCH   2   4
ATOM      4  C   UNL     1       5.510  -0.608  26.087  0.00  0.00    +0.081 C 
BRANCH   4   5
ATOM      5  C   UNL     1       6.550  -1.345  26.934  0.00  0.00    +0.015 C 
BRANCH   5   6
ATOM      6  C   UNL     1       7.925  -0.689  26.781  0.00  0.00    +0.006 C 
BRANCH   6   7
ATOM      7  C   UNL     1       8.812  -1.434  25.782  0.00  0.00    +0.035 C 
BRANCH   7   8
ATOM      8  C   UNL     1       9.234  -0.520  24.656  0.00  0.00    -0.047 A 
ATOM      9  C   UNL     1       8.574  -0.568  23.421  0.00  0.00    +0.007 A 
ATOM     10  C   UNL     1       8.914   0.322  22.402  0.00  0.00    +0.045 A 
ATOM     11  C   UNL     1       9.912   1.265  22.615  0.00  0.00    +0.117 A 
ATOM     12  C   UNL     1      10.591   1.320  23.828  0.00  0.00    +0.045 A 
ATOM     13  C   UNL     1      10.251   0.428  24.848  0.00  0.00    +0.007 A 
BRANCH  11  14
ATOM     14  O   UNL     1      10.189   2.138  21.606  0.00  0.00    -0.507 OA
ATOM     15  H   UNL     1       9.351   2.424  21.207  0.00  0.00    +0.292 HD
ENDBRANCH  11  14
ENDBRANCH   7   8
ENDBRANCH   6   7
ENDBRANCH   5   6
ENDBRANCH   4   5
ENDBRANCH   2   4
ENDBRANCH   1   2
BRANCH   1  16
ATOM     16  C   UNL     1       4.891  -3.800  24.316  0.00  0.00    +0.158 C 
BRANCH  16  17
ATOM     17  C   UNL     1       6.251  -4.347  24.705  0.00  0.00    -0.014 A 
ATOM     18  C   UNL     1       7.330  -4.244  23.807  0.00  0.00    +0.010 A 
ATOM     19  C   UNL     1       8.604  -4.697  24.163  0.00  0.00    +0.049 A 
ATOM     20  C   UNL     1       8.799  -5.248  25.420  0.00  0.00    +0.158 A 
ATOM     21  C   UNL     1       7.744  -5.363  26.318  0.00  0.00    +0.159 A 
ATOM     22  C   UNL     1       6.473  -4.915  25.973  0.00  0.00    +0.055 A 
BRANCH  20  23
ATOM     23  O   UNL     1      10.045  -5.682  25.773  0.00  0.00    -0.503 OA
ATOM     24  H   UNL     1      10.369  -5.004  26.399  0.00  0.00    +0.292 HD
ENDBRANCH  20  23
BRANCH  21  25
ATOM     25  O   UNL     1       8.002  -5.921  27.539  0.00  0.00    -0.503 OA
ATOM     26  H   UNL     1       8.928  -6.219  27.538  0.00  0.00    +0.292 HD
ENDBRANCH  21  25
ENDBRANCH  16  17
BRANCH  16  27
ATOM     27  O   UNL     1       3.905  -4.834  24.417  0.00  0.00    -0.386 OA
ATOM     28  H   UNL     1       3.680  -4.875  25.364  0.00  0.00    +0.210 HD
ENDBRANCH  16  27
ENDBRANCH   1  16
TORSDOF 12
ENDMDL
MODEL 9
REMARK VINA RESULT:      -6.1      2.585      5.639
REMARK  Name = 
REMARK  12 active torsions:
REMARK  status: ('A' for Active; 'I' for Inactive)
REMARK    1  A    between atoms: O_1  and  C_2
REMARK    2  A    between atoms: C_2  and  C_4
REMARK    3  A    between atoms: C_2  and  C_17
REMARK    4  A    between atoms: C_4  and  N_5
REMARK    5  A    between atoms: N_5  and  C_6
REMARK    6  A    between atoms: C_6  and  C_7
REMARK    7  A    between atoms: C_7  and  C_8
REMARK    8  A    between atoms: C_8  and  C_9
REMARK    9  A    between atoms: C_9  and  C_10
REMARK   10  A    between atoms: C_13  and  O_14
REMARK   11  A    between atoms: C_19  and  O_20
REMARK   12  A    between atoms: C_21  and  O_22
REMARK                            x       y       z     vdW  Elec       q    Type
REMARK                         _______ _______ _______ _____ _____    ______ ____
ROOT
ATOM      1  C   UNL     1       9.596  -0.397  25.499  0.00  0.00    +0.117 C 
ENDROOT
BRANCH   1   2
ATOM      2  N   UNL     1       9.551   0.725  24.535  0.00  0.00    -0.313 NA
ATOM      3  H   UNL     1      10.236   1.423  24.824  0.00  0.00    +0.122 HD
BRANCH   2   4
ATOM      4  C   UNL     1       9.935   0.243  23.202  0.00  0.00    +0.081 C 
BRANCH   4   5
ATOM      5  C   UNL     1      10.058  -1.282  23.193  0.00  0.00    +0.015 C 
BRANCH   5   6
ATOM      6  C   UNL     1       9.062  -1.892  22.203  0.00  0.00    +0.006 C 
BRANCH   6   7
ATOM      7  C   UNL     1       7.613  -1.727  22.664  0.00  0.00    +0.035 C 
BRANCH   7   8
ATOM      8  C   UNL     1       6.916  -3.066  22.728  0.00  0.00    -0.047 A 
ATOM      9  C   UNL     1       7.662  -4.252  22.710  0.00  0.00    +0.007 A 
ATOM     10  C   UNL     1       7.027  -5.489  22.839  0.00  0.00    +0.045 A 
ATOM     11  C   UNL     1       5.647  -5.542  22.989  0.00  0.00    +0.117 A 
ATOM     12  C   UNL     1       4.886  -4.377  22.993  0.00  0.00    +0.045 A 
ATOM     13  C   UNL     1       5.522  -3.140  22.864  0.00  0.00    +0.007 A 
BRANCH  11  14
ATOM     14  O   UNL     1       5.071  -6.767  23.147  0.00  0.00    -0.507 OA
ATOM     15  H   UNL     1       5.353  -7.337  22.414  0.00  0.00    +0.292 HD
ENDBRANCH  11  14
ENDBRANCH   7   8
ENDBRANCH   6   7
ENDBRANCH   5   6
ENDBRANCH   4   5
ENDBRANCH   2   4
ENDBRANCH   1   2
BRANCH   1  16
ATOM     16  C   UNL     1       8.265  -0.563  26.271  0.00  0.00    +0.158 C 
BRANCH  16  17
ATOM     17  C   UNL     1       7.867  -2.024  26.360  0.00  0.00    -0.014 A 
ATOM     18  C   UNL     1       6.507  -2.374  26.461  0.00  0.00    +0.010 A 
ATOM     19  C   UNL     1       6.114  -3.715  26.495  0.00  0.00    +0.049 A 
ATOM     20  C   UNL     1       7.081  -4.706  26.423  0.00  0.00    +0.158 A 
ATOM     21  C   UNL     1       8.429  -4.378  26.327  0.00  0.00    +0.159 A 
ATOM     22  C   UNL     1       8.830  -3.047  26.293  0.00  0.00    +0.055 A 
BRANCH  20  23
ATOM     23  O   UNL     1       6.698  -6.016  26.446  0.00  0.00    -0.503 OA
ATOM     24  H   UNL     1       7.226  -6.410  27.169  0.00  0.00    +0.292 HD
ENDBRANCH  20  23
BRANCH  21  25
ATOM     25  O   UNL     1       9.332  -5.403  26.264  0.00  0.00    -0.503 OA
ATOM     26  H   UNL     1      10.168  -5.084  26.645  0.00  0.00    +0.292 HD
ENDBRANCH  21  25
ENDBRANCH  16  17
BRANCH  16  27
ATOM     27  O   UNL     1       8.404  -0.016  27.588  0.00  0.00    -0.386 OA
ATOM     28  H   UNL     1       8.700  -0.763  28.139  0.00  0.00    +0.210 HD
ENDBRANCH  16  27
ENDBRANCH   1  16
TORSDOF 12
ENDMDL
