MODEL 1
REMARK VINA RESULT:      -7.1      0.000      0.000
REMARK  Name = 
REMARK  12 active torsions:
REMARK  status: ('A' for Active; 'I' for Inactive)
REMARK    1  A    between atoms: C_2  and  C_3
REMARK    2  A    between atoms: C_2  and  C_4
REMARK    3  A    between atoms: C_2  and  C_8
REMARK    4  A    between atoms: C_4  and  C_5
REMARK    5  A    between atoms: C_5  and  O_6
REMARK    6  A    between atoms: C_9  and  C_10
REMARK    7  A    between atoms: C_11  and  C_12
REMARK    8  A    between atoms: C_11  and  C_13
REMARK    9  A    between atoms: C_14  and  C_15
REMARK   10  A    between atoms: C_16  and  C_17
REMARK   11  A    between atoms: C_19  and  O_20
REMARK   12  A    between atoms: C_22  and  C_23
REMARK                            x       y       z     vdW  Elec       q    Type
REMARK                         _______ _______ _______ _____ _____    ______ ____
ROOT
ATOM      1  C   UNL     1      10.359   1.790  23.800  0.00  0.00    +0.003 C 
ATOM      2  C   UNL     1       9.869   0.771  23.062  0.00  0.00    -0.050 C 
ATOM      3  C   UNL     1       9.557   0.851  21.585  0.00  0.00    +0.044 C 
ENDROOT
BRANCH   1   5
ATOM      4  C   UNL     1      10.369   4.242  23.980  0.00  0.00    -0.023 C 
ATOM      5  C   UNL     1      10.688   3.114  23.325  0.00  0.00    -0.004 C 
BRANCH   4   6
ATOM      6  C   UNL     1      10.750   5.610  23.455  0.00  0.00    +0.019 C 
ATOM      7  C   UNL     1       9.833   6.659  24.097  0.00  0.00    +0.012 C 
BRANCH   6   8
ATOM      8  C   UNL     1      12.219   5.962  23.723  0.00  0.00    +0.127 C 
BRANCH   8   9
ATOM      9  C   UNL     1      13.283   5.479  22.759  0.00  0.00    +0.305 C 
ATOM     10  O   UNL     1      13.105   5.515  21.546  0.00  0.00    -0.251 OA
BRANCH   9  11
ATOM     11  O   UNL     1      14.426   4.997  23.273  0.00  0.00    -0.481 OA
ATOM     12  H   UNL     1      14.557   4.033  23.230  0.00  0.00    +0.295 HD
ENDBRANCH   9  11
ENDBRANCH   8   9
ENDBRANCH   6   8
ENDBRANCH   4   6
ENDBRANCH   1   5
BRANCH   2  13
ATOM     13  C   UNL     1       9.629  -0.518  23.719  0.00  0.00    +0.004 C 
ATOM     14  C   UNL     1       8.431  -0.988  24.103  0.00  0.00    +0.009 C 
BRANCH  14  15
ATOM     15  C   UNL     1       8.255  -2.316  24.706  0.00  0.00    -0.019 A 
ATOM     16  C   UNL     1       8.447  -2.471  26.101  0.00  0.00    -0.040 A 
ATOM     17  C   UNL     1       8.742  -1.297  26.997  0.00  0.00    +0.044 C 
ATOM     18  C   UNL     1       8.358  -3.749  26.670  0.00  0.00    +0.049 A 
ATOM     19  C   UNL     1       8.082  -4.852  25.874  0.00  0.00    +0.117 A 
ATOM     20  C   UNL     1       7.867  -4.709  24.509  0.00  0.00    +0.049 A 
ATOM     21  C   UNL     1       7.941  -3.440  23.909  0.00  0.00    -0.040 A 
ATOM     22  C   UNL     1       7.699  -3.361  22.424  0.00  0.00    +0.044 C 
BRANCH  19  23
ATOM     23  O   UNL     1       8.030  -6.073  26.478  0.00  0.00    -0.507 OA
ATOM     24  H   UNL     1       7.815  -6.742  25.808  0.00  0.00    +0.292 HD
ENDBRANCH  19  23
ENDBRANCH  14  15
ENDBRANCH   2  13
TORSDOF 8
ENDMDL
MODEL 2
REMARK VINA RESULT:      -6.9      0.373      1.898
REMARK  Name = 
REMARK  12 active torsions:
REMARK  status: ('A' for Active; 'I' for Inactive)
REMARK    1  A    between atoms: C_2  and  C_3
REMARK    2  A    between atoms: C_2  and  C_4
REMARK    3  A    between atoms: C_2  and  C_8
REMARK    4  A    between atoms: C_4  and  C_5
REMARK    5  A    between atoms: C_5  and  O_6
REMARK    6  A    between atoms: C_9  and  C_10
REMARK    7  A    between atoms: C_11  and  C_12
REMARK    8  A    between atoms: C_11  and  C_13
REMARK    9  A    between atoms: C_14  and  C_15
REMARK   10  A    between atoms: C_16  and  C_17
REMARK   11  A    between atoms: C_19  and  O_20
REMARK   12  A    between atoms: C_22  and  C_23
REMARK                            x       y       z     vdW  Elec       q    Type
REMARK                         _______ _______ _______ _____ _____    ______ ____
ROOT
ATOM      1  C   UNL     1      10.219   1.789  23.895  0.00  0.00    +0.003 C 
ATOM      2  C   UNL     1       9.758   0.763  23.150  0.00  0.00    -0.050 C 
ATOM      3  C   UNL     1       9.552   0.810  21.653  0.00  0.00    +0.044 C 
ENDROOT
BRANCH   1   5
ATOM      4  C   UNL     1      10.292   4.243  24.026  0.00  0.00    -0.023 C 
ATOM      5  C   UNL     1      10.613   3.092  23.412  0.00  0.00    -0.004 C 
BRANCH   4   6
ATOM      6  C   UNL     1      10.741   5.588  23.495  0.00  0.00    +0.019 C 
ATOM      7  C   UNL     1       9.854   6.681  24.104  0.00  0.00    +0.012 C 
BRANCH   6   8
ATOM      8  C   UNL     1      12.217   5.882  23.793  0.00  0.00    +0.127 C 
BRANCH   8   9
ATOM      9  C   UNL     1      13.271   5.478  22.783  0.00  0.00    +0.305 C 
ATOM     10  O   UNL     1      13.058   5.550  21.578  0.00  0.00    -0.251 OA
BRANCH   9  11
ATOM     11  O   UNL     1      14.446   5.023  23.248  0.00  0.00    -0.481 OA
ATOM     12  H   UNL     1      14.613   4.067  23.166  0.00  0.00    +0.295 HD
ENDBRANCH   9  11
ENDBRANCH   8   9
ENDBRANCH   6   8
ENDBRANCH   4   6
ENDBRANCH   1   5
BRANCH   2  13
ATOM     13  C   UNL     1       9.442  -0.504  23.819  0.00  0.00    +0.004 C 
ATOM     14  C   UNL     1       8.208  -1.001  24.007  0.00  0.00    +0.009 C 
BRANCH  14  15
ATOM     15  C   UNL     1       7.966  -2.305  24.638  0.00  0.00    -0.019 A 
ATOM     16  C   UNL     1       7.559  -3.397  23.833  0.00  0.00    -0.040 A 
ATOM     17  C   UNL     1       7.451  -3.281  22.334  0.00  0.00    +0.044 C 
ATOM     18  C   UNL     1       7.251  -4.622  24.439  0.00  0.00    +0.049 A 
ATOM     19  C   UNL     1       7.345  -4.766  25.816  0.00  0.00    +0.117 A 
ATOM     20  C   UNL     1       7.767  -3.709  26.614  0.00  0.00    +0.049 A 
ATOM     21  C   UNL     1       8.092  -2.469  26.036  0.00  0.00    -0.040 A 
ATOM     22  C   UNL     1       8.539  -1.369  26.963  0.00  0.00    +0.044 C 
BRANCH  19  23
ATOM     23  O   UNL     1       7.011  -5.974  26.352  0.00  0.00    -0.507 OA
ATOM     24  H   UNL     1       7.139  -5.932  27.315  0.00  0.00    +0.292 HD
ENDBRANCH  19  23
ENDBRANCH  14  15
ENDBRANCH   2  13
TORSDOF 8
ENDMDL
MODEL 3
REMARK VINA RESULT:      -6.2      2.011      2.723
REMARK  Name = 
REMARK  12 active torsions:
REMARK  status: ('A' for Active; 'I' for Inactive)
REMARK    1  A    between atoms: C_2  and  C_3
REMARK    2  A    between atoms: C_2  and  C_4
REMARK    3  A    between atoms: C_2  and  C_8
REMARK    4  A    between atoms: C_4  and  C_5
REMARK    5  A    between atoms: C_5  and  O_6
REMARK    6  A    between atoms: C_9  and  C_10
REMARK    7  A    between atoms: C_11  and  C_12
REMARK    8  A    between atoms: C_11  and  C_13
REMARK    9  A    between atoms: C_14  and  C_15
REMARK   10  A    between atoms: C_16  and  C_17
REMARK   11  A    between atoms: C_19  and  O_20
REMARK   12  A    between atoms: C_22  and  C_23
REMARK                            x       y       z     vdW  Elec       q    Type
REMARK                         _______ _______ _______ _____ _____    ______ ____
ROOT
ATOM      1  C   UNL     1       8.980   2.302  24.212  0.00  0.00    +0.003 C 
ATOM      2  C   UNL     1       8.094   1.677  25.016  0.00  0.00    -0.050 C 
ATOM      3  C   UNL     1       7.316   2.349  26.125  0.00  0.00    +0.044 C 
ENDROOT
BRANCH   1   5
ATOM      4  C   UNL     1      10.431   4.210  23.666  0.00  0.00    -0.023 C 
ATOM      5  C   UNL     1       9.330   3.703  24.245  0.00  0.00    -0.004 C 
BRANCH   4   6
ATOM      6  C   UNL     1      10.752   5.689  23.709  0.00  0.00    +0.019 C 
ATOM      7  C   UNL     1       9.960   6.335  24.852  0.00  0.00    +0.012 C 
BRANCH   6   8
ATOM      8  C   UNL     1      12.250   5.968  23.884  0.00  0.00    +0.127 C 
BRANCH   8   9
ATOM      9  C   UNL     1      13.223   5.467  22.837  0.00  0.00    +0.305 C 
ATOM     10  O   UNL     1      12.960   5.530  21.641  0.00  0.00    -0.251 OA
BRANCH   9  11
ATOM     11  O   UNL     1      14.384   4.938  23.259  0.00  0.00    -0.481 OA
ATOM     12  H   UNL     1      14.924   5.482  23.859  0.00  0.00    +0.295 HD
ENDBRANCH   9  11
ENDBRANCH   8   9
ENDBRANCH   6   8
ENDBRANCH   4   6
ENDBRANCH   1   5
BRANCH   2  13
ATOM     13  C   UNL     1       7.844   0.247  24.807  0.00  0.00    +0.004 C 
ATOM     14  C   UNL     1       7.057  -0.275  23.852  0.00  0.00    +0.009 C 
BRANCH  14  15
ATOM     15  C   UNL     1       6.894  -1.723  23.662  0.00  0.00    -0.019 A 
ATOM     16  C   UNL     1       7.731  -2.397  22.741  0.00  0.00    -0.040 A 
ATOM     17  C   UNL     1       8.843  -1.688  22.012  0.00  0.00    +0.044 C 
ATOM     18  C   UNL     1       7.529  -3.763  22.499  0.00  0.00    +0.049 A 
ATOM     19  C   UNL     1       6.518  -4.449  23.157  0.00  0.00    +0.117 A 
ATOM     20  C   UNL     1       5.706  -3.803  24.082  0.00  0.00    +0.049 A 
ATOM     21  C   UNL     1       5.889  -2.437  24.354  0.00  0.00    -0.040 A 
ATOM     22  C   UNL     1       4.970  -1.803  25.366  0.00  0.00    +0.044 C 
BRANCH  19  23
ATOM     23  O   UNL     1       6.352  -5.770  22.864  0.00  0.00    -0.507 OA
ATOM     24  H   UNL     1       6.527  -5.902  21.917  0.00  0.00    +0.292 HD
ENDBRANCH  19  23
ENDBRANCH  14  15
ENDBRANCH   2  13
TORSDOF 8
ENDMDL
MODEL 4
REMARK VINA RESULT:      -6.0      2.856      9.985
REMARK  Name = 
REMARK  12 active torsions:
REMARK  status: ('A' for Active; 'I' for Inactive)
REMARK    1  A    between atoms: C_2  and  C_3
REMARK    2  A    between atoms: C_2  and  C_4
REMARK    3  A    between atoms: C_2  and  C_8
REMARK    4  A    between atoms: C_4  and  C_5
REMARK    5  A    between atoms: C_5  and  O_6
REMARK    6  A    between atoms: C_9  and  C_10
REMARK    7  A    between atoms: C_11  and  C_12
REMARK    8  A    between atoms: C_11  and  C_13
REMARK    9  A    between atoms: C_14  and  C_15
REMARK   10  A    between atoms: C_16  and  C_17
REMARK   11  A    between atoms: C_19  and  O_20
REMARK   12  A    between atoms: C_22  and  C_23
REMARK                            x       y       z     vdW  Elec       q    Type
REMARK                         _______ _______ _______ _____ _____    ______ ____
ROOT
ATOM      1  C   UNL     1       7.539  -3.893  25.021  0.00  0.00    +0.003 C 
ATOM      2  C   UNL     1       7.072  -2.875  24.268  0.00  0.00    -0.050 C 
ATOM      3  C   UNL     1       5.719  -2.854  23.593  0.00  0.00    +0.044 C 
ENDROOT
BRANCH   1   5
ATOM      4  C   UNL     1       5.982  -5.252  26.353  0.00  0.00    -0.023 C 
ATOM      5  C   UNL     1       6.843  -5.121  25.331  0.00  0.00    -0.004 C 
BRANCH   4   6
ATOM      6  C   UNL     1       5.259  -6.553  26.633  0.00  0.00    +0.019 C 
ATOM      7  C   UNL     1       5.101  -6.715  28.149  0.00  0.00    +0.012 C 
BRANCH   6   8
ATOM      8  C   UNL     1       3.888  -6.630  25.950  0.00  0.00    +0.127 C 
BRANCH   8   9
ATOM      9  C   UNL     1       3.719  -7.507  24.726  0.00  0.00    +0.305 C 
ATOM     10  O   UNL     1       2.804  -8.319  24.646  0.00  0.00    -0.251 OA
BRANCH   9  11
ATOM     11  O   UNL     1       4.612  -7.377  23.732  0.00  0.00    -0.481 OA
ATOM     12  H   UNL     1       4.294  -6.977  22.902  0.00  0.00    +0.295 HD
ENDBRANCH   9  11
ENDBRANCH   8   9
ENDBRANCH   6   8
ENDBRANCH   4   6
ENDBRANCH   1   5
BRANCH   2  13
ATOM     13  C   UNL     1       7.915  -1.688  24.093  0.00  0.00    +0.004 C 
ATOM     14  C   UNL     1       7.545  -0.550  23.483  0.00  0.00    +0.009 C 
BRANCH  14  15
ATOM     15  C   UNL     1       8.424   0.624  23.392  0.00  0.00    -0.019 A 
ATOM     16  C   UNL     1       9.295   0.750  22.283  0.00  0.00    -0.040 A 
ATOM     17  C   UNL     1       9.285  -0.242  21.149  0.00  0.00    +0.044 C 
ATOM     18  C   UNL     1      10.190   1.827  22.230  0.00  0.00    +0.049 A 
ATOM     19  C   UNL     1      10.223   2.762  23.254  0.00  0.00    +0.117 A 
ATOM     20  C   UNL     1       9.356   2.662  24.336  0.00  0.00    +0.049 A 
ATOM     21  C   UNL     1       8.439   1.599  24.415  0.00  0.00    -0.040 A 
ATOM     22  C   UNL     1       7.533   1.554  25.617  0.00  0.00    +0.044 C 
BRANCH  19  23
ATOM     23  O   UNL     1      11.130   3.775  23.161  0.00  0.00    -0.507 OA
ATOM     24  H   UNL     1      11.406   3.859  22.233  0.00  0.00    +0.292 HD
ENDBRANCH  19  23
ENDBRANCH  14  15
ENDBRANCH   2  13
TORSDOF 8
ENDMDL
MODEL 5
REMARK VINA RESULT:      -6.0      2.558      4.301
REMARK  Name = 
REMARK  12 active torsions:
REMARK  status: ('A' for Active; 'I' for Inactive)
REMARK    1  A    between atoms: C_2  and  C_3
REMARK    2  A    between atoms: C_2  and  C_4
REMARK    3  A    between atoms: C_2  and  C_8
REMARK    4  A    between atoms: C_4  and  C_5
REMARK    5  A    between atoms: C_5  and  O_6
REMARK    6  A    between atoms: C_9  and  C_10
REMARK    7  A    between atoms: C_11  and  C_12
REMARK    8  A    between atoms: C_11  and  C_13
REMARK    9  A    between atoms: C_14  and  C_15
REMARK   10  A    between atoms: C_16  and  C_17
REMARK   11  A    between atoms: C_19  and  O_20
REMARK   12  A    between atoms: C_22  and  C_23
REMARK                            x       y       z     vdW  Elec       q    Type
REMARK                         _______ _______ _______ _____ _____    ______ ____
ROOT
ATOM      1  C   UNL     1       7.692  -0.684  23.734  0.00  0.00    +0.003 C 
ATOM      2  C   UNL     1       8.141  -1.949  23.878  0.00  0.00    -0.050 C 
ATOM      3  C   UNL     1       9.591  -2.363  23.781  0.00  0.00    +0.044 C 
ENDROOT
BRANCH   1   5
ATOM      4  C   UNL     1       8.929   1.316  24.448  0.00  0.00    -0.023 C 
ATOM      5  C   UNL     1       8.496   0.490  23.483  0.00  0.00    -0.004 C 
BRANCH   4   6
ATOM      6  C   UNL     1       9.786   2.527  24.142  0.00  0.00    +0.019 C 
ATOM      7  C   UNL     1      10.293   2.423  22.699  0.00  0.00    +0.012 C 
BRANCH   6   8
ATOM      8  C   UNL     1       9.038   3.851  24.343  0.00  0.00    +0.127 C 
BRANCH   8   9
ATOM      9  C   UNL     1       9.605   5.120  23.741  0.00  0.00    +0.305 C 
ATOM     10  O   UNL     1      10.626   5.633  24.184  0.00  0.00    -0.251 OA
BRANCH   9  11
ATOM     11  O   UNL     1       8.946   5.677  22.712  0.00  0.00    -0.481 OA
ATOM     12  H   UNL     1       7.979   5.759  22.800  0.00  0.00    +0.295 HD
ENDBRANCH   9  11
ENDBRANCH   8   9
ENDBRANCH   6   8
ENDBRANCH   4   6
ENDBRANCH   1   5
BRANCH   2  13
ATOM     13  C   UNL     1       7.169  -3.009  24.166  0.00  0.00    +0.004 C 
ATOM     14  C   UNL     1       7.456  -4.314  24.304  0.00  0.00    +0.009 C 
BRANCH  14  15
ATOM     15  C   UNL     1       6.439  -5.318  24.648  0.00  0.00    -0.019 A 
ATOM     16  C   UNL     1       5.670  -5.904  23.614  0.00  0.00    -0.040 A 
ATOM     17  C   UNL     1       5.922  -5.591  22.162  0.00  0.00    +0.044 C 
ATOM     18  C   UNL     1       4.646  -6.803  23.943  0.00  0.00    +0.049 A 
ATOM     19  C   UNL     1       4.391  -7.118  25.270  0.00  0.00    +0.117 A 
ATOM     20  C   UNL     1       5.156  -6.569  26.292  0.00  0.00    +0.049 A 
ATOM     21  C   UNL     1       6.196  -5.671  25.995  0.00  0.00    -0.040 A 
ATOM     22  C   UNL     1       6.981  -5.113  27.153  0.00  0.00    +0.044 C 
BRANCH  19  23
ATOM     23  O   UNL     1       3.368  -7.981  25.532  0.00  0.00    -0.507 OA
ATOM     24  H   UNL     1       2.821  -8.066  24.733  0.00  0.00    +0.292 HD
ENDBRANCH  19  23
ENDBRANCH  14  15
ENDBRANCH   2  13
TORSDOF 8
ENDMDL
MODEL 6
REMARK VINA RESULT:      -6.0      1.571      2.700
REMARK  Name = 
REMARK  12 active torsions:
REMARK  status: ('A' for Active; 'I' for Inactive)
REMARK    1  A    between atoms: C_2  and  C_3
REMARK    2  A    between atoms: C_2  and  C_4
REMARK    3  A    between atoms: C_2  and  C_8
REMARK    4  A    between atoms: C_4  and  C_5
REMARK    5  A    between atoms: C_5  and  O_6
REMARK    6  A    between atoms: C_9  and  C_10
REMARK    7  A    between atoms: C_11  and  C_12
REMARK    8  A    between atoms: C_11  and  C_13
REMARK    9  A    between atoms: C_14  and  C_15
REMARK   10  A    between atoms: C_16  and  C_17
REMARK   11  A    between atoms: C_19  and  O_20
REMARK   12  A    between atoms: C_22  and  C_23
REMARK                            x       y       z     vdW  Elec       q    Type
REMARK                         _______ _______ _______ _____ _____    ______ ____
ROOT
ATOM      1  C   UNL     1       8.422   0.761  23.362  0.00  0.00    +0.003 C 
ATOM      2  C   UNL     1       8.807  -0.502  23.084  0.00  0.00    -0.050 C 
ATOM      3  C   UNL     1      10.052  -0.871  22.309  0.00  0.00    +0.044 C 
ENDROOT
BRANCH   1   5
ATOM      4  C   UNL     1       9.418   2.953  23.863  0.00  0.00    -0.023 C 
ATOM      5  C   UNL     1       9.119   1.973  22.995  0.00  0.00    -0.004 C 
BRANCH   4   6
ATOM      6  C   UNL     1      10.167   4.199  23.440  0.00  0.00    +0.019 C 
ATOM      7  C   UNL     1       9.753   5.359  24.353  0.00  0.00    +0.012 C 
BRANCH   6   8
ATOM      8  C   UNL     1      11.690   4.018  23.477  0.00  0.00    +0.127 C 
BRANCH   8   9
ATOM      9  C   UNL     1      12.583   5.197  23.149  0.00  0.00    +0.305 C 
ATOM     10  O   UNL     1      12.892   5.458  21.992  0.00  0.00    -0.251 OA
BRANCH   9  11
ATOM     11  O   UNL     1      13.039   5.943  24.168  0.00  0.00    -0.481 OA
ATOM     12  H   UNL     1      12.690   5.740  25.054  0.00  0.00    +0.295 HD
ENDBRANCH   9  11
ENDBRANCH   8   9
ENDBRANCH   6   8
ENDBRANCH   4   6
ENDBRANCH   1   5
BRANCH   2  13
ATOM     13  C   UNL     1       7.981  -1.611  23.574  0.00  0.00    +0.004 C 
ATOM     14  C   UNL     1       8.297  -2.914  23.495  0.00  0.00    +0.009 C 
BRANCH  14  15
ATOM     15  C   UNL     1       7.447  -3.972  24.057  0.00  0.00    -0.019 A 
ATOM     16  C   UNL     1       6.386  -4.492  23.278  0.00  0.00    -0.040 A 
ATOM     17  C   UNL     1       6.156  -4.053  21.855  0.00  0.00    +0.044 C 
ATOM     18  C   UNL     1       5.524  -5.446  23.837  0.00  0.00    +0.049 A 
ATOM     19  C   UNL     1       5.710  -5.877  25.143  0.00  0.00    +0.117 A 
ATOM     20  C   UNL     1       6.763  -5.392  25.909  0.00  0.00    +0.049 A 
ATOM     21  C   UNL     1       7.651  -4.442  25.375  0.00  0.00    -0.040 A 
ATOM     22  C   UNL     1       8.767  -3.959  26.264  0.00  0.00    +0.044 C 
BRANCH  19  23
ATOM     23  O   UNL     1       4.827  -6.788  25.642  0.00  0.00    -0.507 OA
ATOM     24  H   UNL     1       4.245  -7.083  24.922  0.00  0.00    +0.292 HD
ENDBRANCH  19  23
ENDBRANCH  14  15
ENDBRANCH   2  13
TORSDOF 8
ENDMDL
MODEL 7
REMARK VINA RESULT:      -5.9      2.526      9.558
REMARK  Name = 
REMARK  12 active torsions:
REMARK  status: ('A' for Active; 'I' for Inactive)
REMARK    1  A    between atoms: C_2  and  C_3
REMARK    2  A    between atoms: C_2  and  C_4
REMARK    3  A    between atoms: C_2  and  C_8
REMARK    4  A    between atoms: C_4  and  C_5
REMARK    5  A    between atoms: C_5  and  O_6
REMARK    6  A    between atoms: C_9  and  C_10
REMARK    7  A    between atoms: C_11  and  C_12
REMARK    8  A    between atoms: C_11  and  C_13
REMARK    9  A    between atoms: C_14  and  C_15
REMARK   10  A    between atoms: C_16  and  C_17
REMARK   11  A    between atoms: C_19  and  O_20
REMARK   12  A    between atoms: C_22  and  C_23
REMARK                            x       y       z     vdW  Elec       q    Type
REMARK                         _______ _______ _______ _____ _____    ______ ____
ROOT
ATOM      1  C   UNL     1       6.279  -3.191  24.906  0.00  0.00    +0.003 C 
ATOM      2  C   UNL     1       6.223  -2.573  23.707  0.00  0.00    -0.050 C 
ATOM      3  C   UNL     1       5.539  -3.134  22.481  0.00  0.00    +0.044 C 
ENDROOT
BRANCH   1   5
ATOM      4  C   UNL     1       5.028  -4.706  26.383  0.00  0.00    -0.023 C 
ATOM      5  C   UNL     1       5.695  -4.469  25.242  0.00  0.00    -0.004 C 
BRANCH   4   6
ATOM      6  C   UNL     1       4.415  -6.057  26.688  0.00  0.00    +0.019 C 
ATOM      7  C   UNL     1       4.537  -6.948  25.447  0.00  0.00    +0.012 C 
BRANCH   6   8
ATOM      8  C   UNL     1       5.065  -6.745  27.896  0.00  0.00    +0.127 C 
BRANCH   8   9
ATOM      9  C   UNL     1       6.249  -6.088  28.573  0.00  0.00    +0.305 C 
ATOM     10  O   UNL     1       6.125  -5.498  29.640  0.00  0.00    -0.251 OA
BRANCH   9  11
ATOM     11  O   UNL     1       7.443  -6.161  27.961  0.00  0.00    -0.481 OA
ATOM     12  H   UNL     1       8.233  -6.063  28.522  0.00  0.00    +0.295 HD
ENDBRANCH   9  11
ENDBRANCH   8   9
ENDBRANCH   6   8
ENDBRANCH   4   6
ENDBRANCH   1   5
BRANCH   2  13
ATOM     13  C   UNL     1       6.850  -1.254  23.568  0.00  0.00    +0.004 C 
ATOM     14  C   UNL     1       8.123  -0.959  23.878  0.00  0.00    +0.009 C 
BRANCH  14  15
ATOM     15  C   UNL     1       8.704   0.373  23.660  0.00  0.00    -0.019 A 
ATOM     16  C   UNL     1       9.458   0.614  22.487  0.00  0.00    -0.040 A 
ATOM     17  C   UNL     1       9.611  -0.432  21.412  0.00  0.00    +0.044 C 
ATOM     18  C   UNL     1      10.080   1.858  22.311  0.00  0.00    +0.049 A 
ATOM     19  C   UNL     1       9.956   2.845  23.278  0.00  0.00    +0.117 A 
ATOM     20  C   UNL     1       9.197   2.629  24.422  0.00  0.00    +0.049 A 
ATOM     21  C   UNL     1       8.553   1.396  24.624  0.00  0.00    -0.040 A 
ATOM     22  C   UNL     1       7.751   1.233  25.888  0.00  0.00    +0.044 C 
BRANCH  19  23
ATOM     23  O   UNL     1      10.601   4.027  23.064  0.00  0.00    -0.507 OA
ATOM     24  H   UNL     1      11.167   3.934  22.280  0.00  0.00    +0.292 HD
ENDBRANCH  19  23
ENDBRANCH  14  15
ENDBRANCH   2  13
TORSDOF 8
ENDMDL
MODEL 8
REMARK VINA RESULT:      -5.9      2.980      9.923
REMARK  Name = 
REMARK  12 active torsions:
REMARK  status: ('A' for Active; 'I' for Inactive)
REMARK    1  A    between atoms: C_2  and  C_3
REMARK    2  A    between atoms: C_2  and  C_4
REMARK    3  A    between atoms: C_2  and  C_8
REMARK    4  A    between atoms: C_4  and  C_5
REMARK    5  A    between atoms: C_5  and  O_6
REMARK    6  A    between atoms: C_9  and  C_10
REMARK    7  A    between atoms: C_11  and  C_12
REMARK    8  A    between atoms: C_11  and  C_13
REMARK    9  A    between atoms: C_14  and  C_15
REMARK   10  A    between atoms: C_16  and  C_17
REMARK   11  A    between atoms: C_19  and  O_20
REMARK   12  A    between atoms: C_22  and  C_23
REMARK                            x       y       z     vdW  Elec       q    Type
REMARK                         _______ _______ _______ _____ _____    ______ ____
ROOT
ATOM      1  C   UNL     1       7.131  -4.018  24.952  0.00  0.00    +0.003 C 
ATOM      2  C   UNL     1       8.471  -3.856  24.948  0.00  0.00    -0.050 C 
ATOM      3  C   UNL     1       9.469  -4.932  25.311  0.00  0.00    +0.044 C 
ENDROOT
BRANCH   1   5
ATOM      4  C   UNL     1       5.805  -5.439  26.457  0.00  0.00    -0.023 C 
ATOM      5  C   UNL     1       6.413  -5.228  25.279  0.00  0.00    -0.004 C 
BRANCH   4   6
ATOM      6  C   UNL     1       5.046  -6.716  26.752  0.00  0.00    +0.019 C 
ATOM      7  C   UNL     1       5.045  -6.952  28.267  0.00  0.00    +0.012 C 
BRANCH   6   8
ATOM      8  C   UNL     1       3.607  -6.688  26.223  0.00  0.00    +0.127 C 
BRANCH   8   9
ATOM      9  C   UNL     1       3.259  -7.484  24.983  0.00  0.00    +0.305 C 
ATOM     10  O   UNL     1       3.297  -6.975  23.868  0.00  0.00    -0.251 OA
BRANCH   9  11
ATOM     11  O   UNL     1       2.893  -8.767  25.141  0.00  0.00    -0.481 OA
ATOM     12  H   UNL     1       3.349  -9.427  24.588  0.00  0.00    +0.295 HD
ENDBRANCH   9  11
ENDBRANCH   8   9
ENDBRANCH   6   8
ENDBRANCH   4   6
ENDBRANCH   1   5
BRANCH   2  13
ATOM     13  C   UNL     1       9.019  -2.554  24.551  0.00  0.00    +0.004 C 
ATOM     14  C   UNL     1       8.306  -1.520  24.076  0.00  0.00    +0.009 C 
BRANCH  14  15
ATOM     15  C   UNL     1       8.913  -0.222  23.750  0.00  0.00    -0.019 A 
ATOM     16  C   UNL     1       8.831   0.834  24.689  0.00  0.00    -0.040 A 
ATOM     17  C   UNL     1       8.214   0.640  26.050  0.00  0.00    +0.044 C 
ATOM     18  C   UNL     1       9.338   2.097  24.352  0.00  0.00    +0.049 A 
ATOM     19  C   UNL     1       9.918   2.309  23.109  0.00  0.00    +0.117 A 
ATOM     20  C   UNL     1      10.026   1.274  22.189  0.00  0.00    +0.049 A 
ATOM     21  C   UNL     1       9.536  -0.006  22.499  0.00  0.00    -0.040 A 
ATOM     22  C   UNL     1       9.685  -1.079  21.452  0.00  0.00    +0.044 C 
BRANCH  19  23
ATOM     23  O   UNL     1      10.373   3.563  22.827  0.00  0.00    -0.507 OA
ATOM     24  H   UNL     1      11.229   3.689  23.270  0.00  0.00    +0.292 HD
ENDBRANCH  19  23
ENDBRANCH  14  15
ENDBRANCH   2  13
TORSDOF 8
ENDMDL
MODEL 9
REMARK VINA RESULT:      -5.8      1.996      2.388
REMARK  Name = 
REMARK  12 active torsions:
REMARK  status: ('A' for Active; 'I' for Inactive)
REMARK    1  A    between atoms: C_2  and  C_3
REMARK    2  A    between atoms: C_2  and  C_4
REMARK    3  A    between atoms: C_2  and  C_8
REMARK    4  A    between atoms: C_4  and  C_5
REMARK    5  A    between atoms: C_5  and  O_6
REMARK    6  A    between atoms: C_9  and  C_10
REMARK    7  A    between atoms: C_11  and  C_12
REMARK    8  A    between atoms: C_11  and  C_13
REMARK    9  A    between atoms: C_14  and  C_15
REMARK   10  A    between atoms: C_16  and  C_17
REMARK   11  A    between atoms: C_19  and  O_20
REMARK   12  A    between atoms: C_22  and  C_23
REMARK                            x       y       z     vdW  Elec       q    Type
REMARK                         _______ _______ _______ _____ _____    ______ ____
ROOT
ATOM      1  C   UNL     1       7.705   1.722  23.086  0.00  0.00    +0.003 C 
ATOM      2  C   UNL     1       8.540   0.748  22.666  0.00  0.00    -0.050 C 
ATOM      3  C   UNL     1       9.433   0.845  21.451  0.00  0.00    +0.044 C 
ENDROOT
BRANCH   1   5
ATOM      4  C   UNL     1       7.698   4.180  23.131  0.00  0.00    -0.023 C 
ATOM      5  C   UNL     1       7.525   3.020  22.477  0.00  0.00    -0.004 C 
BRANCH   4   6
ATOM      6  C   UNL     1       7.516   5.521  22.449  0.00  0.00    +0.019 C 
ATOM      7  C   UNL     1       6.058   5.965  22.611  0.00  0.00    +0.012 C 
BRANCH   6   8
ATOM      8  C   UNL     1       8.459   6.599  22.999  0.00  0.00    +0.127 C 
BRANCH   8   9
ATOM      9  C   UNL     1       9.759   6.182  23.654  0.00  0.00    +0.305 C 
ATOM     10  O   UNL     1       9.907   6.242  24.870  0.00  0.00    -0.251 OA
BRANCH   9  11
ATOM     11  O   UNL     1      10.754   5.755  22.860  0.00  0.00    -0.481 OA
ATOM     12  H   UNL     1      11.146   6.408  22.253  0.00  0.00    +0.295 HD
ENDBRANCH   9  11
ENDBRANCH   8   9
ENDBRANCH   6   8
ENDBRANCH   4   6
ENDBRANCH   1   5
BRANCH   2  13
ATOM     13  C   UNL     1       8.611  -0.496  23.440  0.00  0.00    +0.004 C 
ATOM     14  C   UNL     1       7.557  -1.222  23.850  0.00  0.00    +0.009 C 
BRANCH  14  15
ATOM     15  C   UNL     1       7.702  -2.491  24.576  0.00  0.00    -0.019 A 
ATOM     16  C   UNL     1       7.951  -2.464  25.970  0.00  0.00    -0.040 A 
ATOM     17  C   UNL     1       7.986  -1.173  26.745  0.00  0.00    +0.044 C 
ATOM     18  C   UNL     1       8.167  -3.669  26.653  0.00  0.00    +0.049 A 
ATOM     19  C   UNL     1       8.136  -4.876  25.971  0.00  0.00    +0.117 A 
ATOM     20  C   UNL     1       7.868  -4.917  24.607  0.00  0.00    +0.049 A 
ATOM     21  C   UNL     1       7.638  -3.728  23.894  0.00  0.00    -0.040 A 
ATOM     22  C   UNL     1       7.356  -3.848  22.420  0.00  0.00    +0.044 C 
BRANCH  19  23
ATOM     23  O   UNL     1       8.377  -6.014  26.683  0.00  0.00    -0.507 OA
ATOM     24  H   UNL     1       7.794  -6.717  26.351  0.00  0.00    +0.292 HD
ENDBRANCH  19  23
ENDBRANCH  14  15
ENDBRANCH   2  13
TORSDOF 8
ENDMDL
