MODEL 1
REMARK VINA RESULT:      -6.6      0.000      0.000
REMARK  Name = 
REMARK  23 active torsions:
REMARK  status: ('A' for Active; 'I' for Inactive)
REMARK    1  A    between atoms: C_1  and  C_2
REMARK    2  A    between atoms: N_4  and  C_5
REMARK    3  A    between atoms: C_7  and  O_9
REMARK    4  A    between atoms: C_10  and  O_12
REMARK    5  A    between atoms: C_13  and  C_15
REMARK    6  A    between atoms: C_15  and  O_16
REMARK    7  A    between atoms: C_18  and  O_20
REMARK    8  A    between atoms: O_20  and  C_21
REMARK    9  A    between atoms: C_23  and  O_25
REMARK   10  A    between atoms: C_26  and  N_28
REMARK   11  A    between atoms: C_29  and  C_30
REMARK   12  A    between atoms: C_32  and  O_34
REMARK   13  A    between atoms: O_34  and  C_35
REMARK   14  A    between atoms: C_37  and  O_39
REMARK   15  A    between atoms: C_40  and  N_42
REMARK   16  A    between atoms: C_43  and  C_44
REMARK   17  A    between atoms: C_46  and  O_48
REMARK   18  A    between atoms: O_48  and  C_49
REMARK   19  A    between atoms: C_53  and  C_54
REMARK   20  A    between atoms: C_62  and  C_64
REMARK   21  A    between atoms: C_64  and  O_65
REMARK   22  A    between atoms: C_67  and  C_69
REMARK   23  A    between atoms: C_69  and  O_70
REMARK                            x       y       z     vdW  Elec       q    Type
REMARK                         _______ _______ _______ _____ _____    ______ ____
ROOT
ATOM      1  C   UNL     1       2.426  -3.464  25.694  0.00  0.00    +0.183 C 
ATOM      2  C   UNL     1       3.897  -3.648  25.230  0.00  0.00    +0.178 C 
ATOM      3  O   UNL     1       4.719  -4.164  26.282  0.00  0.00    -0.341 OA
ATOM      4  C   UNL     1       4.770  -3.364  27.471  0.00  0.00    +0.274 C 
ATOM      5  C   UNL     1       3.374  -2.964  28.007  0.00  0.00    +0.160 C 
ATOM      6  C   UNL     1       2.497  -2.442  26.859  0.00  0.00    +0.171 C 
ENDROOT
BRANCH   5   7
ATOM      7  N   UNL     1       2.774  -4.082  28.743  0.00  0.00    -0.305 N 
ATOM      8  H   UNL     1       3.323  -4.934  28.789  0.00  0.00    +0.149 HD
ATOM      9  C   UNL     1       1.792  -3.868  29.678  0.00  0.00    +0.210 C 
ATOM     10  O   UNL     1       1.225  -2.801  29.831  0.00  0.00    -0.276 OA
ATOM     11  C   UNL     1       1.427  -5.098  30.485  0.00  0.00    +0.109 C 
ENDBRANCH   5   7
BRANCH   6  12
ATOM     12  O   UNL     1       2.985  -1.180  26.358  0.00  0.00    -0.387 OA
ATOM     13  H   UNL     1       2.367  -0.813  25.687  0.00  0.00    +0.210 HD
ENDBRANCH   6  12
BRANCH   4  14
ATOM     14  O   UNL     1       5.660  -2.245  27.308  0.00  0.00    -0.341 OA
BRANCH  14  15
ATOM     15  C   UNL     1       6.140  -2.077  25.949  0.00  0.00    +0.183 C 
ATOM     16  C   UNL     1       7.657  -2.400  25.850  0.00  0.00    +0.179 C 
ATOM     17  O   UNL     1       8.469  -1.369  26.447  0.00  0.00    -0.332 OA
ATOM     18  C   UNL     1       8.270  -0.056  25.894  0.00  0.00    +0.331 C 
ATOM     19  C   UNL     1       6.816   0.378  26.119  0.00  0.00    +0.173 C 
ATOM     20  C   UNL     1       5.902  -0.644  25.404  0.00  0.00    +0.172 C 
BRANCH  19  21
ATOM     21  N   UNL     1       6.591   0.521  27.573  0.00  0.00    -0.304 N 
ATOM     22  H   UNL     1       6.470  -0.339  28.101  0.00  0.00    +0.149 HD
ATOM     23  C   UNL     1       6.299   1.705  28.196  0.00  0.00    +0.210 C 
ATOM     24  O   UNL     1       6.161   2.762  27.592  0.00  0.00    -0.276 OA
ATOM     25  C   UNL     1       6.160   1.603  29.695  0.00  0.00    +0.109 C 
ENDBRANCH  19  21
BRANCH  20  26
ATOM     26  O   UNL     1       6.066  -0.638  23.976  0.00  0.00    -0.387 OA
ATOM     27  H   UNL     1       6.783  -1.245  23.720  0.00  0.00    +0.210 HD
ENDBRANCH  20  26
BRANCH  18  28
ATOM     28  O   UNL     1       8.617   0.045  24.505  0.00  0.00    -0.461 OA
BRANCH  28  29
ATOM     29  C   UNL     1       9.226   1.214  24.145  0.00  0.00    +0.127 A 
ATOM     30  C   UNL     1       8.563   2.428  23.992  0.00  0.00    +0.092 A 
ATOM     31  C   UNL     1       9.293   3.581  23.765  0.00  0.00    +0.143 A 
ATOM     32  C   UNL     1      10.681   3.579  23.628  0.00  0.00    +0.021 A 
ATOM     33  C   UNL     1      11.350   4.872  23.425  0.00  0.00    -0.033 A 
ATOM     34  C   UNL     1      10.599   5.985  23.471  0.00  0.00    +0.096 A 
ATOM     35  C   UNL     1       9.147   5.986  23.676  0.00  0.00    +0.337 A 
ATOM     36  O   UNL     1       8.525   7.040  23.764  0.00  0.00    -0.245 OA
ATOM     37  C   UNL     1      12.822   4.987  23.180  0.00  0.00    +0.045 C 
ATOM     38  C   UNL     1      11.331   2.341  23.718  0.00  0.00    +0.015 A 
ATOM     39  O   UNL     1       8.534   4.763  23.739  0.00  0.00    -0.422 OA
ATOM     40  C   UNL     1      10.609   1.165  23.975  0.00  0.00    +0.046 A 
ENDBRANCH  28  29
ENDBRANCH  18  28
BRANCH  16  41
ATOM     41  C   UNL     1       8.092  -3.720  26.509  0.00  0.00    +0.190 C 
BRANCH  41  42
ATOM     42  O   UNL     1       7.583  -4.874  25.854  0.00  0.00    -0.392 OA
ATOM     43  H   UNL     1       8.244  -5.581  25.992  0.00  0.00    +0.210 HD
ENDBRANCH  41  42
ENDBRANCH  16  41
ENDBRANCH  14  15
ENDBRANCH   4  14
BRANCH   2  44
ATOM     44  C   UNL     1       4.100  -4.577  24.036  0.00  0.00    +0.190 C 
BRANCH  44  45
ATOM     45  O   UNL     1       5.300  -5.337  24.180  0.00  0.00    -0.392 OA
ATOM     46  H   UNL     1       5.489  -5.711  23.303  0.00  0.00    +0.210 HD
ENDBRANCH  44  45
ENDBRANCH   2  44
BRANCH   1  47
ATOM     47  O   UNL     1       1.723  -4.650  26.163  0.00  0.00    -0.341 OA
BRANCH  47  49
ATOM     48  C   UNL     1       2.538  -6.997  26.067  0.00  0.00    +0.160 C 
ATOM     49  C   UNL     1       1.818  -5.818  25.329  0.00  0.00    +0.274 C 
ATOM     50  O   UNL     1       0.548  -6.224  24.827  0.00  0.00    -0.341 OA
ATOM     51  C   UNL     1       0.552  -7.335  23.901  0.00  0.00    +0.178 C 
ATOM     52  C   UNL     1       1.339  -8.545  24.428  0.00  0.00    +0.176 C 
ATOM     53  C   UNL     1       2.703  -8.149  25.031  0.00  0.00    +0.171 C 
BRANCH  48  56
ATOM     54  C   UNL     1       1.616  -8.144  29.592  0.00  0.00    +0.109 C 
ATOM     55  C   UNL     1       2.453  -7.537  28.499  0.00  0.00    +0.210 C 
ATOM     56  N   UNL     1       1.813  -7.461  27.269  0.00  0.00    -0.305 N 
ATOM     57  H   UNL     1       0.802  -7.417  27.265  0.00  0.00    +0.149 HD
ATOM     58  O   UNL     1       3.601  -7.163  28.688  0.00  0.00    -0.276 OA
ENDBRANCH  48  56
BRANCH  53  59
ATOM     59  O   UNL     1       3.649  -7.852  23.993  0.00  0.00    -0.387 OA
ATOM     60  H   UNL     1       3.395  -8.217  23.133  0.00  0.00    +0.210 HD
ENDBRANCH  53  59
BRANCH  52  61
ATOM     61  O   UNL     1       0.521  -9.198  25.411  0.00  0.00    -0.387 OA
ATOM     62  H   UNL     1       0.371 -10.110  25.098  0.00  0.00    +0.210 HD
ENDBRANCH  52  61
BRANCH  51  63
ATOM     63  C   UNL     1       0.966  -6.985  22.461  0.00  0.00    +0.190 C 
BRANCH  63  64
ATOM     64  O   UNL     1       1.563  -8.089  21.795  0.00  0.00    -0.392 OA
ATOM     65  H   UNL     1       1.546  -8.862  22.387  0.00  0.00    +0.210 HD
ENDBRANCH  63  64
ENDBRANCH  51  63
ENDBRANCH  47  49
ENDBRANCH   1  47
TORSDOF 19
ENDMDL
MODEL 2
REMARK VINA RESULT:      -6.5      3.685      9.812
REMARK  Name = 
REMARK  23 active torsions:
REMARK  status: ('A' for Active; 'I' for Inactive)
REMARK    1  A    between atoms: C_1  and  C_2
REMARK    2  A    between atoms: N_4  and  C_5
REMARK    3  A    between atoms: C_7  and  O_9
REMARK    4  A    between atoms: C_10  and  O_12
REMARK    5  A    between atoms: C_13  and  C_15
REMARK    6  A    between atoms: C_15  and  O_16
REMARK    7  A    between atoms: C_18  and  O_20
REMARK    8  A    between atoms: O_20  and  C_21
REMARK    9  A    between atoms: C_23  and  O_25
REMARK   10  A    between atoms: C_26  and  N_28
REMARK   11  A    between atoms: C_29  and  C_30
REMARK   12  A    between atoms: C_32  and  O_34
REMARK   13  A    between atoms: O_34  and  C_35
REMARK   14  A    between atoms: C_37  and  O_39
REMARK   15  A    between atoms: C_40  and  N_42
REMARK   16  A    between atoms: C_43  and  C_44
REMARK   17  A    between atoms: C_46  and  O_48
REMARK   18  A    between atoms: O_48  and  C_49
REMARK   19  A    between atoms: C_53  and  C_54
REMARK   20  A    between atoms: C_62  and  C_64
REMARK   21  A    between atoms: C_64  and  O_65
REMARK   22  A    between atoms: C_67  and  C_69
REMARK   23  A    between atoms: C_69  and  O_70
REMARK                            x       y       z     vdW  Elec       q    Type
REMARK                         _______ _______ _______ _____ _____    ______ ____
ROOT
ATOM      1  C   UNL     1       6.672   3.971  24.622  0.00  0.00    +0.183 C 
ATOM      2  C   UNL     1       6.778   3.091  23.346  0.00  0.00    +0.178 C 
ATOM      3  O   UNL     1       5.931   1.941  23.429  0.00  0.00    -0.341 OA
ATOM      4  C   UNL     1       6.184   1.070  24.540  0.00  0.00    +0.274 C 
ATOM      5  C   UNL     1       6.250   1.806  25.900  0.00  0.00    +0.160 C 
ATOM      6  C   UNL     1       7.139   3.054  25.782  0.00  0.00    +0.171 C 
ENDROOT
BRANCH   5   7
ATOM      7  N   UNL     1       4.897   2.093  26.387  0.00  0.00    -0.305 N 
ATOM      8  H   UNL     1       4.164   2.117  25.687  0.00  0.00    +0.149 HD
ATOM      9  C   UNL     1       4.559   1.884  27.701  0.00  0.00    +0.210 C 
ATOM     10  O   UNL     1       5.368   1.636  28.577  0.00  0.00    -0.276 OA
ATOM     11  C   UNL     1       3.079   2.036  27.991  0.00  0.00    +0.109 C 
ENDBRANCH   5   7
BRANCH   6  12
ATOM     12  O   UNL     1       8.522   2.695  25.581  0.00  0.00    -0.387 OA
ATOM     13  H   UNL     1       8.789   1.986  26.208  0.00  0.00    +0.210 HD
ENDBRANCH   6  12
BRANCH   4  14
ATOM     14  O   UNL     1       7.324   0.227  24.292  0.00  0.00    -0.341 OA
BRANCH  14  15
ATOM     15  C   UNL     1       6.973  -1.099  23.817  0.00  0.00    +0.183 C 
ATOM     16  C   UNL     1       6.902  -2.111  24.994  0.00  0.00    +0.179 C 
ATOM     17  O   UNL     1       8.210  -2.449  25.497  0.00  0.00    -0.332 OA
ATOM     18  C   UNL     1       9.106  -2.994  24.513  0.00  0.00    +0.331 C 
ATOM     19  C   UNL     1       9.340  -1.958  23.405  0.00  0.00    +0.173 C 
ATOM     20  C   UNL     1       7.973  -1.638  22.760  0.00  0.00    +0.172 C 
BRANCH  19  21
ATOM     21  N   UNL     1      10.050  -0.802  23.992  0.00  0.00    -0.304 N 
ATOM     22  H   UNL     1      10.088  -0.757  25.006  0.00  0.00    +0.149 HD
ATOM     23  C   UNL     1      10.437   0.306  23.285  0.00  0.00    +0.210 C 
ATOM     24  O   UNL     1      10.195   0.457  22.093  0.00  0.00    -0.276 OA
ATOM     25  C   UNL     1      11.189   1.332  24.096  0.00  0.00    +0.109 C 
ENDBRANCH  19  21
BRANCH  20  26
ATOM     26  O   UNL     1       7.396  -2.768  22.083  0.00  0.00    -0.387 OA
ATOM     27  H   UNL     1       6.438  -2.806  22.255  0.00  0.00    +0.210 HD
ENDBRANCH  20  26
BRANCH  18  28
ATOM     28  O   UNL     1       8.661  -4.239  23.952  0.00  0.00    -0.461 OA
BRANCH  28  29
ATOM     29  C   UNL     1       7.753  -4.923  24.709  0.00  0.00    +0.127 A 
ATOM     30  C   UNL     1       7.957  -5.290  26.036  0.00  0.00    +0.092 A 
ATOM     31  C   UNL     1       6.918  -5.853  26.755  0.00  0.00    +0.143 A 
ATOM     32  C   UNL     1       5.671  -6.125  26.193  0.00  0.00    +0.021 A 
ATOM     33  C   UNL     1       4.636  -6.692  27.067  0.00  0.00    -0.033 A 
ATOM     34  C   UNL     1       4.920  -6.834  28.373  0.00  0.00    +0.096 A 
ATOM     35  C   UNL     1       6.213  -6.491  28.971  0.00  0.00    +0.337 A 
ATOM     36  O   UNL     1       6.393  -6.592  30.182  0.00  0.00    -0.245 OA
ATOM     37  C   UNL     1       3.289  -7.103  26.559  0.00  0.00    +0.045 C 
ATOM     38  C   UNL     1       5.500  -5.811  24.838  0.00  0.00    +0.015 A 
ATOM     39  O   UNL     1       7.199  -6.081  28.113  0.00  0.00    -0.422 OA
ATOM     40  C   UNL     1       6.533  -5.214  24.100  0.00  0.00    +0.046 A 
ENDBRANCH  28  29
ENDBRANCH  18  28
BRANCH  16  41
ATOM     41  C   UNL     1       6.084  -1.646  26.211  0.00  0.00    +0.190 C 
BRANCH  41  42
ATOM     42  O   UNL     1       4.684  -1.607  25.971  0.00  0.00    -0.392 OA
ATOM     43  H   UNL     1       4.357  -0.789  26.396  0.00  0.00    +0.210 HD
ENDBRANCH  41  42
ENDBRANCH  16  41
ENDBRANCH  14  15
ENDBRANCH   4  14
BRANCH   2  44
ATOM     44  C   UNL     1       6.425   3.788  22.034  0.00  0.00    +0.190 C 
BRANCH  44  45
ATOM     45  O   UNL     1       7.334   4.855  21.763  0.00  0.00    -0.392 OA
ATOM     46  H   UNL     1       6.823   5.676  21.863  0.00  0.00    +0.210 HD
ENDBRANCH  44  45
ENDBRANCH   2  44
BRANCH   1  47
ATOM     47  O   UNL     1       5.359   4.505  24.954  0.00  0.00    -0.341 OA
BRANCH  47  49
ATOM     48  C   UNL     1       3.193   4.186  23.775  0.00  0.00    +0.160 C 
ATOM     49  C   UNL     1       4.556   4.955  23.849  0.00  0.00    +0.274 C 
ATOM     50  O   UNL     1       4.351   6.365  23.874  0.00  0.00    -0.341 OA
ATOM     51  C   UNL     1       3.634   6.926  22.750  0.00  0.00    +0.178 C 
ATOM     52  C   UNL     1       2.315   6.191  22.460  0.00  0.00    +0.176 C 
ATOM     53  C   UNL     1       2.476   4.657  22.475  0.00  0.00    +0.171 C 
BRANCH  48  56
ATOM     54  C   UNL     1       0.451   3.950  26.425  0.00  0.00    +0.109 C 
ATOM     55  C   UNL     1       1.302   3.526  25.259  0.00  0.00    +0.210 C 
ATOM     56  N   UNL     1       2.338   4.401  24.963  0.00  0.00    -0.305 N 
ATOM     57  H   UNL     1       2.697   4.979  25.712  0.00  0.00    +0.149 HD
ATOM     58  O   UNL     1       1.078   2.505  24.625  0.00  0.00    -0.276 OA
ENDBRANCH  48  56
BRANCH  53  59
ATOM     59  O   UNL     1       3.117   4.203  21.274  0.00  0.00    -0.387 OA
ATOM     60  H   UNL     1       2.810   3.329  20.987  0.00  0.00    +0.210 HD
ENDBRANCH  53  59
BRANCH  52  61
ATOM     61  O   UNL     1       1.360   6.610  23.447  0.00  0.00    -0.387 OA
ATOM     62  H   UNL     1       0.604   6.998  22.967  0.00  0.00    +0.210 HD
ENDBRANCH  52  61
BRANCH  51  63
ATOM     63  C   UNL     1       4.465   7.108  21.468  0.00  0.00    +0.190 C 
BRANCH  63  64
ATOM     64  O   UNL     1       3.655   7.089  20.301  0.00  0.00    -0.392 OA
ATOM     65  H   UNL     1       3.870   7.865  19.754  0.00  0.00    +0.210 HD
ENDBRANCH  63  64
ENDBRANCH  51  63
ENDBRANCH  47  49
ENDBRANCH   1  47
TORSDOF 19
ENDMDL
MODEL 3
REMARK VINA RESULT:      -6.4      2.097     10.841
REMARK  Name = 
REMARK  23 active torsions:
REMARK  status: ('A' for Active; 'I' for Inactive)
REMARK    1  A    between atoms: C_1  and  C_2
REMARK    2  A    between atoms: N_4  and  C_5
REMARK    3  A    between atoms: C_7  and  O_9
REMARK    4  A    between atoms: C_10  and  O_12
REMARK    5  A    between atoms: C_13  and  C_15
REMARK    6  A    between atoms: C_15  and  O_16
REMARK    7  A    between atoms: C_18  and  O_20
REMARK    8  A    between atoms: O_20  and  C_21
REMARK    9  A    between atoms: C_23  and  O_25
REMARK   10  A    between atoms: C_26  and  N_28
REMARK   11  A    between atoms: C_29  and  C_30
REMARK   12  A    between atoms: C_32  and  O_34
REMARK   13  A    between atoms: O_34  and  C_35
REMARK   14  A    between atoms: C_37  and  O_39
REMARK   15  A    between atoms: C_40  and  N_42
REMARK   16  A    between atoms: C_43  and  C_44
REMARK   17  A    between atoms: C_46  and  O_48
REMARK   18  A    between atoms: O_48  and  C_49
REMARK   19  A    between atoms: C_53  and  C_54
REMARK   20  A    between atoms: C_62  and  C_64
REMARK   21  A    between atoms: C_64  and  O_65
REMARK   22  A    between atoms: C_67  and  C_69
REMARK   23  A    between atoms: C_69  and  O_70
REMARK                            x       y       z     vdW  Elec       q    Type
REMARK                         _______ _______ _______ _____ _____    ______ ____
ROOT
ATOM      1  C   UNL     1       6.640   1.457  26.153  0.00  0.00    +0.183 C 
ATOM      2  C   UNL     1       6.270   1.284  27.652  0.00  0.00    +0.178 C 
ATOM      3  O   UNL     1       6.602  -0.025  28.127  0.00  0.00    -0.341 OA
ATOM      4  C   UNL     1       5.973  -1.109  27.431  0.00  0.00    +0.274 C 
ATOM      5  C   UNL     1       6.123  -1.026  25.893  0.00  0.00    +0.160 C 
ATOM      6  C   UNL     1       5.793   0.394  25.406  0.00  0.00    +0.171 C 
ENDROOT
BRANCH   5   7
ATOM      7  N   UNL     1       7.453  -1.491  25.488  0.00  0.00    -0.305 N 
ATOM      8  H   UNL     1       8.238  -1.119  26.013  0.00  0.00    +0.149 HD
ATOM      9  C   UNL     1       7.611  -2.664  24.792  0.00  0.00    +0.210 C 
ATOM     10  O   UNL     1       6.688  -3.292  24.305  0.00  0.00    -0.276 OA
ATOM     11  C   UNL     1       9.055  -3.098  24.630  0.00  0.00    +0.109 C 
ENDBRANCH   5   7
BRANCH   6  12
ATOM     12  O   UNL     1       4.391   0.693  25.575  0.00  0.00    -0.387 OA
ATOM     13  H   UNL     1       4.200   0.930  26.510  0.00  0.00    +0.210 HD
ENDBRANCH   6  12
BRANCH   4  14
ATOM     14  O   UNL     1       4.611  -1.285  27.862  0.00  0.00    -0.341 OA
BRANCH  14  15
ATOM     15  C   UNL     1       3.684  -1.538  26.773  0.00  0.00    +0.183 C 
ATOM     16  C   UNL     1       2.213  -1.360  27.242  0.00  0.00    +0.179 C 
ATOM     17  O   UNL     1       1.781  -2.443  28.090  0.00  0.00    -0.332 OA
ATOM     18  C   UNL     1       1.890  -3.748  27.495  0.00  0.00    +0.331 C 
ATOM     19  C   UNL     1       3.361  -4.038  27.166  0.00  0.00    +0.173 C 
ATOM     20  C   UNL     1       3.845  -2.958  26.171  0.00  0.00    +0.172 C 
BRANCH  19  21
ATOM     21  N   UNL     1       4.116  -4.115  28.434  0.00  0.00    -0.304 N 
ATOM     22  H   UNL     1       4.594  -3.269  28.732  0.00  0.00    +0.149 HD
ATOM     23  C   UNL     1       4.407  -5.282  29.089  0.00  0.00    +0.210 C 
ATOM     24  O   UNL     1       4.095  -6.387  28.659  0.00  0.00    -0.276 OA
ATOM     25  C   UNL     1       5.149  -5.099  30.391  0.00  0.00    +0.109 C 
ENDBRANCH  19  21
BRANCH  20  26
ATOM     26  O   UNL     1       3.170  -3.023  24.903  0.00  0.00    -0.387 OA
ATOM     27  H   UNL     1       3.821  -3.107  24.183  0.00  0.00    +0.210 HD
ENDBRANCH  20  26
BRANCH  18  28
ATOM     28  O   UNL     1       1.070  -3.923  26.330  0.00  0.00    -0.461 OA
BRANCH  28  29
ATOM     29  C   UNL     1       0.864  -5.221  25.957  0.00  0.00    +0.127 A 
ATOM     30  C   UNL     1       0.741  -5.647  24.638  0.00  0.00    +0.092 A 
ATOM     31  C   UNL     1       0.679  -7.002  24.362  0.00  0.00    +0.143 A 
ATOM     32  C   UNL     1       0.681  -7.976  25.360  0.00  0.00    +0.021 A 
ATOM     33  C   UNL     1       0.647  -9.384  24.941  0.00  0.00    -0.033 A 
ATOM     34  C   UNL     1       0.705  -9.653  23.626  0.00  0.00    +0.096 A 
ATOM     35  C   UNL     1       0.764  -8.626  22.582  0.00  0.00    +0.337 A 
ATOM     36  O   UNL     1       0.872  -8.936  21.399  0.00  0.00    -0.245 OA
ATOM     37  C   UNL     1       0.560 -10.513  25.920  0.00  0.00    +0.045 C 
ATOM     38  C   UNL     1       0.738  -7.530  26.687  0.00  0.00    +0.015 A 
ATOM     39  O   UNL     1       0.670  -7.323  22.994  0.00  0.00    -0.422 OA
ATOM     40  C   UNL     1       0.830  -6.162  26.985  0.00  0.00    +0.046 A 
ENDBRANCH  28  29
ENDBRANCH  18  28
BRANCH  16  41
ATOM     41  C   UNL     1       1.924  -0.066  28.022  0.00  0.00    +0.190 C 
BRANCH  41  42
ATOM     42  O   UNL     1       2.881   0.959  27.792  0.00  0.00    -0.392 OA
ATOM     43  H   UNL     1       3.739   0.508  27.663  0.00  0.00    +0.210 HD
ENDBRANCH  41  42
ENDBRANCH  16  41
ENDBRANCH  14  15
ENDBRANCH   4  14
BRANCH   2  44
ATOM     44  C   UNL     1       6.936   2.268  28.612  0.00  0.00    +0.190 C 
BRANCH  44  45
ATOM     45  O   UNL     1       7.489   3.376  27.903  0.00  0.00    -0.392 OA
ATOM     46  H   UNL     1       6.733   3.898  27.585  0.00  0.00    +0.210 HD
ENDBRANCH  44  45
ENDBRANCH   2  44
BRANCH   1  47
ATOM     47  O   UNL     1       8.037   1.276  25.787  0.00  0.00    -0.341 OA
BRANCH  47  49
ATOM     48  C   UNL     1       8.134   2.669  23.730  0.00  0.00    +0.160 C 
ATOM     49  C   UNL     1       8.330   1.257  24.379  0.00  0.00    +0.274 C 
ATOM     50  O   UNL     1       9.629   0.741  24.107  0.00  0.00    -0.341 OA
ATOM     51  C   UNL     1       9.980   0.593  22.712  0.00  0.00    +0.178 C 
ATOM     52  C   UNL     1       9.722   1.870  21.897  0.00  0.00    +0.176 C 
ATOM     53  C   UNL     1       8.345   2.498  22.196  0.00  0.00    +0.171 C 
BRANCH  48  56
ATOM     54  C   UNL     1       9.592   5.800  25.362  0.00  0.00    +0.109 C 
ATOM     55  C   UNL     1       8.548   4.789  24.975  0.00  0.00    +0.210 C 
ATOM     56  N   UNL     1       9.047   3.695  24.282  0.00  0.00    -0.305 N 
ATOM     57  H   UNL     1      10.015   3.442  24.430  0.00  0.00    +0.149 HD
ATOM     58  O   UNL     1       7.364   4.939  25.240  0.00  0.00    -0.276 OA
ENDBRANCH  48  56
BRANCH  53  59
ATOM     59  O   UNL     1       7.298   1.752  21.557  0.00  0.00    -0.387 OA
ATOM     60  H   UNL     1       6.998   0.994  22.081  0.00  0.00    +0.210 HD
ENDBRANCH  53  59
BRANCH  52  61
ATOM     61  O   UNL     1      10.777   2.796  22.199  0.00  0.00    -0.387 OA
ATOM     62  H   UNL     1      10.500   3.667  21.858  0.00  0.00    +0.210 HD
ENDBRANCH  52  61
BRANCH  51  63
ATOM     63  C   UNL     1       9.384  -0.643  22.014  0.00  0.00    +0.190 C 
BRANCH  63  64
ATOM     64  O   UNL     1      10.388  -1.568  21.622  0.00  0.00    -0.392 OA
ATOM     65  H   UNL     1      10.299  -2.377  22.158  0.00  0.00    +0.210 HD
ENDBRANCH  63  64
ENDBRANCH  51  63
ENDBRANCH  47  49
ENDBRANCH   1  47
TORSDOF 19
ENDMDL
MODEL 4
REMARK VINA RESULT:      -6.2      2.207     11.236
REMARK  Name = 
REMARK  23 active torsions:
REMARK  status: ('A' for Active; 'I' for Inactive)
REMARK    1  A    between atoms: C_1  and  C_2
REMARK    2  A    between atoms: N_4  and  C_5
REMARK    3  A    between atoms: C_7  and  O_9
REMARK    4  A    between atoms: C_10  and  O_12
REMARK    5  A    between atoms: C_13  and  C_15
REMARK    6  A    between atoms: C_15  and  O_16
REMARK    7  A    between atoms: C_18  and  O_20
REMARK    8  A    between atoms: O_20  and  C_21
REMARK    9  A    between atoms: C_23  and  O_25
REMARK   10  A    between atoms: C_26  and  N_28
REMARK   11  A    between atoms: C_29  and  C_30
REMARK   12  A    between atoms: C_32  and  O_34
REMARK   13  A    between atoms: O_34  and  C_35
REMARK   14  A    between atoms: C_37  and  O_39
REMARK   15  A    between atoms: C_40  and  N_42
REMARK   16  A    between atoms: C_43  and  C_44
REMARK   17  A    between atoms: C_46  and  O_48
REMARK   18  A    between atoms: O_48  and  C_49
REMARK   19  A    between atoms: C_53  and  C_54
REMARK   20  A    between atoms: C_62  and  C_64
REMARK   21  A    between atoms: C_64  and  O_65
REMARK   22  A    between atoms: C_67  and  C_69
REMARK   23  A    between atoms: C_69  and  O_70
REMARK                            x       y       z     vdW  Elec       q    Type
REMARK                         _______ _______ _______ _____ _____    ______ ____
ROOT
ATOM      1  C   UNL     1       6.482   2.400  25.850  0.00  0.00    +0.183 C 
ATOM      2  C   UNL     1       5.917   1.673  27.102  0.00  0.00    +0.178 C 
ATOM      3  O   UNL     1       6.511   0.382  27.272  0.00  0.00    -0.341 OA
ATOM      4  C   UNL     1       6.342  -0.523  26.172  0.00  0.00    +0.274 C 
ATOM      5  C   UNL     1       6.731   0.088  24.804  0.00  0.00    +0.160 C 
ATOM      6  C   UNL     1       6.110   1.485  24.653  0.00  0.00    +0.171 C 
ENDROOT
BRANCH   5   7
ATOM      7  N   UNL     1       8.188   0.072  24.639  0.00  0.00    -0.305 N 
ATOM      8  H   UNL     1       8.714   0.709  25.229  0.00  0.00    +0.149 HD
ATOM      9  C   UNL     1       8.827  -1.014  24.094  0.00  0.00    +0.210 C 
ATOM     10  O   UNL     1       8.248  -1.936  23.549  0.00  0.00    -0.276 OA
ATOM     11  C   UNL     1      10.339  -0.951  24.181  0.00  0.00    +0.109 C 
ENDBRANCH   5   7
BRANCH   6  12
ATOM     12  O   UNL     1       4.674   1.411  24.537  0.00  0.00    -0.387 OA
ATOM     13  H   UNL     1       4.263   1.267  25.419  0.00  0.00    +0.210 HD
ENDBRANCH   6  12
BRANCH   4  14
ATOM     14  O   UNL     1       5.029  -1.112  26.180  0.00  0.00    -0.341 OA
BRANCH  14  15
ATOM     15  C   UNL     1       4.996  -2.450  26.743  0.00  0.00    +0.183 C 
ATOM     16  C   UNL     1       4.431  -3.471  25.716  0.00  0.00    +0.179 C 
ATOM     17  O   UNL     1       3.008  -3.326  25.536  0.00  0.00    -0.332 OA
ATOM     18  C   UNL     1       2.237  -3.455  26.743  0.00  0.00    +0.331 C 
ATOM     19  C   UNL     1       2.646  -2.355  27.731  0.00  0.00    +0.173 C 
ATOM     20  C   UNL     1       4.150  -2.532  28.040  0.00  0.00    +0.172 C 
BRANCH  19  21
ATOM     21  N   UNL     1       2.267  -1.047  27.155  0.00  0.00    -0.304 N 
ATOM     22  H   UNL     1       2.261  -0.981  26.141  0.00  0.00    +0.149 HD
ATOM     23  C   UNL     1       2.165   0.113  27.876  0.00  0.00    +0.210 C 
ATOM     24  O   UNL     1       2.417   0.181  29.074  0.00  0.00    -0.276 OA
ATOM     25  C   UNL     1       1.716   1.309  27.072  0.00  0.00    +0.109 C 
ENDBRANCH  19  21
BRANCH  20  26
ATOM     26  O   UNL     1       4.439  -3.761  28.728  0.00  0.00    -0.387 OA
ATOM     27  H   UNL     1       4.628  -4.467  28.083  0.00  0.00    +0.210 HD
ENDBRANCH  20  26
BRANCH  18  28
ATOM     28  O   UNL     1       2.338  -4.748  27.359  0.00  0.00    -0.461 OA
BRANCH  28  29
ATOM     29  C   UNL     1       1.824  -5.780  26.627  0.00  0.00    +0.127 A 
ATOM     30  C   UNL     1       1.438  -5.678  25.294  0.00  0.00    +0.092 A 
ATOM     31  C   UNL     1       1.064  -6.818  24.602  0.00  0.00    +0.143 A 
ATOM     32  C   UNL     1       1.004  -8.076  25.200  0.00  0.00    +0.021 A 
ATOM     33  C   UNL     1       0.628  -9.217  24.354  0.00  0.00    -0.033 A 
ATOM     34  C   UNL     1       0.450  -8.998  23.041  0.00  0.00    +0.096 A 
ATOM     35  C   UNL     1       0.573  -7.682  22.406  0.00  0.00    +0.337 A 
ATOM     36  O   UNL     1       0.453  -7.556  21.191  0.00  0.00    -0.245 OA
ATOM     37  C   UNL     1       0.447 -10.599  24.900  0.00  0.00    +0.045 C 
ATOM     38  C   UNL     1       1.332  -8.154  26.560  0.00  0.00    +0.015 A 
ATOM     39  O   UNL     1       0.803  -6.617  23.236  0.00  0.00    -0.422 OA
ATOM     40  C   UNL     1       1.740  -7.014  27.270  0.00  0.00    +0.046 A 
ENDBRANCH  28  29
ENDBRANCH  18  28
BRANCH  16  41
ATOM     41  C   UNL     1       5.049  -3.399  24.309  0.00  0.00    +0.190 C 
BRANCH  41  42
ATOM     42  O   UNL     1       6.269  -4.118  24.189  0.00  0.00    -0.392 OA
ATOM     43  H   UNL     1       6.848  -3.579  23.613  0.00  0.00    +0.210 HD
ENDBRANCH  41  42
ENDBRANCH  16  41
ENDBRANCH  14  15
ENDBRANCH   4  14
BRANCH   2  44
ATOM     44  C   UNL     1       6.102   2.406  28.428  0.00  0.00    +0.190 C 
BRANCH  44  45
ATOM     45  O   UNL     1       7.483   2.476  28.783  0.00  0.00    -0.392 OA
ATOM     46  H   UNL     1       7.927   1.773  28.279  0.00  0.00    +0.210 HD
ENDBRANCH  44  45
ENDBRANCH   2  44
BRANCH   1  47
ATOM     47  O   UNL     1       7.916   2.647  25.814  0.00  0.00    -0.341 OA
BRANCH  47  49
ATOM     48  C   UNL     1       9.273   3.638  23.981  0.00  0.00    +0.160 C 
ATOM     49  C   UNL     1       8.335   3.884  25.211  0.00  0.00    +0.274 C 
ATOM     50  O   UNL     1       7.229   4.710  24.859  0.00  0.00    -0.341 OA
ATOM     51  C   UNL     1       7.550   6.018  24.331  0.00  0.00    +0.178 C 
ATOM     52  C   UNL     1       8.573   5.961  23.185  0.00  0.00    +0.176 C 
ATOM     53  C   UNL     1       9.766   5.035  23.499  0.00  0.00    +0.171 C 
BRANCH  48  56
ATOM     54  C   UNL     1       8.544   1.425  20.954  0.00  0.00    +0.109 C 
ATOM     55  C   UNL     1       9.326   1.999  22.103  0.00  0.00    +0.210 C 
ATOM     56  N   UNL     1       8.612   2.899  22.884  0.00  0.00    -0.305 N 
ATOM     57  H   UNL     1       7.605   2.808  22.907  0.00  0.00    +0.149 HD
ATOM     58  O   UNL     1      10.494   1.704  22.310  0.00  0.00    -0.276 OA
ENDBRANCH  48  56
BRANCH  53  59
ATOM     59  O   UNL     1      10.671   5.668  24.417  0.00  0.00    -0.387 OA
ATOM     60  H   UNL     1      11.040   6.496  24.074  0.00  0.00    +0.210 HD
ENDBRANCH  53  59
BRANCH  52  61
ATOM     61  O   UNL     1       7.880   5.514  22.010  0.00  0.00    -0.387 OA
ATOM     62  H   UNL     1       7.987   4.545  21.965  0.00  0.00    +0.210 HD
ENDBRANCH  52  61
BRANCH  51  63
ATOM     63  C   UNL     1       7.950   7.068  25.383  0.00  0.00    +0.190 C 
BRANCH  63  64
ATOM     64  O   UNL     1       8.721   6.502  26.434  0.00  0.00    -0.392 OA
ATOM     65  H   UNL     1       8.474   5.566  26.538  0.00  0.00    +0.210 HD
ENDBRANCH  63  64
ENDBRANCH  51  63
ENDBRANCH  47  49
ENDBRANCH   1  47
TORSDOF 19
ENDMDL
MODEL 5
REMARK VINA RESULT:      -6.1      3.040     10.376
REMARK  Name = 
REMARK  23 active torsions:
REMARK  status: ('A' for Active; 'I' for Inactive)
REMARK    1  A    between atoms: C_1  and  C_2
REMARK    2  A    between atoms: N_4  and  C_5
REMARK    3  A    between atoms: C_7  and  O_9
REMARK    4  A    between atoms: C_10  and  O_12
REMARK    5  A    between atoms: C_13  and  C_15
REMARK    6  A    between atoms: C_15  and  O_16
REMARK    7  A    between atoms: C_18  and  O_20
REMARK    8  A    between atoms: O_20  and  C_21
REMARK    9  A    between atoms: C_23  and  O_25
REMARK   10  A    between atoms: C_26  and  N_28
REMARK   11  A    between atoms: C_29  and  C_30
REMARK   12  A    between atoms: C_32  and  O_34
REMARK   13  A    between atoms: O_34  and  C_35
REMARK   14  A    between atoms: C_37  and  O_39
REMARK   15  A    between atoms: C_40  and  N_42
REMARK   16  A    between atoms: C_43  and  C_44
REMARK   17  A    between atoms: C_46  and  O_48
REMARK   18  A    between atoms: O_48  and  C_49
REMARK   19  A    between atoms: C_53  and  C_54
REMARK   20  A    between atoms: C_62  and  C_64
REMARK   21  A    between atoms: C_64  and  O_65
REMARK   22  A    between atoms: C_67  and  C_69
REMARK   23  A    between atoms: C_69  and  O_70
REMARK                            x       y       z     vdW  Elec       q    Type
REMARK                         _______ _______ _______ _____ _____    ______ ____
ROOT
ATOM      1  C   UNL     1       7.799   2.353  24.889  0.00  0.00    +0.183 C 
ATOM      2  C   UNL     1       7.411   1.577  23.599  0.00  0.00    +0.178 C 
ATOM      3  O   UNL     1       6.131   0.952  23.728  0.00  0.00    -0.341 OA
ATOM      4  C   UNL     1       6.008   0.018  24.810  0.00  0.00    +0.274 C 
ATOM      5  C   UNL     1       6.485   0.583  26.170  0.00  0.00    +0.160 C 
ATOM      6  C   UNL     1       7.846   1.277  26.005  0.00  0.00    +0.171 C 
ENDROOT
BRANCH   5   7
ATOM      7  N   UNL     1       5.452   1.446  26.750  0.00  0.00    -0.305 N 
ATOM      8  H   UNL     1       4.758   1.811  26.107  0.00  0.00    +0.149 HD
ATOM      9  C   UNL     1       5.158   1.395  28.091  0.00  0.00    +0.210 C 
ATOM     10  O   UNL     1       5.831   0.794  28.909  0.00  0.00    -0.276 OA
ATOM     11  C   UNL     1       3.936   2.200  28.488  0.00  0.00    +0.109 C 
ENDBRANCH   5   7
BRANCH   6  12
ATOM     12  O   UNL     1       8.888   0.324  25.707  0.00  0.00    -0.387 OA
ATOM     13  H   UNL     1       9.487   0.675  25.011  0.00  0.00    +0.210 HD
ENDBRANCH   6  12
BRANCH   4  14
ATOM     14  O   UNL     1       6.606  -1.248  24.476  0.00  0.00    -0.341 OA
BRANCH  14  15
ATOM     15  C   UNL     1       5.644  -2.256  24.072  0.00  0.00    +0.183 C 
ATOM     16  C   UNL     1       5.412  -3.291  25.208  0.00  0.00    +0.179 C 
ATOM     17  O   UNL     1       6.536  -4.180  25.367  0.00  0.00    -0.332 OA
ATOM     18  C   UNL     1       6.891  -4.913  24.182  0.00  0.00    +0.331 C 
ATOM     19  C   UNL     1       7.292  -3.929  23.074  0.00  0.00    +0.173 C 
ATOM     20  C   UNL     1       6.077  -3.016  22.790  0.00  0.00    +0.172 C 
BRANCH  19  21
ATOM     21  N   UNL     1       8.525  -3.231  23.494  0.00  0.00    -0.304 N 
ATOM     22  H   UNL     1       8.810  -3.353  24.462  0.00  0.00    +0.149 HD
ATOM     23  C   UNL     1       9.155  -2.265  22.756  0.00  0.00    +0.210 C 
ATOM     24  O   UNL     1       8.728  -1.860  21.680  0.00  0.00    -0.276 OA
ATOM     25  C   UNL     1      10.425  -1.735  23.376  0.00  0.00    +0.109 C 
ENDBRANCH  19  21
BRANCH  20  26
ATOM     26  O   UNL     1       4.953  -3.731  22.250  0.00  0.00    -0.387 OA
ATOM     27  H   UNL     1       4.244  -3.107  22.011  0.00  0.00    +0.210 HD
ENDBRANCH  20  26
BRANCH  18  28
ATOM     28  O   UNL     1       5.861  -5.799  23.719  0.00  0.00    -0.461 OA
BRANCH  28  29
ATOM     29  C   UNL     1       4.986  -6.220  24.679  0.00  0.00    +0.127 A 
ATOM     30  C   UNL     1       5.340  -6.493  25.997  0.00  0.00    +0.092 A 
ATOM     31  C   UNL     1       4.353  -6.774  26.925  0.00  0.00    +0.143 A 
ATOM     32  C   UNL     1       3.001  -6.850  26.589  0.00  0.00    +0.021 A 
ATOM     33  C   UNL     1       2.042  -7.121  27.668  0.00  0.00    -0.033 A 
ATOM     34  C   UNL     1       2.510  -7.192  28.926  0.00  0.00    +0.096 A 
ATOM     35  C   UNL     1       3.925  -7.051  29.282  0.00  0.00    +0.337 A 
ATOM     36  O   UNL     1       4.284  -7.069  30.456  0.00  0.00    -0.245 OA
ATOM     37  C   UNL     1       0.579  -7.310  27.417  0.00  0.00    +0.045 C 
ATOM     38  C   UNL     1       2.665  -6.639  25.245  0.00  0.00    +0.015 A 
ATOM     39  O   UNL     1       4.811  -6.922  28.245  0.00  0.00    -0.422 OA
ATOM     40  C   UNL     1       3.649  -6.325  24.296  0.00  0.00    +0.046 A 
ENDBRANCH  28  29
ENDBRANCH  18  28
BRANCH  16  41
ATOM     41  C   UNL     1       5.142  -2.691  26.599  0.00  0.00    +0.190 C 
BRANCH  41  42
ATOM     42  O   UNL     1       3.845  -2.128  26.730  0.00  0.00    -0.392 OA
ATOM     43  H   UNL     1       3.956  -1.302  27.243  0.00  0.00    +0.210 HD
ENDBRANCH  41  42
ENDBRANCH  16  41
ENDBRANCH  14  15
ENDBRANCH   4  14
BRANCH   2  44
ATOM     44  C   UNL     1       7.353   2.411  22.322  0.00  0.00    +0.190 C 
BRANCH  44  45
ATOM     45  O   UNL     1       8.644   2.918  21.985  0.00  0.00    -0.392 OA
ATOM     46  H   UNL     1       9.233   2.145  21.936  0.00  0.00    +0.210 HD
ENDBRANCH  44  45
ENDBRANCH   2  44
BRANCH   1  47
ATOM     47  O   UNL     1       6.908   3.423  25.315  0.00  0.00    -0.341 OA
BRANCH  47  49
ATOM     48  C   UNL     1       4.743   4.117  24.309  0.00  0.00    +0.160 C 
ATOM     49  C   UNL     1       6.306   4.205  24.269  0.00  0.00    +0.274 C 
ATOM     50  O   UNL     1       6.747   5.560  24.292  0.00  0.00    -0.341 OA
ATOM     51  C   UNL     1       6.270   6.405  23.220  0.00  0.00    +0.178 C 
ATOM     52  C   UNL     1       4.745   6.333  23.040  0.00  0.00    +0.176 C 
ATOM     53  C   UNL     1       4.213   4.885  23.061  0.00  0.00    +0.171 C 
BRANCH  48  56
ATOM     54  C   UNL     1       2.353   5.199  27.085  0.00  0.00    +0.109 C 
ATOM     55  C   UNL     1       2.814   4.484  25.845  0.00  0.00    +0.210 C 
ATOM     56  N   UNL     1       4.161   4.659  25.556  0.00  0.00    -0.305 N 
ATOM     57  H   UNL     1       4.785   4.869  26.323  0.00  0.00    +0.149 HD
ATOM     58  O   UNL     1       2.054   3.823  25.152  0.00  0.00    -0.276 OA
ENDBRANCH  48  56
BRANCH  53  59
ATOM     59  O   UNL     1       4.497   4.222  21.820  0.00  0.00    -0.387 OA
ATOM     60  H   UNL     1       4.964   4.788  21.187  0.00  0.00    +0.210 HD
ENDBRANCH  53  59
BRANCH  52  61
ATOM     61  O   UNL     1       4.148   7.107  24.091  0.00  0.00    -0.387 OA
ATOM     62  H   UNL     1       3.455   7.658  23.683  0.00  0.00    +0.210 HD
ENDBRANCH  52  61
BRANCH  51  63
ATOM     63  C   UNL     1       6.998   6.231  21.875  0.00  0.00    +0.190 C 
BRANCH  63  64
ATOM     64  O   UNL     1       8.373   5.923  22.051  0.00  0.00    -0.392 OA
ATOM     65  H   UNL     1       8.763   5.711  21.184  0.00  0.00    +0.210 HD
ENDBRANCH  63  64
ENDBRANCH  51  63
ENDBRANCH  47  49
ENDBRANCH   1  47
TORSDOF 19
ENDMDL
MODEL 6
REMARK VINA RESULT:      -5.9      2.233     11.063
REMARK  Name = 
REMARK  23 active torsions:
REMARK  status: ('A' for Active; 'I' for Inactive)
REMARK    1  A    between atoms: C_1  and  C_2
REMARK    2  A    between atoms: N_4  and  C_5
REMARK    3  A    between atoms: C_7  and  O_9
REMARK    4  A    between atoms: C_10  and  O_12
REMARK    5  A    between atoms: C_13  and  C_15
REMARK    6  A    between atoms: C_15  and  O_16
REMARK    7  A    between atoms: C_18  and  O_20
REMARK    8  A    between atoms: O_20  and  C_21
REMARK    9  A    between atoms: C_23  and  O_25
REMARK   10  A    between atoms: C_26  and  N_28
REMARK   11  A    between atoms: C_29  and  C_30
REMARK   12  A    between atoms: C_32  and  O_34
REMARK   13  A    between atoms: O_34  and  C_35
REMARK   14  A    between atoms: C_37  and  O_39
REMARK   15  A    between atoms: C_40  and  N_42
REMARK   16  A    between atoms: C_43  and  C_44
REMARK   17  A    between atoms: C_46  and  O_48
REMARK   18  A    between atoms: O_48  and  C_49
REMARK   19  A    between atoms: C_53  and  C_54
REMARK   20  A    between atoms: C_62  and  C_64
REMARK   21  A    between atoms: C_64  and  O_65
REMARK   22  A    between atoms: C_67  and  C_69
REMARK   23  A    between atoms: C_69  and  O_70
REMARK                            x       y       z     vdW  Elec       q    Type
REMARK                         _______ _______ _______ _____ _____    ______ ____
ROOT
ATOM      1  C   UNL     1       6.000   1.883  26.809  0.00  0.00    +0.183 C 
ATOM      2  C   UNL     1       6.572   1.066  28.000  0.00  0.00    +0.178 C 
ATOM      3  O   UNL     1       7.278  -0.095  27.550  0.00  0.00    -0.341 OA
ATOM      4  C   UNL     1       6.509  -1.015  26.763  0.00  0.00    +0.274 C 
ATOM      5  C   UNL     1       5.748  -0.344  25.595  0.00  0.00    +0.160 C 
ATOM      6  C   UNL     1       5.022   0.917  26.092  0.00  0.00    +0.171 C 
ENDROOT
BRANCH   5   7
ATOM      7  N   UNL     1       6.660  -0.093  24.474  0.00  0.00    -0.305 N 
ATOM      8  H   UNL     1       7.383   0.602  24.630  0.00  0.00    +0.149 HD
ATOM      9  C   UNL     1       6.832  -1.024  23.480  0.00  0.00    +0.210 C 
ATOM     10  O   UNL     1       6.131  -2.011  23.348  0.00  0.00    -0.276 OA
ATOM     11  C   UNL     1       7.953  -0.697  22.513  0.00  0.00    +0.109 C 
ENDBRANCH   5   7
BRANCH   6  12
ATOM     12  O   UNL     1       3.940   0.581  26.985  0.00  0.00    -0.387 OA
ATOM     13  H   UNL     1       3.460   1.392  27.264  0.00  0.00    +0.210 HD
ENDBRANCH   6  12
BRANCH   4  14
ATOM     14  O   UNL     1       5.668  -1.835  27.595  0.00  0.00    -0.341 OA
BRANCH  14  15
ATOM     15  C   UNL     1       4.291  -1.905  27.140  0.00  0.00    +0.183 C 
ATOM     16  C   UNL     1       3.355  -2.407  28.274  0.00  0.00    +0.179 C 
ATOM     17  O   UNL     1       3.523  -3.816  28.529  0.00  0.00    -0.332 OA
ATOM     18  C   UNL     1       3.307  -4.661  27.386  0.00  0.00    +0.331 C 
ATOM     19  C   UNL     1       4.327  -4.311  26.293  0.00  0.00    +0.173 C 
ATOM     20  C   UNL     1       4.117  -2.830  25.907  0.00  0.00    +0.172 C 
BRANCH  19  21
ATOM     21  N   UNL     1       5.677  -4.652  26.790  0.00  0.00    -0.304 N 
ATOM     22  H   UNL     1       5.873  -4.432  27.762  0.00  0.00    +0.149 HD
ATOM     23  C   UNL     1       6.728  -5.007  25.986  0.00  0.00    +0.210 C 
ATOM     24  O   UNL     1       6.653  -5.041  24.764  0.00  0.00    -0.276 OA
ATOM     25  C   UNL     1       7.993  -5.354  26.732  0.00  0.00    +0.109 C 
ENDBRANCH  19  21
BRANCH  20  26
ATOM     26  O   UNL     1       2.836  -2.587  25.299  0.00  0.00    -0.387 OA
ATOM     27  H   UNL     1       2.501  -1.711  25.566  0.00  0.00    +0.210 HD
ENDBRANCH  20  26
BRANCH  18  28
ATOM     28  O   UNL     1       1.971  -4.600  26.865  0.00  0.00    -0.461 OA
BRANCH  28  29
ATOM     29  C   UNL     1       1.537  -5.740  26.250  0.00  0.00    +0.127 A 
ATOM     30  C   UNL     1       1.222  -5.829  24.898  0.00  0.00    +0.092 A 
ATOM     31  C   UNL     1       0.930  -7.064  24.345  0.00  0.00    +0.143 A 
ATOM     32  C   UNL     1       0.886  -8.236  25.098  0.00  0.00    +0.021 A 
ATOM     33  C   UNL     1       0.600  -9.492  24.392  0.00  0.00    -0.033 A 
ATOM     34  C   UNL     1       0.486  -9.453  23.054  0.00  0.00    +0.096 A 
ATOM     35  C   UNL     1       0.593  -8.226  22.259  0.00  0.00    +0.337 A 
ATOM     36  O   UNL     1       0.536  -8.263  21.033  0.00  0.00    -0.245 OA
ATOM     37  C   UNL     1       0.443 -10.799  25.106  0.00  0.00    +0.045 C 
ATOM     38  C   UNL     1       1.141  -8.122  26.472  0.00  0.00    +0.015 A 
ATOM     39  O   UNL     1       0.737  -7.053  22.953  0.00  0.00    -0.422 OA
ATOM     40  C   UNL     1       1.465  -6.883  27.044  0.00  0.00    +0.046 A 
ENDBRANCH  28  29
ENDBRANCH  18  28
BRANCH  16  41
ATOM     41  C   UNL     1       3.530  -1.703  29.631  0.00  0.00    +0.190 C 
BRANCH  41  42
ATOM     42  O   UNL     1       3.795  -0.312  29.516  0.00  0.00    -0.392 OA
ATOM     43  H   UNL     1       4.137  -0.173  28.610  0.00  0.00    +0.210 HD
ENDBRANCH  41  42
ENDBRANCH  16  41
ENDBRANCH  14  15
ENDBRANCH   4  14
BRANCH   2  44
ATOM     44  C   UNL     1       7.533   1.821  28.916  0.00  0.00    +0.190 C 
BRANCH  44  45
ATOM     45  O   UNL     1       7.561   3.210  28.591  0.00  0.00    -0.392 OA
ATOM     46  H   UNL     1       8.313   3.587  29.078  0.00  0.00    +0.210 HD
ENDBRANCH  44  45
ENDBRANCH   2  44
BRANCH   1  47
ATOM     47  O   UNL     1       6.953   2.389  25.831  0.00  0.00    -0.341 OA
BRANCH  47  49
ATOM     48  C   UNL     1       7.361   4.601  24.771  0.00  0.00    +0.160 C 
ATOM     49  C   UNL     1       6.443   3.336  24.876  0.00  0.00    +0.274 C 
ATOM     50  O   UNL     1       6.229   2.747  23.597  0.00  0.00    -0.341 OA
ATOM     51  C   UNL     1       5.628   3.597  22.593  0.00  0.00    +0.178 C 
ATOM     52  C   UNL     1       6.344   4.950  22.455  0.00  0.00    +0.176 C 
ATOM     53  C   UNL     1       6.645   5.605  23.820  0.00  0.00    +0.171 C 
BRANCH  48  56
ATOM     54  C   UNL     1      11.032   4.811  23.737  0.00  0.00    +0.109 C 
ATOM     55  C   UNL     1       9.741   5.234  24.381  0.00  0.00    +0.210 C 
ATOM     56  N   UNL     1       8.725   4.291  24.290  0.00  0.00    -0.305 N 
ATOM     57  H   UNL     1       8.989   3.319  24.195  0.00  0.00    +0.149 HD
ATOM     58  O   UNL     1       9.606   6.323  24.920  0.00  0.00    -0.276 OA
ENDBRANCH  48  56
BRANCH  53  59
ATOM     59  O   UNL     1       5.453   6.173  24.382  0.00  0.00    -0.387 OA
ATOM     60  H   UNL     1       4.685   6.101  23.796  0.00  0.00    +0.210 HD
ENDBRANCH  53  59
BRANCH  52  61
ATOM     61  O   UNL     1       7.558   4.724  21.723  0.00  0.00    -0.387 OA
ATOM     62  H   UNL     1       8.238   4.461  22.370  0.00  0.00    +0.210 HD
ENDBRANCH  52  61
BRANCH  51  63
ATOM     63  C   UNL     1       4.105   3.783  22.720  0.00  0.00    +0.190 C 
BRANCH  63  64
ATOM     64  O   UNL     1       3.462   2.606  23.187  0.00  0.00    -0.392 OA
ATOM     65  H   UNL     1       2.902   2.248  22.476  0.00  0.00    +0.210 HD
ENDBRANCH  63  64
ENDBRANCH  51  63
ENDBRANCH  47  49
ENDBRANCH   1  47
TORSDOF 19
ENDMDL
MODEL 7
REMARK VINA RESULT:      -5.8      2.736      4.254
REMARK  Name = 
REMARK  23 active torsions:
REMARK  status: ('A' for Active; 'I' for Inactive)
REMARK    1  A    between atoms: C_1  and  C_2
REMARK    2  A    between atoms: N_4  and  C_5
REMARK    3  A    between atoms: C_7  and  O_9
REMARK    4  A    between atoms: C_10  and  O_12
REMARK    5  A    between atoms: C_13  and  C_15
REMARK    6  A    between atoms: C_15  and  O_16
REMARK    7  A    between atoms: C_18  and  O_20
REMARK    8  A    between atoms: O_20  and  C_21
REMARK    9  A    between atoms: C_23  and  O_25
REMARK   10  A    between atoms: C_26  and  N_28
REMARK   11  A    between atoms: C_29  and  C_30
REMARK   12  A    between atoms: C_32  and  O_34
REMARK   13  A    between atoms: O_34  and  C_35
REMARK   14  A    between atoms: C_37  and  O_39
REMARK   15  A    between atoms: C_40  and  N_42
REMARK   16  A    between atoms: C_43  and  C_44
REMARK   17  A    between atoms: C_46  and  O_48
REMARK   18  A    between atoms: O_48  and  C_49
REMARK   19  A    between atoms: C_53  and  C_54
REMARK   20  A    between atoms: C_62  and  C_64
REMARK   21  A    between atoms: C_64  and  O_65
REMARK   22  A    between atoms: C_67  and  C_69
REMARK   23  A    between atoms: C_69  and  O_70
REMARK                            x       y       z     vdW  Elec       q    Type
REMARK                         _______ _______ _______ _____ _____    ______ ____
ROOT
ATOM      1  C   UNL     1       4.369  -3.923  25.382  0.00  0.00    +0.183 C 
ATOM      2  C   UNL     1       5.386  -3.518  24.281  0.00  0.00    +0.178 C 
ATOM      3  O   UNL     1       6.691  -4.040  24.554  0.00  0.00    -0.341 OA
ATOM      4  C   UNL     1       7.267  -3.632  25.802  0.00  0.00    +0.274 C 
ATOM      5  C   UNL     1       6.326  -3.837  27.013  0.00  0.00    +0.160 C 
ATOM      6  C   UNL     1       4.923  -3.299  26.690  0.00  0.00    +0.171 C 
ENDROOT
BRANCH   5   7
ATOM      7  N   UNL     1       6.334  -5.244  27.429  0.00  0.00    -0.305 N 
ATOM      8  H   UNL     1       6.839  -5.886  26.827  0.00  0.00    +0.149 HD
ATOM      9  C   UNL     1       6.095  -5.598  28.734  0.00  0.00    +0.210 C 
ATOM     10  O   UNL     1       5.685  -4.825  29.580  0.00  0.00    -0.276 OA
ATOM     11  C   UNL     1       6.339  -7.064  29.032  0.00  0.00    +0.109 C 
ENDBRANCH   5   7
BRANCH   6  12
ATOM     12  O   UNL     1       4.928  -1.861  26.570  0.00  0.00    -0.387 OA
ATOM     13  H   UNL     1       5.675  -1.476  27.080  0.00  0.00    +0.210 HD
ENDBRANCH   6  12
BRANCH   4  14
ATOM     14  O   UNL     1       7.805  -2.299  25.717  0.00  0.00    -0.341 OA
BRANCH  14  15
ATOM     15  C   UNL     1       7.649  -1.692  24.408  0.00  0.00    +0.183 C 
ATOM     16  C   UNL     1       8.995  -1.095  23.908  0.00  0.00    +0.179 C 
ATOM     17  O   UNL     1       9.347   0.110  24.616  0.00  0.00    -0.332 OA
ATOM     18  C   UNL     1       8.360   1.154  24.547  0.00  0.00    +0.331 C 
ATOM     19  C   UNL     1       7.053   0.664  25.185  0.00  0.00    +0.173 C 
ATOM     20  C   UNL     1       6.575  -0.573  24.392  0.00  0.00    +0.172 C 
BRANCH  19  21
ATOM     21  N   UNL     1       7.294   0.438  26.626  0.00  0.00    -0.304 N 
ATOM     22  H   UNL     1       7.409  -0.527  26.923  0.00  0.00    +0.149 HD
ATOM     23  C   UNL     1       7.134   1.394  27.594  0.00  0.00    +0.210 C 
ATOM     24  O   UNL     1       6.737   2.529  27.355  0.00  0.00    -0.276 OA
ATOM     25  C   UNL     1       7.488   0.936  28.988  0.00  0.00    +0.109 C 
ENDBRANCH  19  21
BRANCH  20  26
ATOM     26  O   UNL     1       6.220  -0.264  23.034  0.00  0.00    -0.387 OA
ATOM     27  H   UNL     1       5.267  -0.414  22.895  0.00  0.00    +0.210 HD
ENDBRANCH  20  26
BRANCH  18  28
ATOM     28  O   UNL     1       8.120   1.637  23.217  0.00  0.00    -0.461 OA
BRANCH  28  29
ATOM     29  C   UNL     1       7.219   2.659  23.127  0.00  0.00    +0.127 A 
ATOM     30  C   UNL     1       6.034   2.597  22.398  0.00  0.00    +0.092 A 
ATOM     31  C   UNL     1       5.123   3.634  22.489  0.00  0.00    +0.143 A 
ATOM     32  C   UNL     1       5.358   4.781  23.246  0.00  0.00    +0.021 A 
ATOM     33  C   UNL     1       4.299   5.799  23.293  0.00  0.00    -0.033 A 
ATOM     34  C   UNL     1       3.135   5.528  22.679  0.00  0.00    +0.096 A 
ATOM     35  C   UNL     1       2.870   4.293  21.934  0.00  0.00    +0.337 A 
ATOM     36  O   UNL     1       1.766   4.079  21.442  0.00  0.00    -0.245 OA
ATOM     37  C   UNL     1       4.470   7.107  24.001  0.00  0.00    +0.045 C 
ATOM     38  C   UNL     1       6.583   4.861  23.921  0.00  0.00    +0.015 A 
ATOM     39  O   UNL     1       3.916   3.417  21.803  0.00  0.00    -0.422 OA
ATOM     40  C   UNL     1       7.508   3.807  23.864  0.00  0.00    +0.046 A 
ENDBRANCH  28  29
ENDBRANCH  18  28
BRANCH  16  41
ATOM     41  C   UNL     1      10.211  -2.030  24.024  0.00  0.00    +0.190 C 
BRANCH  41  42
ATOM     42  O   UNL     1       9.906  -3.392  23.759  0.00  0.00    -0.392 OA
ATOM     43  H   UNL     1      10.759  -3.831  23.569  0.00  0.00    +0.210 HD
ENDBRANCH  41  42
ENDBRANCH  16  41
ENDBRANCH  14  15
ENDBRANCH   4  14
BRANCH   2  44
ATOM     44  C   UNL     1       5.036  -3.966  22.864  0.00  0.00    +0.190 C 
BRANCH  44  45
ATOM     45  O   UNL     1       5.240  -5.370  22.709  0.00  0.00    -0.392 OA
ATOM     46  H   UNL     1       4.638  -5.802  23.338  0.00  0.00    +0.210 HD
ENDBRANCH  44  45
ENDBRANCH   2  44
BRANCH   1  47
ATOM     47  O   UNL     1       4.157  -5.346  25.602  0.00  0.00    -0.341 OA
BRANCH  47  49
ATOM     48  C   UNL     1       1.711  -5.755  25.785  0.00  0.00    +0.160 C 
ATOM     49  C   UNL     1       3.098  -5.700  26.510  0.00  0.00    +0.274 C 
ATOM     50  O   UNL     1       3.368  -6.917  27.200  0.00  0.00    -0.341 OA
ATOM     51  C   UNL     1       2.405  -7.308  28.206  0.00  0.00    +0.178 C 
ATOM     52  C   UNL     1       0.959  -7.289  27.683  0.00  0.00    +0.176 C 
ATOM     53  C   UNL     1       0.635  -6.011  26.882  0.00  0.00    +0.171 C 
BRANCH  48  56
ATOM     54  C   UNL     1       1.476  -7.580  22.437  0.00  0.00    +0.109 C 
ATOM     55  C   UNL     1       1.673  -6.429  23.385  0.00  0.00    +0.210 C 
ATOM     56  N   UNL     1       1.648  -6.787  24.726  0.00  0.00    -0.305 N 
ATOM     57  H   UNL     1       1.904  -7.735  24.967  0.00  0.00    +0.149 HD
ATOM     58  O   UNL     1       1.824  -5.280  22.994  0.00  0.00    -0.276 OA
ENDBRANCH  48  56
BRANCH  53  59
ATOM     59  O   UNL     1       0.443  -4.895  27.764  0.00  0.00    -0.387 OA
ATOM     60  H   UNL     1      -0.380  -4.950  28.272  0.00  0.00    +0.210 HD
ENDBRANCH  53  59
BRANCH  52  61
ATOM     61  O   UNL     1       0.779  -8.457  26.869  0.00  0.00    -0.387 OA
ATOM     62  H   UNL     1       0.374  -8.163  26.031  0.00  0.00    +0.210 HD
ENDBRANCH  52  61
BRANCH  51  63
ATOM     63  C   UNL     1       2.522  -6.565  29.549  0.00  0.00    +0.190 C 
BRANCH  63  64
ATOM     64  O   UNL     1       1.281  -6.512  30.238  0.00  0.00    -0.392 OA
ATOM     65  H   UNL     1       0.950  -7.419  30.363  0.00  0.00    +0.210 HD
ENDBRANCH  63  64
ENDBRANCH  51  63
ENDBRANCH  47  49
ENDBRANCH   1  47
TORSDOF 19
ENDMDL
MODEL 8
REMARK VINA RESULT:      -5.8      2.066     10.663
REMARK  Name = 
REMARK  23 active torsions:
REMARK  status: ('A' for Active; 'I' for Inactive)
REMARK    1  A    between atoms: C_1  and  C_2
REMARK    2  A    between atoms: N_4  and  C_5
REMARK    3  A    between atoms: C_7  and  O_9
REMARK    4  A    between atoms: C_10  and  O_12
REMARK    5  A    between atoms: C_13  and  C_15
REMARK    6  A    between atoms: C_15  and  O_16
REMARK    7  A    between atoms: C_18  and  O_20
REMARK    8  A    between atoms: O_20  and  C_21
REMARK    9  A    between atoms: C_23  and  O_25
REMARK   10  A    between atoms: C_26  and  N_28
REMARK   11  A    between atoms: C_29  and  C_30
REMARK   12  A    between atoms: C_32  and  O_34
REMARK   13  A    between atoms: O_34  and  C_35
REMARK   14  A    between atoms: C_37  and  O_39
REMARK   15  A    between atoms: C_40  and  N_42
REMARK   16  A    between atoms: C_43  and  C_44
REMARK   17  A    between atoms: C_46  and  O_48
REMARK   18  A    between atoms: O_48  and  C_49
REMARK   19  A    between atoms: C_53  and  C_54
REMARK   20  A    between atoms: C_62  and  C_64
REMARK   21  A    between atoms: C_64  and  O_65
REMARK   22  A    between atoms: C_67  and  C_69
REMARK   23  A    between atoms: C_69  and  O_70
REMARK                            x       y       z     vdW  Elec       q    Type
REMARK                         _______ _______ _______ _____ _____    ______ ____
ROOT
ATOM      1  C   UNL     1       6.359   1.289  26.412  0.00  0.00    +0.183 C 
ATOM      2  C   UNL     1       5.893   1.231  27.893  0.00  0.00    +0.178 C 
ATOM      3  O   UNL     1       6.126  -0.058  28.467  0.00  0.00    -0.341 OA
ATOM      4  C   UNL     1       5.484  -1.154  27.801  0.00  0.00    +0.274 C 
ATOM      5  C   UNL     1       5.730  -1.178  26.273  0.00  0.00    +0.160 C 
ATOM      6  C   UNL     1       5.504   0.222  25.680  0.00  0.00    +0.171 C 
ENDROOT
BRANCH   5   7
ATOM      7  N   UNL     1       7.056  -1.732  25.982  0.00  0.00    -0.305 N 
ATOM      8  H   UNL     1       7.850  -1.159  26.249  0.00  0.00    +0.149 HD
ATOM      9  C   UNL     1       7.236  -3.082  25.804  0.00  0.00    +0.210 C 
ATOM     10  O   UNL     1       6.320  -3.876  25.687  0.00  0.00    -0.276 OA
ATOM     11  C   UNL     1       8.688  -3.506  25.714  0.00  0.00    +0.109 C 
ENDBRANCH   5   7
BRANCH   6  12
ATOM     12  O   UNL     1       4.113   0.599  25.741  0.00  0.00    -0.387 OA
ATOM     13  H   UNL     1       3.826   0.997  24.889  0.00  0.00    +0.210 HD
ENDBRANCH   6  12
BRANCH   4  14
ATOM     14  O   UNL     1       4.091  -1.235  28.156  0.00  0.00    -0.341 OA
BRANCH  14  15
ATOM     15  C   UNL     1       3.216  -1.470  27.022  0.00  0.00    +0.183 C 
ATOM     16  C   UNL     1       1.725  -1.288  27.423  0.00  0.00    +0.179 C 
ATOM     17  O   UNL     1       1.247  -2.377  28.237  0.00  0.00    -0.332 OA
ATOM     18  C   UNL     1       1.376  -3.676  27.634  0.00  0.00    +0.331 C 
ATOM     19  C   UNL     1       2.859  -3.972  27.371  0.00  0.00    +0.173 C 
ATOM     20  C   UNL     1       3.395  -2.886  26.412  0.00  0.00    +0.172 C 
BRANCH  19  21
ATOM     21  N   UNL     1       3.553  -4.068  28.672  0.00  0.00    -0.304 N 
ATOM     22  H   UNL     1       3.500  -3.253  29.277  0.00  0.00    +0.149 HD
ATOM     23  C   UNL     1       4.438  -5.059  29.003  0.00  0.00    +0.210 C 
ATOM     24  O   UNL     1       4.768  -5.948  28.227  0.00  0.00    -0.276 OA
ATOM     25  C   UNL     1       4.981  -4.967  30.409  0.00  0.00    +0.109 C 
ENDBRANCH  19  21
BRANCH  20  26
ATOM     26  O   UNL     1       2.781  -2.932  25.113  0.00  0.00    -0.387 OA
ATOM     27  H   UNL     1       3.036  -3.752  24.653  0.00  0.00    +0.210 HD
ENDBRANCH  20  26
BRANCH  18  28
ATOM     28  O   UNL     1       0.610  -3.833  26.430  0.00  0.00    -0.461 OA
BRANCH  28  29
ATOM     29  C   UNL     1       0.496  -5.118  25.981  0.00  0.00    +0.127 A 
ATOM     30  C   UNL     1       0.478  -5.480  24.637  0.00  0.00    +0.092 A 
ATOM     31  C   UNL     1       0.504  -6.819  24.291  0.00  0.00    +0.143 A 
ATOM     32  C   UNL     1       0.493  -7.844  25.237  0.00  0.00    +0.021 A 
ATOM     33  C   UNL     1       0.559  -9.227  24.748  0.00  0.00    -0.033 A 
ATOM     34  C   UNL     1       0.713  -9.424  23.428  0.00  0.00    +0.096 A 
ATOM     35  C   UNL     1       0.784  -8.341  22.442  0.00  0.00    +0.337 A 
ATOM     36  O   UNL     1       0.982  -8.584  21.254  0.00  0.00    -0.245 OA
ATOM     37  C   UNL     1       0.468 -10.410  25.662  0.00  0.00    +0.045 C 
ATOM     38  C   UNL     1       0.443  -7.466  26.586  0.00  0.00    +0.015 A 
ATOM     39  O   UNL     1       0.597  -7.068  22.911  0.00  0.00    -0.422 OA
ATOM     40  C   UNL     1       0.446  -6.113  26.956  0.00  0.00    +0.046 A 
ENDBRANCH  28  29
ENDBRANCH  18  28
BRANCH  16  41
ATOM     41  C   UNL     1       1.408  -0.000  28.202  0.00  0.00    +0.190 C 
BRANCH  41  42
ATOM     42  O   UNL     1       2.449   0.965  28.150  0.00  0.00    -0.392 OA
ATOM     43  H   UNL     1       3.256   0.481  27.880  0.00  0.00    +0.210 HD
ENDBRANCH  41  42
ENDBRANCH  16  41
ENDBRANCH  14  15
ENDBRANCH   4  14
BRANCH   2  44
ATOM     44  C   UNL     1       6.550   2.241  28.830  0.00  0.00    +0.190 C 
BRANCH  44  45
ATOM     45  O   UNL     1       7.915   1.901  29.069  0.00  0.00    -0.392 OA
ATOM     46  H   UNL     1       8.266   2.589  29.659  0.00  0.00    +0.210 HD
ENDBRANCH  44  45
ENDBRANCH   2  44
BRANCH   1  47
ATOM     47  O   UNL     1       7.765   1.017  26.146  0.00  0.00    -0.341 OA
BRANCH  47  49
ATOM     48  C   UNL     1       9.314   0.929  24.203  0.00  0.00    +0.160 C 
ATOM     49  C   UNL     1       8.381   1.801  25.110  0.00  0.00    +0.274 C 
ATOM     50  O   UNL     1       7.421   2.509  24.331  0.00  0.00    -0.341 OA
ATOM     51  C   UNL     1       7.949   3.401  23.322  0.00  0.00    +0.178 C 
ATOM     52  C   UNL     1       8.990   2.724  22.417  0.00  0.00    +0.176 C 
ATOM     53  C   UNL     1      10.023   1.900  23.214  0.00  0.00    +0.171 C 
BRANCH  48  56
ATOM     54  C   UNL     1       8.412  -2.131  22.103  0.00  0.00    +0.109 C 
ATOM     55  C   UNL     1       9.276  -1.202  22.910  0.00  0.00    +0.210 C 
ATOM     56  N   UNL     1       8.589  -0.137  23.477  0.00  0.00    -0.305 N 
ATOM     57  H   UNL     1       7.603  -0.257  23.665  0.00  0.00    +0.149 HD
ATOM     58  O   UNL     1      10.480  -1.372  23.033  0.00  0.00    -0.276 OA
ENDBRANCH  48  56
BRANCH  53  59
ATOM     59  O   UNL     1      10.979   2.763  23.847  0.00  0.00    -0.387 OA
ATOM     60  H   UNL     1      10.682   3.091  24.709  0.00  0.00    +0.210 HD
ENDBRANCH  53  59
BRANCH  52  61
ATOM     61  O   UNL     1       8.280   1.888  21.491  0.00  0.00    -0.387 OA
ATOM     62  H   UNL     1       8.275   2.350  20.632  0.00  0.00    +0.210 HD
ENDBRANCH  52  61
BRANCH  51  63
ATOM     63  C   UNL     1       8.462   4.753  23.848  0.00  0.00    +0.190 C 
BRANCH  63  64
ATOM     64  O   UNL     1       9.513   5.273  23.046  0.00  0.00    -0.392 OA
ATOM     65  H   UNL     1      10.332   4.785  23.244  0.00  0.00    +0.210 HD
ENDBRANCH  63  64
ENDBRANCH  51  63
ENDBRANCH  47  49
ENDBRANCH   1  47
TORSDOF 19
ENDMDL
MODEL 9
REMARK VINA RESULT:      -5.6      2.246     11.381
REMARK  Name = 
REMARK  23 active torsions:
REMARK  status: ('A' for Active; 'I' for Inactive)
REMARK    1  A    between atoms: C_1  and  C_2
REMARK    2  A    between atoms: N_4  and  C_5
REMARK    3  A    between atoms: C_7  and  O_9
REMARK    4  A    between atoms: C_10  and  O_12
REMARK    5  A    between atoms: C_13  and  C_15
REMARK    6  A    between atoms: C_15  and  O_16
REMARK    7  A    between atoms: C_18  and  O_20
REMARK    8  A    between atoms: O_20  and  C_21
REMARK    9  A    between atoms: C_23  and  O_25
REMARK   10  A    between atoms: C_26  and  N_28
REMARK   11  A    between atoms: C_29  and  C_30
REMARK   12  A    between atoms: C_32  and  O_34
REMARK   13  A    between atoms: O_34  and  C_35
REMARK   14  A    between atoms: C_37  and  O_39
REMARK   15  A    between atoms: C_40  and  N_42
REMARK   16  A    between atoms: C_43  and  C_44
REMARK   17  A    between atoms: C_46  and  O_48
REMARK   18  A    between atoms: O_48  and  C_49
REMARK   19  A    between atoms: C_53  and  C_54
REMARK   20  A    between atoms: C_62  and  C_64
REMARK   21  A    between atoms: C_64  and  O_65
REMARK   22  A    between atoms: C_67  and  C_69
REMARK   23  A    between atoms: C_69  and  O_70
REMARK                            x       y       z     vdW  Elec       q    Type
REMARK                         _______ _______ _______ _____ _____    ______ ____
ROOT
ATOM      1  C   UNL     1       6.713   2.257  24.909  0.00  0.00    +0.183 C 
ATOM      2  C   UNL     1       6.522   1.424  26.206  0.00  0.00    +0.178 C 
ATOM      3  O   UNL     1       7.092   0.117  26.080  0.00  0.00    -0.341 OA
ATOM      4  C   UNL     1       6.569  -0.681  25.009  0.00  0.00    +0.274 C 
ATOM      5  C   UNL     1       6.555   0.049  23.645  0.00  0.00    +0.160 C 
ATOM      6  C   UNL     1       5.968   1.460  23.806  0.00  0.00    +0.171 C 
ENDROOT
BRANCH   5   7
ATOM      7  N   UNL     1       7.894   0.035  23.048  0.00  0.00    -0.305 N 
ATOM      8  H   UNL     1       8.535   0.753  23.368  0.00  0.00    +0.149 HD
ATOM      9  C   UNL     1       8.401  -1.103  22.471  0.00  0.00    +0.210 C 
ATOM     10  O   UNL     1       7.738  -2.099  22.245  0.00  0.00    -0.276 OA
ATOM     11  C   UNL     1       9.864  -1.004  22.087  0.00  0.00    +0.109 C 
ENDBRANCH   5   7
BRANCH   6  12
ATOM     12  O   UNL     1       4.560   1.409  24.121  0.00  0.00    -0.387 OA
ATOM     13  H   UNL     1       4.350   0.593  24.627  0.00  0.00    +0.210 HD
ENDBRANCH   6  12
BRANCH   4  14
ATOM     14  O   UNL     1       5.298  -1.257  25.361  0.00  0.00    -0.341 OA
BRANCH  14  15
ATOM     15  C   UNL     1       5.398  -2.604  25.894  0.00  0.00    +0.183 C 
ATOM     16  C   UNL     1       4.627  -3.614  24.999  0.00  0.00    +0.179 C 
ATOM     17  O   UNL     1       3.198  -3.480  25.140  0.00  0.00    -0.332 OA
ATOM     18  C   UNL     1       2.713  -3.636  26.484  0.00  0.00    +0.331 C 
ATOM     19  C   UNL     1       3.323  -2.547  27.377  0.00  0.00    +0.173 C 
ATOM     20  C   UNL     1       4.859  -2.714  27.344  0.00  0.00    +0.172 C 
BRANCH  19  21
ATOM     21  N   UNL     1       2.819  -1.234  26.922  0.00  0.00    -0.304 N 
ATOM     22  H   UNL     1       3.310  -0.803  26.143  0.00  0.00    +0.149 HD
ATOM     23  C   UNL     1       1.916  -0.471  27.614  0.00  0.00    +0.210 C 
ATOM     24  O   UNL     1       1.466  -0.796  28.707  0.00  0.00    -0.276 OA
ATOM     25  C   UNL     1       1.520   0.809  26.921  0.00  0.00    +0.109 C 
ENDBRANCH  19  21
BRANCH  20  26
ATOM     26  O   UNL     1       5.299  -3.952  27.929  0.00  0.00    -0.387 OA
ATOM     27  H   UNL     1       5.952  -3.775  28.632  0.00  0.00    +0.210 HD
ENDBRANCH  20  26
BRANCH  18  28
ATOM     28  O   UNL     1       2.955  -4.937  27.040  0.00  0.00    -0.461 OA
BRANCH  28  29
ATOM     29  C   UNL     1       2.324  -5.965  26.401  0.00  0.00    +0.127 A 
ATOM     30  C   UNL     1       1.910  -5.927  25.073  0.00  0.00    +0.092 A 
ATOM     31  C   UNL     1       1.409  -7.073  24.480  0.00  0.00    +0.143 A 
ATOM     32  C   UNL     1       1.247  -8.272  25.174  0.00  0.00    +0.021 A 
ATOM     33  C   UNL     1       0.739  -9.430  24.428  0.00  0.00    -0.033 A 
ATOM     34  C   UNL     1       0.544  -9.294  23.106  0.00  0.00    +0.096 A 
ATOM     35  C   UNL     1       0.773  -8.047  22.368  0.00  0.00    +0.337 A 
ATOM     36  O   UNL     1       0.630  -8.002  21.150  0.00  0.00    -0.245 OA
ATOM     37  C   UNL     1       0.444 -10.744  25.083  0.00  0.00    +0.045 C 
ATOM     38  C   UNL     1       1.605  -8.279  26.529  0.00  0.00    +0.015 A 
ATOM     39  O   UNL     1       1.128  -6.951  23.109  0.00  0.00    -0.422 OA
ATOM     40  C   UNL     1       2.141  -7.134  27.139  0.00  0.00    +0.046 A 
ENDBRANCH  28  29
ENDBRANCH  18  28
BRANCH  16  41
ATOM     41  C   UNL     1       4.920  -3.514  23.492  0.00  0.00    +0.190 C 
BRANCH  41  42
ATOM     42  O   UNL     1       6.105  -4.190  23.099  0.00  0.00    -0.392 OA
ATOM     43  H   UNL     1       6.850  -3.665  23.455  0.00  0.00    +0.210 HD
ENDBRANCH  41  42
ENDBRANCH  16  41
ENDBRANCH  14  15
ENDBRANCH   4  14
BRANCH   2  44
ATOM     44  C   UNL     1       7.121   2.030  27.473  0.00  0.00    +0.190 C 
BRANCH  44  45
ATOM     45  O   UNL     1       7.742   3.284  27.192  0.00  0.00    -0.392 OA
ATOM     46  H   UNL     1       7.333   3.929  27.794  0.00  0.00    +0.210 HD
ENDBRANCH  44  45
ENDBRANCH   2  44
BRANCH   1  47
ATOM     47  O   UNL     1       8.079   2.494  24.465  0.00  0.00    -0.341 OA
BRANCH  47  49
ATOM     48  C   UNL     1       7.128   4.729  23.937  0.00  0.00    +0.160 C 
ATOM     49  C   UNL     1       8.411   3.850  24.120  0.00  0.00    +0.274 C 
ATOM     50  O   UNL     1       9.309   4.437  25.057  0.00  0.00    -0.341 OA
ATOM     51  C   UNL     1       9.777   5.770  24.746  0.00  0.00    +0.178 C 
ATOM     52  C   UNL     1       8.631   6.738  24.411  0.00  0.00    +0.176 C 
ATOM     53  C   UNL     1       7.602   6.126  23.437  0.00  0.00    +0.171 C 
BRANCH  48  56
ATOM     54  C   UNL     1       4.309   5.310  26.448  0.00  0.00    +0.109 C 
ATOM     55  C   UNL     1       4.958   5.090  25.109  0.00  0.00    +0.210 C 
ATOM     56  N   UNL     1       6.324   4.850  25.173  0.00  0.00    -0.305 N 
ATOM     57  H   UNL     1       6.694   4.451  26.025  0.00  0.00    +0.149 HD
ATOM     58  O   UNL     1       4.327   5.138  24.063  0.00  0.00    -0.276 OA
ENDBRANCH  48  56
BRANCH  53  59
ATOM     59  O   UNL     1       8.120   6.108  22.099  0.00  0.00    -0.387 OA
ATOM     60  H   UNL     1       9.082   5.999  22.066  0.00  0.00    +0.210 HD
ENDBRANCH  53  59
BRANCH  52  61
ATOM     61  O   UNL     1       8.002   7.108  25.647  0.00  0.00    -0.387 OA
ATOM     62  H   UNL     1       7.044   7.167  25.475  0.00  0.00    +0.210 HD
ENDBRANCH  52  61
BRANCH  51  63
ATOM     63  C   UNL     1      10.894   5.841  23.689  0.00  0.00    +0.190 C 
BRANCH  63  64
ATOM     64  O   UNL     1      11.598   4.613  23.575  0.00  0.00    -0.392 OA
ATOM     65  H   UNL     1      11.070   3.906  23.987  0.00  0.00    +0.210 HD
ENDBRANCH  63  64
ENDBRANCH  51  63
ENDBRANCH  47  49
ENDBRANCH   1  47
TORSDOF 19
ENDMDL
