MODEL 1
REMARK VINA RESULT:      -5.3      0.000      0.000
REMARK  Name = 
REMARK  6 active torsions:
REMARK  status: ('A' for Active; 'I' for Inactive)
REMARK    1  A    between atoms: C_1  and  C_2
REMARK    2  A    between atoms: N_4  and  C_5
REMARK    3  A    between atoms: C_7  and  O_9
REMARK    4  A    between atoms: C_10  and  O_12
REMARK    5  A    between atoms: C_13  and  C_15
REMARK    6  A    between atoms: C_15  and  O_16
REMARK                            x       y       z     vdW  Elec       q    Type
REMARK                         _______ _______ _______ _____ _____    ______ ____
ROOT
ATOM      1  C   UNL     1       8.142  -2.269  23.474  0.00  0.00    +0.213 C 
ATOM      2  C   UNL     1       9.663  -2.094  23.515  0.00  0.00    +0.331 C 
ATOM      3  O   UNL     1      10.402  -3.050  23.755  0.00  0.00    -0.249 OA
ATOM      4  O   UNL     1      10.182  -0.855  23.372  0.00  0.00    -0.455 OA
ATOM      5  C   UNL     1       9.487   0.150  22.604  0.00  0.00    +0.233 C 
ATOM      6  C   UNL     1       8.023   0.215  23.000  0.00  0.00    +0.188 C 
ATOM      7  C   UNL     1       7.392  -1.148  22.746  0.00  0.00    +0.178 C 
ENDROOT
BRANCH   1  10
ATOM      8  C   UNL     1       6.816  -5.742  22.575  0.00  0.00    +0.109 C 
ATOM      9  C   UNL     1       6.842  -4.399  23.247  0.00  0.00    +0.211 C 
ATOM     10  N   UNL     1       7.889  -3.596  22.869  0.00  0.00    -0.301 N 
ATOM     11  H   UNL     1       8.693  -4.049  22.435  0.00  0.00    +0.150 HD
ATOM     12  O   UNL     1       5.975  -4.034  24.034  0.00  0.00    -0.276 OA
ENDBRANCH   1  10
BRANCH   6  13
ATOM     13  O   UNL     1       7.324   1.187  22.216  0.00  0.00    -0.385 OA
ATOM     14  H   UNL     1       6.540   1.423  22.755  0.00  0.00    +0.210 HD
ENDBRANCH   6  13
BRANCH   7  15
ATOM     15  O   UNL     1       6.028  -1.027  23.192  0.00  0.00    -0.387 OA
ATOM     16  H   UNL     1       6.052  -0.651  24.104  0.00  0.00    +0.210 HD
ENDBRANCH   7  15
BRANCH   5  17
ATOM     17  C   UNL     1      10.210   1.484  22.817  0.00  0.00    +0.203 C 
BRANCH  17  18
ATOM     18  O   UNL     1      10.177   2.282  21.636  0.00  0.00    -0.391 OA
ATOM     19  H   UNL     1       9.274   2.210  21.278  0.00  0.00    +0.210 HD
ENDBRANCH  17  18
ENDBRANCH   5  17
TORSDOF 5
ENDMDL
MODEL 2
REMARK VINA RESULT:      -5.1      2.095      2.366
REMARK  Name = 
REMARK  6 active torsions:
REMARK  status: ('A' for Active; 'I' for Inactive)
REMARK    1  A    between atoms: C_1  and  C_2
REMARK    2  A    between atoms: N_4  and  C_5
REMARK    3  A    between atoms: C_7  and  O_9
REMARK    4  A    between atoms: C_10  and  O_12
REMARK    5  A    between atoms: C_13  and  C_15
REMARK    6  A    between atoms: C_15  and  O_16
REMARK                            x       y       z     vdW  Elec       q    Type
REMARK                         _______ _______ _______ _____ _____    ______ ____
ROOT
ATOM      1  C   UNL     1       8.511  -1.674  24.358  0.00  0.00    +0.213 C 
ATOM      2  C   UNL     1       9.100  -0.434  25.037  0.00  0.00    +0.331 C 
ATOM      3  O   UNL     1       9.120  -0.336  26.265  0.00  0.00    -0.249 OA
ATOM      4  O   UNL     1       9.520   0.594  24.268  0.00  0.00    -0.455 OA
ATOM      5  C   UNL     1      10.004   0.361  22.929  0.00  0.00    +0.233 C 
ATOM      6  C   UNL     1       9.054  -0.540  22.161  0.00  0.00    +0.188 C 
ATOM      7  C   UNL     1       8.943  -1.867  22.901  0.00  0.00    +0.178 C 
ENDROOT
BRANCH   1  10
ATOM      8  C   UNL     1       8.565  -4.930  26.364  0.00  0.00    +0.109 C 
ATOM      9  C   UNL     1       8.045  -3.907  25.395  0.00  0.00    +0.211 C 
ATOM     10  N   UNL     1       8.875  -2.830  25.208  0.00  0.00    -0.301 N 
ATOM     11  H   UNL     1       9.581  -2.653  25.922  0.00  0.00    +0.150 HD
ATOM     12  O   UNL     1       6.988  -4.045  24.788  0.00  0.00    -0.276 OA
ENDBRANCH   1  10
BRANCH   6  13
ATOM     13  O   UNL     1       9.547  -0.800  20.844  0.00  0.00    -0.385 OA
ATOM     14  H   UNL     1       8.761  -1.090  20.336  0.00  0.00    +0.210 HD
ENDBRANCH   6  13
BRANCH   7  15
ATOM     15  O   UNL     1       7.991  -2.644  22.150  0.00  0.00    -0.387 OA
ATOM     16  H   UNL     1       8.359  -3.556  22.065  0.00  0.00    +0.210 HD
ENDBRANCH   7  15
BRANCH   5  17
ATOM     17  C   UNL     1      10.187   1.726  22.255  0.00  0.00    +0.203 C 
BRANCH  17  18
ATOM     18  O   UNL     1       9.175   1.957  21.277  0.00  0.00    -0.391 OA
ATOM     19  H   UNL     1       9.060   2.923  21.220  0.00  0.00    +0.210 HD
ENDBRANCH  17  18
ENDBRANCH   5  17
TORSDOF 5
ENDMDL
MODEL 3
REMARK VINA RESULT:      -5.0      2.235      3.246
REMARK  Name = 
REMARK  6 active torsions:
REMARK  status: ('A' for Active; 'I' for Inactive)
REMARK    1  A    between atoms: C_1  and  C_2
REMARK    2  A    between atoms: N_4  and  C_5
REMARK    3  A    between atoms: C_7  and  O_9
REMARK    4  A    between atoms: C_10  and  O_12
REMARK    5  A    between atoms: C_13  and  C_15
REMARK    6  A    between atoms: C_15  and  O_16
REMARK                            x       y       z     vdW  Elec       q    Type
REMARK                         _______ _______ _______ _____ _____    ______ ____
ROOT
ATOM      1  C   UNL     1       8.798  -0.133  23.845  0.00  0.00    +0.213 C 
ATOM      2  C   UNL     1       8.605   0.791  25.050  0.00  0.00    +0.331 C 
ATOM      3  O   UNL     1       8.200   0.348  26.127  0.00  0.00    -0.249 OA
ATOM      4  O   UNL     1       8.803   2.118  24.895  0.00  0.00    -0.455 OA
ATOM      5  C   UNL     1       9.730   2.613  23.907  0.00  0.00    +0.233 C 
ATOM      6  C   UNL     1       9.506   1.935  22.568  0.00  0.00    +0.188 C 
ATOM      7  C   UNL     1       9.703   0.435  22.746  0.00  0.00    +0.178 C 
ENDROOT
BRANCH   1  10
ATOM      8  C   UNL     1       9.511  -3.818  24.582  0.00  0.00    +0.109 C 
ATOM      9  C   UNL     1       8.963  -2.633  23.839  0.00  0.00    +0.211 C 
ATOM     10  N   UNL     1       9.304  -1.418  24.377  0.00  0.00    -0.301 N 
ATOM     11  H   UNL     1       9.613  -1.407  25.349  0.00  0.00    +0.150 HD
ATOM     12  O   UNL     1       8.302  -2.743  22.811  0.00  0.00    -0.276 OA
ENDBRANCH   1  10
BRANCH   6  13
ATOM     13  O   UNL     1      10.446   2.399  21.595  0.00  0.00    -0.385 OA
ATOM     14  H   UNL     1      10.202   1.929  20.769  0.00  0.00    +0.210 HD
ENDBRANCH   6  13
BRANCH   7  15
ATOM     15  O   UNL     1       9.422  -0.143  21.457  0.00  0.00    -0.387 OA
ATOM     16  H   UNL     1      10.214   0.008  20.889  0.00  0.00    +0.210 HD
ENDBRANCH   7  15
BRANCH   5  17
ATOM     17  C   UNL     1       9.560   4.134  23.827  0.00  0.00    +0.203 C 
BRANCH  17  18
ATOM     18  O   UNL     1      10.720   4.753  23.274  0.00  0.00    -0.391 OA
ATOM     19  H   UNL     1      10.610   4.732  22.305  0.00  0.00    +0.210 HD
ENDBRANCH  17  18
ENDBRANCH   5  17
TORSDOF 5
ENDMDL
MODEL 4
REMARK VINA RESULT:      -5.0      1.639      2.774
REMARK  Name = 
REMARK  6 active torsions:
REMARK  status: ('A' for Active; 'I' for Inactive)
REMARK    1  A    between atoms: C_1  and  C_2
REMARK    2  A    between atoms: N_4  and  C_5
REMARK    3  A    between atoms: C_7  and  O_9
REMARK    4  A    between atoms: C_10  and  O_12
REMARK    5  A    between atoms: C_13  and  C_15
REMARK    6  A    between atoms: C_15  and  O_16
REMARK                            x       y       z     vdW  Elec       q    Type
REMARK                         _______ _______ _______ _____ _____    ______ ____
ROOT
ATOM      1  C   UNL     1       8.103  -1.698  22.683  0.00  0.00    +0.213 C 
ATOM      2  C   UNL     1       6.879  -0.929  23.187  0.00  0.00    +0.331 C 
ATOM      3  O   UNL     1       5.981  -1.505  23.803  0.00  0.00    -0.249 OA
ATOM      4  O   UNL     1       6.752   0.379  22.872  0.00  0.00    -0.455 OA
ATOM      5  C   UNL     1       7.920   1.197  22.648  0.00  0.00    +0.233 C 
ATOM      6  C   UNL     1       8.894   0.504  21.714  0.00  0.00    +0.188 C 
ATOM      7  C   UNL     1       9.312  -0.818  22.346  0.00  0.00    +0.178 C 
ENDROOT
BRANCH   1  10
ATOM      8  C   UNL     1       8.413  -4.877  24.786  0.00  0.00    +0.109 C 
ATOM      9  C   UNL     1       8.084  -4.034  23.587  0.00  0.00    +0.211 C 
ATOM     10  N   UNL     1       8.418  -2.710  23.716  0.00  0.00    -0.301 N 
ATOM     11  H   UNL     1       8.561  -2.353  24.660  0.00  0.00    +0.150 HD
ATOM     12  O   UNL     1       7.598  -4.500  22.562  0.00  0.00    -0.276 OA
ENDBRANCH   1  10
BRANCH   6  13
ATOM     13  O   UNL     1      10.067   1.298  21.516  0.00  0.00    -0.385 OA
ATOM     14  H   UNL     1       9.758   2.076  21.007  0.00  0.00    +0.210 HD
ENDBRANCH   6  13
BRANCH   7  15
ATOM     15  O   UNL     1      10.187  -1.441  21.386  0.00  0.00    -0.387 OA
ATOM     16  H   UNL     1      10.630  -0.718  20.882  0.00  0.00    +0.210 HD
ENDBRANCH   7  15
BRANCH   5  17
ATOM     17  C   UNL     1       7.444   2.547  22.098  0.00  0.00    +0.203 C 
BRANCH  17  18
ATOM     18  O   UNL     1       8.454   3.544  22.239  0.00  0.00    -0.391 OA
ATOM     19  H   UNL     1       8.072   4.250  22.792  0.00  0.00    +0.210 HD
ENDBRANCH  17  18
ENDBRANCH   5  17
TORSDOF 5
ENDMDL
MODEL 5
REMARK VINA RESULT:      -5.0      2.144      2.388
REMARK  Name = 
REMARK  6 active torsions:
REMARK  status: ('A' for Active; 'I' for Inactive)
REMARK    1  A    between atoms: C_1  and  C_2
REMARK    2  A    between atoms: N_4  and  C_5
REMARK    3  A    between atoms: C_7  and  O_9
REMARK    4  A    between atoms: C_10  and  O_12
REMARK    5  A    between atoms: C_13  and  C_15
REMARK    6  A    between atoms: C_15  and  O_16
REMARK                            x       y       z     vdW  Elec       q    Type
REMARK                         _______ _______ _______ _____ _____    ______ ____
ROOT
ATOM      1  C   UNL     1       9.407  -1.710  24.161  0.00  0.00    +0.213 C 
ATOM      2  C   UNL     1       9.805  -1.240  22.759  0.00  0.00    +0.331 C 
ATOM      3  O   UNL     1       9.989  -2.051  21.850  0.00  0.00    -0.249 OA
ATOM      4  O   UNL     1      10.040   0.074  22.552  0.00  0.00    -0.455 OA
ATOM      5  C   UNL     1       9.371   1.075  23.349  0.00  0.00    +0.233 C 
ATOM      6  C   UNL     1       9.453   0.733  24.825  0.00  0.00    +0.188 C 
ATOM      7  C   UNL     1       8.789  -0.621  25.045  0.00  0.00    +0.178 C 
ENDROOT
BRANCH   1  10
ATOM      8  C   UNL     1       7.822  -5.182  23.919  0.00  0.00    +0.109 C 
ATOM      9  C   UNL     1       8.859  -4.153  24.265  0.00  0.00    +0.211 C 
ATOM     10  N   UNL     1       8.496  -2.862  23.974  0.00  0.00    -0.301 N 
ATOM     11  H   UNL     1       7.740  -2.728  23.304  0.00  0.00    +0.150 HD
ATOM     12  O   UNL     1       9.924  -4.439  24.802  0.00  0.00    -0.276 OA
ENDBRANCH   1  10
BRANCH   6  13
ATOM     13  O   UNL     1       8.762   1.705  25.615  0.00  0.00    -0.385 OA
ATOM     14  H   UNL     1       8.208   1.179  26.229  0.00  0.00    +0.210 HD
ENDBRANCH   6  13
BRANCH   7  15
ATOM     15  O   UNL     1       8.952  -0.903  26.449  0.00  0.00    -0.387 OA
ATOM     16  H   UNL     1       9.677  -0.322  26.781  0.00  0.00    +0.210 HD
ENDBRANCH   7  15
BRANCH   5  17
ATOM     17  C   UNL     1      10.010   2.431  23.027  0.00  0.00    +0.203 C 
BRANCH  17  18
ATOM     18  O   UNL     1      10.438   2.488  21.668  0.00  0.00    -0.391 OA
ATOM     19  H   UNL     1       9.682   2.822  21.153  0.00  0.00    +0.210 HD
ENDBRANCH  17  18
ENDBRANCH   5  17
TORSDOF 5
ENDMDL
MODEL 6
REMARK VINA RESULT:      -5.0      2.915      5.896
REMARK  Name = 
REMARK  6 active torsions:
REMARK  status: ('A' for Active; 'I' for Inactive)
REMARK    1  A    between atoms: C_1  and  C_2
REMARK    2  A    between atoms: N_4  and  C_5
REMARK    3  A    between atoms: C_7  and  O_9
REMARK    4  A    between atoms: C_10  and  O_12
REMARK    5  A    between atoms: C_13  and  C_15
REMARK    6  A    between atoms: C_15  and  O_16
REMARK                            x       y       z     vdW  Elec       q    Type
REMARK                         _______ _______ _______ _____ _____    ______ ____
ROOT
ATOM      1  C   UNL     1       9.217  -1.448  25.307  0.00  0.00    +0.213 C 
ATOM      2  C   UNL     1       8.225  -1.555  26.468  0.00  0.00    +0.331 C 
ATOM      3  O   UNL     1       7.952  -0.572  27.158  0.00  0.00    -0.249 OA
ATOM      4  O   UNL     1       7.716  -2.766  26.783  0.00  0.00    -0.455 OA
ATOM      5  C   UNL     1       7.565  -3.786  25.774  0.00  0.00    +0.233 C 
ATOM      6  C   UNL     1       8.833  -3.926  24.953  0.00  0.00    +0.188 C 
ATOM      7  C   UNL     1       9.127  -2.587  24.286  0.00  0.00    +0.178 C 
ENDROOT
BRANCH   1  10
ATOM      8  C   UNL     1       9.536   2.128  23.988  0.00  0.00    +0.109 C 
ATOM      9  C   UNL     1       9.989   0.817  24.563  0.00  0.00    +0.211 C 
ATOM     10  N   UNL     1       8.997  -0.122  24.687  0.00  0.00    -0.301 N 
ATOM     11  H   UNL     1       8.033   0.211  24.680  0.00  0.00    +0.150 HD
ATOM     12  O   UNL     1      11.158   0.590  24.857  0.00  0.00    -0.276 OA
ENDBRANCH   1  10
BRANCH   6  13
ATOM     13  O   UNL     1       8.675  -4.912  23.929  0.00  0.00    -0.385 OA
ATOM     14  H   UNL     1       9.509  -5.427  23.948  0.00  0.00    +0.210 HD
ENDBRANCH   6  13
BRANCH   7  15
ATOM     15  O   UNL     1      10.364  -2.779  23.574  0.00  0.00    -0.387 OA
ATOM     16  H   UNL     1      10.954  -2.021  23.802  0.00  0.00    +0.210 HD
ENDBRANCH   7  15
BRANCH   5  17
ATOM     17  C   UNL     1       7.181  -5.090  26.482  0.00  0.00    +0.203 C 
BRANCH  17  18
ATOM     18  O   UNL     1       8.324  -5.917  26.692  0.00  0.00    -0.391 OA
ATOM     19  H   UNL     1       8.947  -5.396  27.231  0.00  0.00    +0.210 HD
ENDBRANCH  17  18
ENDBRANCH   5  17
TORSDOF 5
ENDMDL
MODEL 7
REMARK VINA RESULT:      -4.9      2.605      5.966
REMARK  Name = 
REMARK  6 active torsions:
REMARK  status: ('A' for Active; 'I' for Inactive)
REMARK    1  A    between atoms: C_1  and  C_2
REMARK    2  A    between atoms: N_4  and  C_5
REMARK    3  A    between atoms: C_7  and  O_9
REMARK    4  A    between atoms: C_10  and  O_12
REMARK    5  A    between atoms: C_13  and  C_15
REMARK    6  A    between atoms: C_15  and  O_16
REMARK                            x       y       z     vdW  Elec       q    Type
REMARK                         _______ _______ _______ _____ _____    ______ ____
ROOT
ATOM      1  C   UNL     1       7.955  -4.063  24.286  0.00  0.00    +0.213 C 
ATOM      2  C   UNL     1       7.672  -4.773  25.613  0.00  0.00    +0.331 C 
ATOM      3  O   UNL     1       8.427  -4.634  26.577  0.00  0.00    -0.249 OA
ATOM      4  O   UNL     1       6.628  -5.627  25.687  0.00  0.00    -0.455 OA
ATOM      5  C   UNL     1       5.468  -5.445  24.849  0.00  0.00    +0.233 C 
ATOM      6  C   UNL     1       5.875  -5.207  23.407  0.00  0.00    +0.188 C 
ATOM      7  C   UNL     1       6.747  -3.958  23.350  0.00  0.00    +0.178 C 
ENDROOT
BRANCH   1  10
ATOM      8  C   UNL     1       9.989  -0.828  24.471  0.00  0.00    +0.109 C 
ATOM      9  C   UNL     1       9.503  -2.130  23.901  0.00  0.00    +0.211 C 
ATOM     10  N   UNL     1       8.512  -2.735  24.631  0.00  0.00    -0.301 N 
ATOM     11  H   UNL     1       8.403  -2.445  25.603  0.00  0.00    +0.150 HD
ATOM     12  O   UNL     1       9.928  -2.592  22.847  0.00  0.00    -0.276 OA
ENDBRANCH   1  10
BRANCH   6  13
ATOM     13  O   UNL     1       4.729  -4.993  22.579  0.00  0.00    -0.385 OA
ATOM     14  H   UNL     1       4.939  -4.185  22.066  0.00  0.00    +0.210 HD
ENDBRANCH   6  13
BRANCH   7  15
ATOM     15  O   UNL     1       7.138  -3.828  21.969  0.00  0.00    -0.387 OA
ATOM     16  H   UNL     1       6.365  -4.100  21.420  0.00  0.00    +0.210 HD
ENDBRANCH   7  15
BRANCH   5  17
ATOM     17  C   UNL     1       4.578  -6.683  25.009  0.00  0.00    +0.203 C 
BRANCH  17  18
ATOM     18  O   UNL     1       4.585  -7.477  23.824  0.00  0.00    -0.391 OA
ATOM     19  H   UNL     1       5.514  -7.721  23.659  0.00  0.00    +0.210 HD
ENDBRANCH  17  18
ENDBRANCH   5  17
TORSDOF 5
ENDMDL
MODEL 8
REMARK VINA RESULT:      -4.9      2.058      4.984
REMARK  Name = 
REMARK  6 active torsions:
REMARK  status: ('A' for Active; 'I' for Inactive)
REMARK    1  A    between atoms: C_1  and  C_2
REMARK    2  A    between atoms: N_4  and  C_5
REMARK    3  A    between atoms: C_7  and  O_9
REMARK    4  A    between atoms: C_10  and  O_12
REMARK    5  A    between atoms: C_13  and  C_15
REMARK    6  A    between atoms: C_15  and  O_16
REMARK                            x       y       z     vdW  Elec       q    Type
REMARK                         _______ _______ _______ _____ _____    ______ ____
ROOT
ATOM      1  C   UNL     1       8.753  -1.316  23.360  0.00  0.00    +0.213 C 
ATOM      2  C   UNL     1       9.957  -2.262  23.337  0.00  0.00    +0.331 C 
ATOM      3  O   UNL     1      10.950  -2.002  22.656  0.00  0.00    -0.249 OA
ATOM      4  O   UNL     1       9.882  -3.432  24.007  0.00  0.00    -0.455 OA
ATOM      5  C   UNL     1       9.048  -3.557  25.178  0.00  0.00    +0.233 C 
ATOM      6  C   UNL     1       7.665  -2.988  24.920  0.00  0.00    +0.188 C 
ATOM      7  C   UNL     1       7.809  -1.517  24.551  0.00  0.00    +0.178 C 
ENDROOT
BRANCH   1  10
ATOM      8  C   UNL     1      10.118   2.089  22.281  0.00  0.00    +0.109 C 
ATOM      9  C   UNL     1       9.468   0.744  22.127  0.00  0.00    +0.211 C 
ATOM     10  N   UNL     1       9.297   0.059  23.303  0.00  0.00    -0.301 N 
ATOM     11  H   UNL     1       9.866   0.346  24.099  0.00  0.00    +0.150 HD
ATOM     12  O   UNL     1       9.083   0.313  21.045  0.00  0.00    -0.276 OA
ENDBRANCH   1  10
BRANCH   6  13
ATOM     13  O   UNL     1       6.847  -3.080  26.089  0.00  0.00    -0.385 OA
ATOM     14  H   UNL     1       5.945  -3.260  25.749  0.00  0.00    +0.210 HD
ENDBRANCH   6  13
BRANCH   7  15
ATOM     15  O   UNL     1       6.472  -1.061  24.269  0.00  0.00    -0.387 OA
ATOM     16  H   UNL     1       5.912  -1.863  24.135  0.00  0.00    +0.210 HD
ENDBRANCH   7  15
BRANCH   5  17
ATOM     17  C   UNL     1       9.006  -5.040  25.566  0.00  0.00    +0.203 C 
BRANCH  17  18
ATOM     18  O   UNL     1      10.271  -5.663  25.353  0.00  0.00    -0.391 OA
ATOM     19  H   UNL     1      10.941  -4.956  25.404  0.00  0.00    +0.210 HD
ENDBRANCH  17  18
ENDBRANCH   5  17
TORSDOF 5
ENDMDL
MODEL 9
REMARK VINA RESULT:      -4.9      2.490      5.045
REMARK  Name = 
REMARK  6 active torsions:
REMARK  status: ('A' for Active; 'I' for Inactive)
REMARK    1  A    between atoms: C_1  and  C_2
REMARK    2  A    between atoms: N_4  and  C_5
REMARK    3  A    between atoms: C_7  and  O_9
REMARK    4  A    between atoms: C_10  and  O_12
REMARK    5  A    between atoms: C_13  and  C_15
REMARK    6  A    between atoms: C_15  and  O_16
REMARK                            x       y       z     vdW  Elec       q    Type
REMARK                         _______ _______ _______ _____ _____    ______ ____
ROOT
ATOM      1  C   UNL     1       8.178  -2.714  24.013  0.00  0.00    +0.213 C 
ATOM      2  C   UNL     1       8.735  -4.140  24.059  0.00  0.00    +0.331 C 
ATOM      3  O   UNL     1       9.674  -4.426  24.803  0.00  0.00    -0.249 OA
ATOM      4  O   UNL     1       8.239  -5.064  23.208  0.00  0.00    -0.455 OA
ATOM      5  C   UNL     1       6.881  -4.970  22.730  0.00  0.00    +0.233 C 
ATOM      6  C   UNL     1       6.574  -3.564  22.248  0.00  0.00    +0.188 C 
ATOM      7  C   UNL     1       6.774  -2.599  23.411  0.00  0.00    +0.178 C 
ENDROOT
BRANCH   1  10
ATOM      8  C   UNL     1       8.617  -0.583  27.158  0.00  0.00    +0.109 C 
ATOM      9  C   UNL     1       8.516  -0.884  25.690  0.00  0.00    +0.211 C 
ATOM     10  N   UNL     1       8.237  -2.195  25.398  0.00  0.00    -0.301 N 
ATOM     11  H   UNL     1       8.420  -2.886  26.125  0.00  0.00    +0.150 HD
ATOM     12  O   UNL     1       8.631  -0.020  24.826  0.00  0.00    -0.276 OA
ENDBRANCH   1  10
BRANCH   6  13
ATOM     13  O   UNL     1       5.218  -3.459  21.805  0.00  0.00    -0.385 OA
ATOM     14  H   UNL     1       5.143  -2.551  21.443  0.00  0.00    +0.210 HD
ENDBRANCH   6  13
BRANCH   7  15
ATOM     15  O   UNL     1       6.520  -1.289  22.868  0.00  0.00    -0.387 OA
ATOM     16  H   UNL     1       6.646  -0.640  23.600  0.00  0.00    +0.210 HD
ENDBRANCH   7  15
BRANCH   5  17
ATOM     17  C   UNL     1       6.701  -6.018  21.626  0.00  0.00    +0.203 C 
BRANCH  17  18
ATOM     18  O   UNL     1       5.320  -6.291  21.396  0.00  0.00    -0.391 OA
ATOM     19  H   UNL     1       4.941  -6.551  22.256  0.00  0.00    +0.210 HD
ENDBRANCH  17  18
ENDBRANCH   5  17
TORSDOF 5
ENDMDL
