MODEL 1
REMARK VINA RESULT:      -7.2      0.000      0.000
REMARK  Name = 
REMARK  8 active torsions:
REMARK  status: ('A' for Active; 'I' for Inactive)
REMARK    1  A    between atoms: C_1  and  O_2
REMARK    2  A    between atoms: O_2  and  C_3
REMARK    3  A    between atoms: C_4  and  N_5
REMARK    4  A    between atoms: N_14  and  C_15
REMARK    5  A    between atoms: C_21  and  C_22
REMARK    6  A    between atoms: C_28  and  C_29
REMARK    7  A    between atoms: C_29  and  S_30
REMARK    8  A    between atoms: S_30  and  C_31
REMARK                            x       y       z     vdW  Elec       q    Type
REMARK                         _______ _______ _______ _____ _____    ______ ____
ROOT
ATOM      1  N   UNL     1       5.876  -0.782  24.195  0.00  0.00    -0.281 N 
ATOM      2  H   UNL     1       5.079  -0.529  24.762  0.00  0.00    +0.155 HD
ATOM      3  C   UNL     1       5.923  -2.153  23.948  0.00  0.00    +0.223 A 
ATOM      4  N   UNL     1       5.072  -2.908  24.673  0.00  0.00    -0.198 NA
ATOM      5  C   UNL     1       4.968  -4.255  24.459  0.00  0.00    +0.137 A 
ATOM      6  N   UNL     1       4.145  -5.046  25.284  0.00  0.00    -0.298 N 
ATOM      7  H   UNL     1       3.450  -5.583  24.756  0.00  0.00    +0.154 HD
ATOM      8  C   UNL     1       5.739  -4.802  23.426  0.00  0.00    +0.059 A 
ATOM      9  C   UNL     1       5.965  -6.091  22.861  0.00  0.00    +0.032 A 
ATOM     10  C   UNL     1       6.904  -5.952  21.858  0.00  0.00    +0.085 A 
ATOM     11  N   UNL     1       7.266  -4.631  21.808  0.00  0.00    -0.346 N 
ATOM     12  H   UNL     1       7.936  -4.212  21.178  0.00  0.00    +0.167 HD
ATOM     13  C   UNL     1       6.585  -3.929  22.765  0.00  0.00    +0.145 A 
ATOM     14  N   UNL     1       6.741  -2.621  22.993  0.00  0.00    -0.196 NA
ENDROOT
BRANCH   6  15
ATOM     15  C   UNL     1       3.744  -4.714  26.601  0.00  0.00    +0.047 A 
ATOM     16  C   UNL     1       4.311  -5.290  27.760  0.00  0.00    +0.093 A 
ATOM     17  C   UNL     1       3.777  -4.939  29.012  0.00  0.00    +0.137 A 
ATOM     18  F   UNL     1       4.257  -5.473  30.148  0.00  0.00    -0.205 F 
ATOM     19  C   UNL     1       2.728  -4.030  29.139  0.00  0.00    +0.039 A 
ATOM     20  C   UNL     1       2.201  -3.428  28.009  0.00  0.00    +0.005 A 
ATOM     21  C   UNL     1       2.710  -3.766  26.758  0.00  0.00    +0.024 A 
BRANCH  16  22
ATOM     22  C   UNL     1       5.448  -6.249  27.660  0.00  0.00    +0.246 C 
ATOM     23  O   UNL     1       6.492  -5.950  27.085  0.00  0.00    -0.270 OA
ATOM     24  N   UNL     1       5.315  -7.482  28.237  0.00  0.00    -0.325 N 
ATOM     25  H   UNL     1       6.086  -8.131  28.181  0.00  0.00    +0.145 HD
ATOM     26  H   UNL     1       4.481  -7.770  28.738  0.00  0.00    +0.145 HD
ENDBRANCH  16  22
ENDBRANCH   6  15
BRANCH   1  32
ATOM     27  C   UNL     1       7.713   0.548  25.113  0.00  0.00    +0.142 A 
ATOM     28  C   UNL     1       8.701   1.531  24.949  0.00  0.00    +0.052 A 
ATOM     29  C   UNL     1       8.851   2.219  23.736  0.00  0.00    -0.023 A 
ATOM     30  C   UNL     1       7.953   1.932  22.701  0.00  0.00    +0.007 A 
ATOM     31  C   UNL     1       6.962   0.959  22.862  0.00  0.00    +0.027 A 
ATOM     32  C   UNL     1       6.849   0.221  24.047  0.00  0.00    +0.076 A 
BRANCH  27  34
ATOM     33  C   UNL     1       8.581  -1.073  26.597  0.00  0.00    +0.277 C 
ATOM     34  O   UNL     1       7.542  -0.148  26.290  0.00  0.00    -0.493 OA
ENDBRANCH  27  34
BRANCH  29  35
ATOM     35  C   UNL     1       9.881   3.305  23.566  0.00  0.00    +0.200 C 
BRANCH  35  36
ATOM     36  S   UNL     1       9.270   4.926  24.014  0.00  0.00    -0.030 S 
ATOM     37  O   UNL     1       8.859   4.928  25.406  0.00  0.00    -0.174 OA
ATOM     38  O   UNL     1       8.319   5.319  22.988  0.00  0.00    -0.174 OA
ATOM     39  C   UNL     1      10.668   6.014  23.853  0.00  0.00    +0.194 C 
ENDBRANCH  35  36
ENDBRANCH  29  35
ENDBRANCH   1  32
TORSDOF 6
ENDMDL
MODEL 2
REMARK VINA RESULT:      -7.0      2.498      3.008
REMARK  Name = 
REMARK  8 active torsions:
REMARK  status: ('A' for Active; 'I' for Inactive)
REMARK    1  A    between atoms: C_1  and  O_2
REMARK    2  A    between atoms: O_2  and  C_3
REMARK    3  A    between atoms: C_4  and  N_5
REMARK    4  A    between atoms: N_14  and  C_15
REMARK    5  A    between atoms: C_21  and  C_22
REMARK    6  A    between atoms: C_28  and  C_29
REMARK    7  A    between atoms: C_29  and  S_30
REMARK    8  A    between atoms: S_30  and  C_31
REMARK                            x       y       z     vdW  Elec       q    Type
REMARK                         _______ _______ _______ _____ _____    ______ ____
ROOT
ATOM      1  N   UNL     1       6.170  -1.122  23.291  0.00  0.00    -0.281 N 
ATOM      2  H   UNL     1       5.215  -1.300  23.012  0.00  0.00    +0.155 HD
ATOM      3  C   UNL     1       6.734  -2.218  23.940  0.00  0.00    +0.223 A 
ATOM      4  N   UNL     1       5.875  -3.200  24.286  0.00  0.00    -0.198 NA
ATOM      5  C   UNL     1       6.324  -4.362  24.852  0.00  0.00    +0.137 A 
ATOM      6  N   UNL     1       5.409  -5.339  25.292  0.00  0.00    -0.298 N 
ATOM      7  H   UNL     1       5.579  -6.259  24.875  0.00  0.00    +0.154 HD
ATOM      8  C   UNL     1       7.708  -4.507  25.006  0.00  0.00    +0.059 A 
ATOM      9  C   UNL     1       8.603  -5.486  25.529  0.00  0.00    +0.032 A 
ATOM     10  C   UNL     1       9.885  -4.985  25.417  0.00  0.00    +0.085 A 
ATOM     11  N   UNL     1       9.796  -3.734  24.863  0.00  0.00    -0.346 N 
ATOM     12  H   UNL     1      10.563  -3.110  24.654  0.00  0.00    +0.167 HD
ATOM     13  C   UNL     1       8.484  -3.425  24.630  0.00  0.00    +0.145 A 
ATOM     14  N   UNL     1       8.062  -2.262  24.124  0.00  0.00    -0.196 NA
ENDROOT
BRANCH   6  15
ATOM     15  C   UNL     1       4.058  -5.098  25.641  0.00  0.00    +0.047 A 
ATOM     16  C   UNL     1       2.973  -5.318  24.764  0.00  0.00    +0.093 A 
ATOM     17  C   UNL     1       1.681  -4.968  25.197  0.00  0.00    +0.137 A 
ATOM     18  F   UNL     1       0.612  -5.129  24.398  0.00  0.00    -0.205 F 
ATOM     19  C   UNL     1       1.446  -4.435  26.463  0.00  0.00    +0.039 A 
ATOM     20  C   UNL     1       2.501  -4.262  27.342  0.00  0.00    +0.005 A 
ATOM     21  C   UNL     1       3.789  -4.596  26.933  0.00  0.00    +0.024 A 
BRANCH  16  22
ATOM     22  C   UNL     1       3.189  -5.906  23.412  0.00  0.00    +0.246 C 
ATOM     23  O   UNL     1       3.796  -5.296  22.535  0.00  0.00    -0.270 OA
ATOM     24  N   UNL     1       2.705  -7.161  23.161  0.00  0.00    -0.325 N 
ATOM     25  H   UNL     1       2.859  -7.568  22.250  0.00  0.00    +0.145 HD
ATOM     26  H   UNL     1       2.214  -7.713  23.857  0.00  0.00    +0.145 HD
ENDBRANCH  16  22
ENDBRANCH   6  15
BRANCH   1  32
ATOM     27  C   UNL     1       6.022   1.189  24.080  0.00  0.00    +0.142 A 
ATOM     28  C   UNL     1       6.454   2.524  24.019  0.00  0.00    +0.052 A 
ATOM     29  C   UNL     1       7.430   2.933  23.099  0.00  0.00    -0.023 A 
ATOM     30  C   UNL     1       7.933   1.981  22.204  0.00  0.00    +0.007 A 
ATOM     31  C   UNL     1       7.501   0.652  22.256  0.00  0.00    +0.027 A 
ATOM     32  C   UNL     1       6.576   0.222  23.216  0.00  0.00    +0.076 A 
BRANCH  27  34
ATOM     33  C   UNL     1       5.462   0.803  26.343  0.00  0.00    +0.277 C 
ATOM     34  O   UNL     1       5.069   0.754  24.974  0.00  0.00    -0.493 OA
ENDBRANCH  27  34
BRANCH  29  35
ATOM     35  C   UNL     1       7.866   4.372  22.998  0.00  0.00    +0.200 C 
BRANCH  35  36
ATOM     36  S   UNL     1       9.257   4.759  24.054  0.00  0.00    -0.030 S 
ATOM     37  O   UNL     1      10.377   3.895  23.729  0.00  0.00    -0.174 OA
ATOM     38  O   UNL     1       8.756   4.795  25.417  0.00  0.00    -0.174 OA
ATOM     39  C   UNL     1       9.711   6.427  23.637  0.00  0.00    +0.194 C 
ENDBRANCH  35  36
ENDBRANCH  29  35
ENDBRANCH   1  32
TORSDOF 6
ENDMDL
MODEL 3
REMARK VINA RESULT:      -7.0      5.319      9.784
REMARK  Name = 
REMARK  8 active torsions:
REMARK  status: ('A' for Active; 'I' for Inactive)
REMARK    1  A    between atoms: C_1  and  O_2
REMARK    2  A    between atoms: O_2  and  C_3
REMARK    3  A    between atoms: C_4  and  N_5
REMARK    4  A    between atoms: N_14  and  C_15
REMARK    5  A    between atoms: C_21  and  C_22
REMARK    6  A    between atoms: C_28  and  C_29
REMARK    7  A    between atoms: C_29  and  S_30
REMARK    8  A    between atoms: S_30  and  C_31
REMARK                            x       y       z     vdW  Elec       q    Type
REMARK                         _______ _______ _______ _____ _____    ______ ____
ROOT
ATOM      1  N   UNL     1       8.185   1.619  24.985  0.00  0.00    -0.281 N 
ATOM      2  H   UNL     1       7.472   1.825  25.670  0.00  0.00    +0.155 HD
ATOM      3  C   UNL     1       8.879   2.764  24.598  0.00  0.00    +0.223 A 
ATOM      4  N   UNL     1       8.347   3.936  25.003  0.00  0.00    -0.198 NA
ATOM      5  C   UNL     1       8.984   5.121  24.756  0.00  0.00    +0.137 A 
ATOM      6  N   UNL     1       8.374   6.343  25.102  0.00  0.00    -0.298 N 
ATOM      7  H   UNL     1       8.960   6.922  25.711  0.00  0.00    +0.154 HD
ATOM      8  C   UNL     1      10.228   5.061  24.116  0.00  0.00    +0.059 A 
ATOM      9  C   UNL     1      11.214   5.983  23.659  0.00  0.00    +0.032 A 
ATOM     10  C   UNL     1      12.222   5.257  23.056  0.00  0.00    +0.085 A 
ATOM     11  N   UNL     1      11.873   3.933  23.116  0.00  0.00    -0.346 N 
ATOM     12  H   UNL     1      12.405   3.152  22.759  0.00  0.00    +0.167 HD
ATOM     13  C   UNL     1      10.660   3.803  23.735  0.00  0.00    +0.145 A 
ATOM     14  N   UNL     1      10.030   2.638  23.919  0.00  0.00    -0.196 NA
ENDROOT
BRANCH   6  15
ATOM     15  C   UNL     1       6.982   6.545  25.271  0.00  0.00    +0.047 A 
ATOM     16  C   UNL     1       6.058   6.550  24.202  0.00  0.00    +0.093 A 
ATOM     17  C   UNL     1       4.710   6.838  24.484  0.00  0.00    +0.137 A 
ATOM     18  F   UNL     1       3.789   6.884  23.507  0.00  0.00    -0.205 F 
ATOM     19  C   UNL     1       4.266   7.096  25.780  0.00  0.00    +0.039 A 
ATOM     20  C   UNL     1       5.160   7.046  26.836  0.00  0.00    +0.005 A 
ATOM     21  C   UNL     1       6.501   6.768  26.579  0.00  0.00    +0.024 A 
BRANCH  16  22
ATOM     22  C   UNL     1       6.497   6.257  22.809  0.00  0.00    +0.246 C 
ATOM     23  O   UNL     1       7.202   7.042  22.179  0.00  0.00    -0.270 OA
ATOM     24  N   UNL     1       6.110   5.076  22.237  0.00  0.00    -0.325 N 
ATOM     25  H   UNL     1       6.414   4.868  21.296  0.00  0.00    +0.145 HD
ATOM     26  H   UNL     1       5.544   4.387  22.721  0.00  0.00    +0.145 HD
ENDBRANCH  16  22
ENDBRANCH   6  15
BRANCH   1  32
ATOM     27  C   UNL     1       7.441   0.143  23.181  0.00  0.00    +0.142 A 
ATOM     28  C   UNL     1       7.395  -1.132  22.595  0.00  0.00    +0.052 A 
ATOM     29  C   UNL     1       7.997  -2.239  23.210  0.00  0.00    -0.023 A 
ATOM     30  C   UNL     1       8.610  -2.049  24.455  0.00  0.00    +0.007 A 
ATOM     31  C   UNL     1       8.652  -0.782  25.046  0.00  0.00    +0.027 A 
ATOM     32  C   UNL     1       8.111   0.340  24.406  0.00  0.00    +0.076 A 
BRANCH  27  34
ATOM     33  C   UNL     1       7.579   1.794  21.496  0.00  0.00    +0.277 C 
ATOM     34  O   UNL     1       6.862   1.251  22.601  0.00  0.00    -0.493 OA
ENDBRANCH  27  34
BRANCH  29  35
ATOM     35  C   UNL     1       7.915  -3.618  22.610  0.00  0.00    +0.200 C 
BRANCH  35  36
ATOM     36  S   UNL     1       6.283  -4.341  22.736  0.00  0.00    -0.030 S 
ATOM     37  O   UNL     1       5.363  -3.631  21.866  0.00  0.00    -0.174 OA
ATOM     38  O   UNL     1       5.980  -4.459  24.152  0.00  0.00    -0.174 OA
ATOM     39  C   UNL     1       6.457  -5.999  22.115  0.00  0.00    +0.194 C 
ENDBRANCH  35  36
ENDBRANCH  29  35
ENDBRANCH   1  32
TORSDOF 6
ENDMDL
MODEL 4
REMARK VINA RESULT:      -6.7      2.203      2.880
REMARK  Name = 
REMARK  8 active torsions:
REMARK  status: ('A' for Active; 'I' for Inactive)
REMARK    1  A    between atoms: C_1  and  O_2
REMARK    2  A    between atoms: O_2  and  C_3
REMARK    3  A    between atoms: C_4  and  N_5
REMARK    4  A    between atoms: N_14  and  C_15
REMARK    5  A    between atoms: C_21  and  C_22
REMARK    6  A    between atoms: C_28  and  C_29
REMARK    7  A    between atoms: C_29  and  S_30
REMARK    8  A    between atoms: S_30  and  C_31
REMARK                            x       y       z     vdW  Elec       q    Type
REMARK                         _______ _______ _______ _____ _____    ______ ____
ROOT
ATOM      1  N   UNL     1       6.408  -0.884  22.739  0.00  0.00    -0.281 N 
ATOM      2  H   UNL     1       5.525  -1.066  22.281  0.00  0.00    +0.155 HD
ATOM      3  C   UNL     1       6.888  -2.008  23.406  0.00  0.00    +0.223 A 
ATOM      4  N   UNL     1       6.020  -3.033  23.528  0.00  0.00    -0.198 NA
ATOM      5  C   UNL     1       6.404  -4.220  24.089  0.00  0.00    +0.137 A 
ATOM      6  N   UNL     1       5.464  -5.249  24.293  0.00  0.00    -0.298 N 
ATOM      7  H   UNL     1       5.739  -6.133  23.855  0.00  0.00    +0.154 HD
ATOM      8  C   UNL     1       7.743  -4.341  24.481  0.00  0.00    +0.059 A 
ATOM      9  C   UNL     1       8.567  -5.330  25.092  0.00  0.00    +0.032 A 
ATOM     10  C   UNL     1       9.829  -4.789  25.246  0.00  0.00    +0.085 A 
ATOM     11  N   UNL     1       9.792  -3.505  24.767  0.00  0.00    -0.346 N 
ATOM     12  H   UNL     1      10.560  -2.849  24.741  0.00  0.00    +0.167 HD
ATOM     13  C   UNL     1       8.532  -3.215  24.321  0.00  0.00    +0.145 A 
ATOM     14  N   UNL     1       8.164  -2.030  23.824  0.00  0.00    -0.196 NA
ENDROOT
BRANCH   6  15
ATOM     15  C   UNL     1       4.064  -5.068  24.408  0.00  0.00    +0.047 A 
ATOM     16  C   UNL     1       3.428  -4.612  25.584  0.00  0.00    +0.093 A 
ATOM     17  C   UNL     1       2.023  -4.546  25.603  0.00  0.00    +0.137 A 
ATOM     18  F   UNL     1       1.360  -4.145  26.701  0.00  0.00    -0.205 F 
ATOM     19  C   UNL     1       1.253  -4.896  24.496  0.00  0.00    +0.039 A 
ATOM     20  C   UNL     1       1.874  -5.299  23.326  0.00  0.00    +0.005 A 
ATOM     21  C   UNL     1       3.264  -5.377  23.286  0.00  0.00    +0.024 A 
BRANCH  16  22
ATOM     22  C   UNL     1       4.224  -4.210  26.777  0.00  0.00    +0.246 C 
ATOM     23  O   UNL     1       4.828  -5.037  27.455  0.00  0.00    -0.270 OA
ATOM     24  N   UNL     1       4.284  -2.883  27.106  0.00  0.00    -0.325 N 
ATOM     25  H   UNL     1       4.832  -2.604  27.907  0.00  0.00    +0.145 HD
ATOM     26  H   UNL     1       3.819  -2.160  26.568  0.00  0.00    +0.145 HD
ENDBRANCH  16  22
ENDBRANCH   6  15
BRANCH   1  32
ATOM     27  C   UNL     1       6.189   1.310  23.799  0.00  0.00    +0.142 A 
ATOM     28  C   UNL     1       6.576   2.656  23.898  0.00  0.00    +0.052 A 
ATOM     29  C   UNL     1       7.534   3.205  23.034  0.00  0.00    -0.023 A 
ATOM     30  C   UNL     1       8.064   2.384  22.031  0.00  0.00    +0.007 A 
ATOM     31  C   UNL     1       7.676   1.044  21.924  0.00  0.00    +0.027 A 
ATOM     32  C   UNL     1       6.770   0.472  22.826  0.00  0.00    +0.076 A 
BRANCH  27  34
ATOM     33  C   UNL     1       5.675   0.577  25.986  0.00  0.00    +0.277 C 
ATOM     34  O   UNL     1       5.254   0.740  24.635  0.00  0.00    -0.493 OA
ENDBRANCH  27  34
BRANCH  29  35
ATOM     35  C   UNL     1       7.923   4.659  23.105  0.00  0.00    +0.200 C 
BRANCH  35  36
ATOM     36  S   UNL     1       9.238   4.976  24.276  0.00  0.00    -0.030 S 
ATOM     37  O   UNL     1      10.452   4.307  23.844  0.00  0.00    -0.174 OA
ATOM     38  O   UNL     1       8.703   4.702  25.599  0.00  0.00    -0.174 OA
ATOM     39  C   UNL     1       9.521   6.731  24.197  0.00  0.00    +0.194 C 
ENDBRANCH  35  36
ENDBRANCH  29  35
ENDBRANCH   1  32
TORSDOF 6
ENDMDL
MODEL 5
REMARK VINA RESULT:      -6.7      4.339      8.919
REMARK  Name = 
REMARK  8 active torsions:
REMARK  status: ('A' for Active; 'I' for Inactive)
REMARK    1  A    between atoms: C_1  and  O_2
REMARK    2  A    between atoms: O_2  and  C_3
REMARK    3  A    between atoms: C_4  and  N_5
REMARK    4  A    between atoms: N_14  and  C_15
REMARK    5  A    between atoms: C_21  and  C_22
REMARK    6  A    between atoms: C_28  and  C_29
REMARK    7  A    between atoms: C_29  and  S_30
REMARK    8  A    between atoms: S_30  and  C_31
REMARK                            x       y       z     vdW  Elec       q    Type
REMARK                         _______ _______ _______ _____ _____    ______ ____
ROOT
ATOM      1  N   UNL     1       6.438  -1.672  25.963  0.00  0.00    -0.281 N 
ATOM      2  H   UNL     1       6.293  -1.028  26.728  0.00  0.00    +0.155 HD
ATOM      3  C   UNL     1       7.243  -1.122  24.967  0.00  0.00    +0.223 A 
ATOM      4  N   UNL     1       7.484   0.201  25.073  0.00  0.00    -0.198 NA
ATOM      5  C   UNL     1       8.328   0.835  24.203  0.00  0.00    +0.137 A 
ATOM      6  N   UNL     1       8.499   2.232  24.267  0.00  0.00    -0.298 N 
ATOM      7  H   UNL     1       9.479   2.509  24.375  0.00  0.00    +0.154 HD
ATOM      8  C   UNL     1       8.967   0.047  23.238  0.00  0.00    +0.059 A 
ATOM      9  C   UNL     1       9.879   0.248  22.162  0.00  0.00    +0.032 A 
ATOM     10  C   UNL     1      10.090  -0.975  21.555  0.00  0.00    +0.085 A 
ATOM     11  N   UNL     1       9.325  -1.903  22.214  0.00  0.00    -0.346 N 
ATOM     12  H   UNL     1       9.262  -2.890  22.007  0.00  0.00    +0.167 HD
ATOM     13  C   UNL     1       8.626  -1.294  23.220  0.00  0.00    +0.145 A 
ATOM     14  N   UNL     1       7.765  -1.924  24.026  0.00  0.00    -0.196 NA
ENDROOT
BRANCH   6  15
ATOM     15  C   UNL     1       7.571   3.146  24.825  0.00  0.00    +0.047 A 
ATOM     16  C   UNL     1       6.787   4.033  24.054  0.00  0.00    +0.093 A 
ATOM     17  C   UNL     1       5.958   4.949  24.725  0.00  0.00    +0.137 A 
ATOM     18  F   UNL     1       5.208   5.836  24.048  0.00  0.00    -0.205 F 
ATOM     19  C   UNL     1       5.876   4.989  26.116  0.00  0.00    +0.039 A 
ATOM     20  C   UNL     1       6.607   4.090  26.874  0.00  0.00    +0.005 A 
ATOM     21  C   UNL     1       7.440   3.178  26.230  0.00  0.00    +0.024 A 
BRANCH  16  22
ATOM     22  C   UNL     1       6.837   4.001  22.565  0.00  0.00    +0.246 C 
ATOM     23  O   UNL     1       6.473   3.014  21.931  0.00  0.00    -0.270 OA
ATOM     24  N   UNL     1       7.288   5.110  21.903  0.00  0.00    -0.325 N 
ATOM     25  H   UNL     1       7.313   5.098  20.893  0.00  0.00    +0.145 HD
ATOM     26  H   UNL     1       7.581   5.957  22.380  0.00  0.00    +0.145 HD
ENDBRANCH  16  22
ENDBRANCH   6  15
BRANCH   1  32
ATOM     27  C   UNL     1       5.981  -3.984  26.618  0.00  0.00    +0.142 A 
ATOM     28  C   UNL     1       5.123  -5.095  26.635  0.00  0.00    +0.052 A 
ATOM     29  C   UNL     1       3.877  -5.064  25.993  0.00  0.00    -0.023 A 
ATOM     30  C   UNL     1       3.527  -3.905  25.290  0.00  0.00    +0.007 A 
ATOM     31  C   UNL     1       4.380  -2.798  25.265  0.00  0.00    +0.027 A 
ATOM     32  C   UNL     1       5.597  -2.798  25.959  0.00  0.00    +0.076 A 
BRANCH  27  34
ATOM     33  C   UNL     1       8.127  -4.962  26.767  0.00  0.00    +0.277 C 
ATOM     34  O   UNL     1       7.209  -3.981  27.242  0.00  0.00    -0.493 OA
ENDBRANCH  27  34
BRANCH  29  35
ATOM     35  C   UNL     1       2.970  -6.267  25.968  0.00  0.00    +0.200 C 
BRANCH  35  36
ATOM     36  S   UNL     1       3.262  -7.336  24.563  0.00  0.00    -0.030 S 
ATOM     37  O   UNL     1       2.696  -8.648  24.819  0.00  0.00    -0.174 OA
ATOM     38  O   UNL     1       4.670  -7.219  24.227  0.00  0.00    -0.174 OA
ATOM     39  C   UNL     1       2.357  -6.600  23.220  0.00  0.00    +0.194 C 
ENDBRANCH  35  36
ENDBRANCH  29  35
ENDBRANCH   1  32
TORSDOF 6
ENDMDL
MODEL 6
REMARK VINA RESULT:      -6.6      4.649      9.679
REMARK  Name = 
REMARK  8 active torsions:
REMARK  status: ('A' for Active; 'I' for Inactive)
REMARK    1  A    between atoms: C_1  and  O_2
REMARK    2  A    between atoms: O_2  and  C_3
REMARK    3  A    between atoms: C_4  and  N_5
REMARK    4  A    between atoms: N_14  and  C_15
REMARK    5  A    between atoms: C_21  and  C_22
REMARK    6  A    between atoms: C_28  and  C_29
REMARK    7  A    between atoms: C_29  and  S_30
REMARK    8  A    between atoms: S_30  and  C_31
REMARK                            x       y       z     vdW  Elec       q    Type
REMARK                         _______ _______ _______ _____ _____    ______ ____
ROOT
ATOM      1  N   UNL     1       6.762   0.909  24.189  0.00  0.00    -0.281 N 
ATOM      2  H   UNL     1       7.499   1.322  23.636  0.00  0.00    +0.155 HD
ATOM      3  C   UNL     1       5.890   1.871  24.695  0.00  0.00    +0.223 A 
ATOM      4  N   UNL     1       6.295   3.152  24.569  0.00  0.00    -0.198 NA
ATOM      5  C   UNL     1       5.487   4.187  24.951  0.00  0.00    +0.137 A 
ATOM      6  N   UNL     1       5.958   5.514  24.900  0.00  0.00    -0.298 N 
ATOM      7  H   UNL     1       5.356   6.129  24.343  0.00  0.00    +0.154 HD
ATOM      8  C   UNL     1       4.211   3.864  25.427  0.00  0.00    +0.059 A 
ATOM      9  C   UNL     1       3.074   4.563  25.929  0.00  0.00    +0.032 A 
ATOM     10  C   UNL     1       2.122   3.624  26.276  0.00  0.00    +0.085 A 
ATOM     11  N   UNL     1       2.649   2.384  26.019  0.00  0.00    -0.346 N 
ATOM     12  H   UNL     1       2.195   1.494  26.168  0.00  0.00    +0.167 HD
ATOM     13  C   UNL     1       3.918   2.515  25.526  0.00  0.00    +0.145 A 
ATOM     14  N   UNL     1       4.711   1.487  25.207  0.00  0.00    -0.196 NA
ENDROOT
BRANCH   6  15
ATOM     15  C   UNL     1       7.320   5.902  24.927  0.00  0.00    +0.047 A 
ATOM     16  C   UNL     1       8.138   5.965  23.776  0.00  0.00    +0.093 A 
ATOM     17  C   UNL     1       9.496   6.288  23.938  0.00  0.00    +0.137 A 
ATOM     18  F   UNL     1      10.330   6.338  22.886  0.00  0.00    -0.205 F 
ATOM     19  C   UNL     1      10.045   6.566  25.189  0.00  0.00    +0.039 A 
ATOM     20  C   UNL     1       9.237   6.552  26.313  0.00  0.00    +0.005 A 
ATOM     21  C   UNL     1       7.889   6.228  26.177  0.00  0.00    +0.024 A 
BRANCH  16  22
ATOM     22  C   UNL     1       7.576   5.694  22.423  0.00  0.00    +0.246 C 
ATOM     23  O   UNL     1       7.144   6.599  21.714  0.00  0.00    -0.270 OA
ATOM     24  N   UNL     1       7.561   4.404  21.969  0.00  0.00    -0.325 N 
ATOM     25  H   UNL     1       7.191   4.216  21.048  0.00  0.00    +0.145 HD
ATOM     26  H   UNL     1       7.922   3.624  22.508  0.00  0.00    +0.145 HD
ENDBRANCH  16  22
ENDBRANCH   6  15
BRANCH   1  32
ATOM     27  C   UNL     1       8.065  -0.833  25.309  0.00  0.00    +0.142 A 
ATOM     28  C   UNL     1       8.236  -2.178  25.673  0.00  0.00    +0.052 A 
ATOM     29  C   UNL     1       7.323  -3.164  25.272  0.00  0.00    -0.023 A 
ATOM     30  C   UNL     1       6.254  -2.778  24.453  0.00  0.00    +0.007 A 
ATOM     31  C   UNL     1       6.084  -1.440  24.082  0.00  0.00    +0.027 A 
ATOM     32  C   UNL     1       6.955  -0.441  24.534  0.00  0.00    +0.076 A 
BRANCH  27  34
ATOM     33  C   UNL     1      10.198   0.142  25.019  0.00  0.00    +0.277 C 
ATOM     34  O   UNL     1       8.942   0.159  25.690  0.00  0.00    -0.493 OA
ENDBRANCH  27  34
BRANCH  29  35
ATOM     35  C   UNL     1       7.522  -4.615  25.622  0.00  0.00    +0.200 C 
BRANCH  35  36
ATOM     36  S   UNL     1       6.560  -5.134  27.038  0.00  0.00    -0.030 S 
ATOM     37  O   UNL     1       5.887  -3.988  27.621  0.00  0.00    -0.174 OA
ATOM     38  O   UNL     1       7.432  -5.948  27.867  0.00  0.00    -0.174 OA
ATOM     39  C   UNL     1       5.317  -6.226  26.384  0.00  0.00    +0.194 C 
ENDBRANCH  35  36
ENDBRANCH  29  35
ENDBRANCH   1  32
TORSDOF 6
ENDMDL
MODEL 7
REMARK VINA RESULT:      -6.5      5.149      9.395
REMARK  Name = 
REMARK  8 active torsions:
REMARK  status: ('A' for Active; 'I' for Inactive)
REMARK    1  A    between atoms: C_1  and  O_2
REMARK    2  A    between atoms: O_2  and  C_3
REMARK    3  A    between atoms: C_4  and  N_5
REMARK    4  A    between atoms: N_14  and  C_15
REMARK    5  A    between atoms: C_21  and  C_22
REMARK    6  A    between atoms: C_28  and  C_29
REMARK    7  A    between atoms: C_29  and  S_30
REMARK    8  A    between atoms: S_30  and  C_31
REMARK                            x       y       z     vdW  Elec       q    Type
REMARK                         _______ _______ _______ _____ _____    ______ ____
ROOT
ATOM      1  N   UNL     1       8.153   1.547  25.149  0.00  0.00    -0.281 N 
ATOM      2  H   UNL     1       7.490   1.698  25.896  0.00  0.00    +0.155 HD
ATOM      3  C   UNL     1       8.784   2.728  24.768  0.00  0.00    +0.223 A 
ATOM      4  N   UNL     1       8.256   3.863  25.270  0.00  0.00    -0.198 NA
ATOM      5  C   UNL     1       8.840   5.078  25.034  0.00  0.00    +0.137 A 
ATOM      6  N   UNL     1       8.228   6.263  25.487  0.00  0.00    -0.298 N 
ATOM      7  H   UNL     1       8.844   6.829  26.077  0.00  0.00    +0.154 HD
ATOM      8  C   UNL     1      10.031   5.084  24.298  0.00  0.00    +0.059 A 
ATOM      9  C   UNL     1      10.954   6.056  23.813  0.00  0.00    +0.032 A 
ATOM     10  C   UNL     1      11.930   5.390  23.098  0.00  0.00    +0.085 A 
ATOM     11  N   UNL     1      11.621   4.055  23.119  0.00  0.00    -0.346 N 
ATOM     12  H   UNL     1      12.144   3.308  22.684  0.00  0.00    +0.167 HD
ATOM     13  C   UNL     1      10.465   3.859  23.822  0.00  0.00    +0.145 A 
ATOM     14  N   UNL     1       9.881   2.669  23.997  0.00  0.00    -0.196 NA
ENDROOT
BRANCH   6  15
ATOM     15  C   UNL     1       6.849   6.415  25.772  0.00  0.00    +0.047 A 
ATOM     16  C   UNL     1       6.274   6.128  27.031  0.00  0.00    +0.093 A 
ATOM     17  C   UNL     1       4.880   6.243  27.172  0.00  0.00    +0.137 A 
ATOM     18  F   UNL     1       4.272   5.959  28.336  0.00  0.00    -0.205 F 
ATOM     19  C   UNL     1       4.062   6.649  26.119  0.00  0.00    +0.039 A 
ATOM     20  C   UNL     1       4.626   6.975  24.897  0.00  0.00    +0.005 A 
ATOM     21  C   UNL     1       6.005   6.863  24.733  0.00  0.00    +0.024 A 
BRANCH  16  22
ATOM     22  C   UNL     1       7.123   5.713  28.182  0.00  0.00    +0.246 C 
ATOM     23  O   UNL     1       8.045   6.417  28.588  0.00  0.00    -0.270 OA
ATOM     24  N   UNL     1       6.850   4.523  28.800  0.00  0.00    -0.325 N 
ATOM     25  H   UNL     1       7.416   4.242  29.588  0.00  0.00    +0.145 HD
ATOM     26  H   UNL     1       6.089   3.916  28.515  0.00  0.00    +0.145 HD
ENDBRANCH  16  22
ENDBRANCH   6  15
BRANCH   1  32
ATOM     27  C   UNL     1       7.395   0.158  23.283  0.00  0.00    +0.142 A 
ATOM     28  C   UNL     1       7.337  -1.090  22.641  0.00  0.00    +0.052 A 
ATOM     29  C   UNL     1       7.928  -2.228  23.207  0.00  0.00    -0.023 A 
ATOM     30  C   UNL     1       8.542  -2.099  24.459  0.00  0.00    +0.007 A 
ATOM     31  C   UNL     1       8.596  -0.860  25.105  0.00  0.00    +0.027 A 
ATOM     32  C   UNL     1       8.066   0.295  24.515  0.00  0.00    +0.076 A 
BRANCH  27  34
ATOM     33  C   UNL     1       7.464   1.795  21.579  0.00  0.00    +0.277 C 
ATOM     34  O   UNL     1       6.827   1.296  22.752  0.00  0.00    -0.493 OA
ENDBRANCH  27  34
BRANCH  29  35
ATOM     35  C   UNL     1       7.833  -3.579  22.547  0.00  0.00    +0.200 C 
BRANCH  35  36
ATOM     36  S   UNL     1       6.210  -4.319  22.696  0.00  0.00    -0.030 S 
ATOM     37  O   UNL     1       5.256  -3.576  21.894  0.00  0.00    -0.174 OA
ATOM     38  O   UNL     1       5.959  -4.506  24.114  0.00  0.00    -0.174 OA
ATOM     39  C   UNL     1       6.372  -5.945  21.991  0.00  0.00    +0.194 C 
ENDBRANCH  35  36
ENDBRANCH  29  35
ENDBRANCH   1  32
TORSDOF 6
ENDMDL
MODEL 8
REMARK VINA RESULT:      -6.4      2.883      4.755
REMARK  Name = 
REMARK  8 active torsions:
REMARK  status: ('A' for Active; 'I' for Inactive)
REMARK    1  A    between atoms: C_1  and  O_2
REMARK    2  A    between atoms: O_2  and  C_3
REMARK    3  A    between atoms: C_4  and  N_5
REMARK    4  A    between atoms: N_14  and  C_15
REMARK    5  A    between atoms: C_21  and  C_22
REMARK    6  A    between atoms: C_28  and  C_29
REMARK    7  A    between atoms: C_29  and  S_30
REMARK    8  A    between atoms: S_30  and  C_31
REMARK                            x       y       z     vdW  Elec       q    Type
REMARK                         _______ _______ _______ _____ _____    ______ ____
ROOT
ATOM      1  N   UNL     1       7.981  -0.027  24.812  0.00  0.00    -0.281 N 
ATOM      2  H   UNL     1       8.530  -0.717  24.318  0.00  0.00    +0.155 HD
ATOM      3  C   UNL     1       7.014  -0.618  25.623  0.00  0.00    +0.223 A 
ATOM      4  N   UNL     1       6.821  -1.940  25.437  0.00  0.00    -0.198 NA
ATOM      5  C   UNL     1       5.959  -2.645  26.232  0.00  0.00    +0.137 A 
ATOM      6  N   UNL     1       5.699  -4.004  25.969  0.00  0.00    -0.298 N 
ATOM      7  H   UNL     1       5.882  -4.608  26.776  0.00  0.00    +0.154 HD
ATOM      8  C   UNL     1       5.330  -1.950  27.272  0.00  0.00    +0.059 A 
ATOM      9  C   UNL     1       4.389  -2.239  28.302  0.00  0.00    +0.032 A 
ATOM     10  C   UNL     1       4.145  -1.066  28.991  0.00  0.00    +0.085 A 
ATOM     11  N   UNL     1       4.891  -0.077  28.402  0.00  0.00    -0.346 N 
ATOM     12  H   UNL     1       4.929   0.894  28.678  0.00  0.00    +0.167 HD
ATOM     13  C   UNL     1       5.595  -0.594  27.350  0.00  0.00    +0.145 A 
ATOM     14  N   UNL     1       6.392   0.124  26.553  0.00  0.00    -0.196 NA
ENDROOT
BRANCH   6  15
ATOM     15  C   UNL     1       5.864  -4.643  24.716  0.00  0.00    +0.047 A 
ATOM     16  C   UNL     1       7.096  -5.164  24.260  0.00  0.00    +0.093 A 
ATOM     17  C   UNL     1       7.154  -5.706  22.964  0.00  0.00    +0.137 A 
ATOM     18  F   UNL     1       8.303  -6.194  22.465  0.00  0.00    -0.205 F 
ATOM     19  C   UNL     1       6.036  -5.760  22.135  0.00  0.00    +0.039 A 
ATOM     20  C   UNL     1       4.816  -5.293  22.595  0.00  0.00    +0.005 A 
ATOM     21  C   UNL     1       4.736  -4.746  23.873  0.00  0.00    +0.024 A 
BRANCH  16  22
ATOM     22  C   UNL     1       8.305  -5.141  25.130  0.00  0.00    +0.246 C 
ATOM     23  O   UNL     1       9.304  -4.496  24.825  0.00  0.00    -0.270 OA
ATOM     24  N   UNL     1       8.281  -5.850  26.301  0.00  0.00    -0.325 N 
ATOM     25  H   UNL     1       9.094  -5.828  26.900  0.00  0.00    +0.145 HD
ATOM     26  H   UNL     1       7.473  -6.382  26.607  0.00  0.00    +0.145 HD
ENDBRANCH  16  22
ENDBRANCH   6  15
BRANCH   1  32
ATOM     27  C   UNL     1       8.241   1.575  22.982  0.00  0.00    +0.142 A 
ATOM     28  C   UNL     1       8.361   2.901  22.535  0.00  0.00    +0.052 A 
ATOM     29  C   UNL     1       8.386   3.974  23.436  0.00  0.00    -0.023 A 
ATOM     30  C   UNL     1       8.335   3.686  24.806  0.00  0.00    +0.007 A 
ATOM     31  C   UNL     1       8.222   2.367  25.256  0.00  0.00    +0.027 A 
ATOM     32  C   UNL     1       8.130   1.295  24.359  0.00  0.00    +0.076 A 
BRANCH  27  34
ATOM     33  C   UNL     1       9.476   0.114  21.595  0.00  0.00    +0.277 C 
ATOM     34  O   UNL     1       8.210   0.499  22.122  0.00  0.00    -0.493 OA
ENDBRANCH  27  34
BRANCH  29  35
ATOM     35  C   UNL     1       8.559   5.396  22.968  0.00  0.00    +0.200 C 
BRANCH  35  36
ATOM     36  S   UNL     1       7.025   6.317  22.941  0.00  0.00    -0.030 S 
ATOM     37  O   UNL     1       6.947   7.107  21.726  0.00  0.00    -0.174 OA
ATOM     38  O   UNL     1       6.904   6.975  24.231  0.00  0.00    -0.174 OA
ATOM     39  C   UNL     1       5.742   5.085  22.879  0.00  0.00    +0.194 C 
ENDBRANCH  35  36
ENDBRANCH  29  35
ENDBRANCH   1  32
TORSDOF 6
ENDMDL
MODEL 9
REMARK VINA RESULT:      -6.3      1.545      2.143
REMARK  Name = 
REMARK  8 active torsions:
REMARK  status: ('A' for Active; 'I' for Inactive)
REMARK    1  A    between atoms: C_1  and  O_2
REMARK    2  A    between atoms: O_2  and  C_3
REMARK    3  A    between atoms: C_4  and  N_5
REMARK    4  A    between atoms: N_14  and  C_15
REMARK    5  A    between atoms: C_21  and  C_22
REMARK    6  A    between atoms: C_28  and  C_29
REMARK    7  A    between atoms: C_29  and  S_30
REMARK    8  A    between atoms: S_30  and  C_31
REMARK                            x       y       z     vdW  Elec       q    Type
REMARK                         _______ _______ _______ _____ _____    ______ ____
ROOT
ATOM      1  N   UNL     1       6.032  -1.005  24.349  0.00  0.00    -0.281 N 
ATOM      2  H   UNL     1       5.470  -0.878  25.179  0.00  0.00    +0.155 HD
ATOM      3  C   UNL     1       5.973  -2.315  23.878  0.00  0.00    +0.223 A 
ATOM      4  N   UNL     1       5.396  -3.210  24.707  0.00  0.00    -0.198 NA
ATOM      5  C   UNL     1       5.205  -4.508  24.320  0.00  0.00    +0.137 A 
ATOM      6  N   UNL     1       4.686  -5.453  25.228  0.00  0.00    -0.298 N 
ATOM      7  H   UNL     1       3.848  -5.925  24.875  0.00  0.00    +0.154 HD
ATOM      8  C   UNL     1       5.584  -4.852  23.017  0.00  0.00    +0.059 A 
ATOM      9  C   UNL     1       5.590  -6.023  22.205  0.00  0.00    +0.032 A 
ATOM     10  C   UNL     1       6.149  -5.689  20.988  0.00  0.00    +0.085 A 
ATOM     11  N   UNL     1       6.496  -4.364  21.040  0.00  0.00    -0.346 N 
ATOM     12  H   UNL     1       6.928  -3.824  20.304  0.00  0.00    +0.167 HD
ATOM     13  C   UNL     1       6.179  -3.852  22.268  0.00  0.00    +0.145 A 
ATOM     14  N   UNL     1       6.423  -2.593  22.645  0.00  0.00    -0.196 NA
ENDROOT
BRANCH   6  15
ATOM     15  C   UNL     1       4.747  -5.352  26.639  0.00  0.00    +0.047 A 
ATOM     16  C   UNL     1       3.749  -4.729  27.423  0.00  0.00    +0.093 A 
ATOM     17  C   UNL     1       3.958  -4.621  28.809  0.00  0.00    +0.137 A 
ATOM     18  F   UNL     1       3.058  -4.017  29.603  0.00  0.00    -0.205 F 
ATOM     19  C   UNL     1       5.101  -5.126  29.425  0.00  0.00    +0.039 A 
ATOM     20  C   UNL     1       6.060  -5.778  28.668  0.00  0.00    +0.005 A 
ATOM     21  C   UNL     1       5.877  -5.891  27.292  0.00  0.00    +0.024 A 
BRANCH  16  22
ATOM     22  C   UNL     1       2.506  -4.199  26.797  0.00  0.00    +0.246 C 
ATOM     23  O   UNL     1       1.456  -4.837  26.811  0.00  0.00    -0.270 OA
ATOM     24  N   UNL     1       2.547  -2.965  26.207  0.00  0.00    -0.325 N 
ATOM     25  H   UNL     1       1.704  -2.596  25.790  0.00  0.00    +0.145 HD
ATOM     26  H   UNL     1       3.383  -2.391  26.185  0.00  0.00    +0.145 HD
ENDBRANCH  16  22
ENDBRANCH   6  15
BRANCH   1  32
ATOM     27  C   UNL     1       8.250   0.014  24.523  0.00  0.00    +0.142 A 
ATOM     28  C   UNL     1       9.138   1.053  24.204  0.00  0.00    +0.052 A 
ATOM     29  C   UNL     1       8.730   2.149  23.430  0.00  0.00    -0.023 A 
ATOM     30  C   UNL     1       7.392   2.205  23.021  0.00  0.00    +0.007 A 
ATOM     31  C   UNL     1       6.502   1.175  23.342  0.00  0.00    +0.027 A 
ATOM     32  C   UNL     1       6.919   0.046  24.057  0.00  0.00    +0.076 A 
BRANCH  27  34
ATOM     33  C   UNL     1       9.499  -1.990  24.624  0.00  0.00    +0.277 C 
ATOM     34  O   UNL     1       8.621  -1.078  25.277  0.00  0.00    -0.493 OA
ENDBRANCH  27  34
BRANCH  29  35
ATOM     35  C   UNL     1       9.664   3.289  23.120  0.00  0.00    +0.200 C 
BRANCH  35  36
ATOM     36  S   UNL     1       9.326   4.756  24.088  0.00  0.00    -0.030 S 
ATOM     37  O   UNL     1      10.534   5.550  24.216  0.00  0.00    -0.174 OA
ATOM     38  O   UNL     1       8.627   4.321  25.285  0.00  0.00    -0.174 OA
ATOM     39  C   UNL     1       8.154   5.689  23.128  0.00  0.00    +0.194 C 
ENDBRANCH  35  36
ENDBRANCH  29  35
ENDBRANCH   1  32
TORSDOF 6
ENDMDL
