MODEL 1
REMARK VINA RESULT:      -4.6      0.000      0.000
REMARK  Name = 
REMARK  1 active torsions:
REMARK  status: ('A' for Active; 'I' for Inactive)
REMARK    1  A    between atoms: N_1  and  C_2
REMARK                            x       y       z     vdW  Elec       q    Type
REMARK                         _______ _______ _______ _____ _____    ______ ____
ROOT
ATOM      1  C   UNL     1       9.012  -2.287  23.973  0.00  0.00    +0.292 C 
ATOM      2  N   UNL     1       9.059  -1.824  22.577  0.00  0.00    -0.241 NA
ATOM      3  C   UNL     1       9.418  -0.596  22.698  0.00  0.00    +0.087 A 
ATOM      4  C   UNL     1       9.676  -0.240  24.107  0.00  0.00    +0.087 A 
ATOM      5  C   UNL     1      10.129   1.114  24.437  0.00  0.00    +0.029 A 
ATOM      6  C   UNL     1      10.279   1.978  23.423  0.00  0.00    +0.002 A 
ATOM      7  C   UNL     1      10.020   1.630  22.038  0.00  0.00    +0.002 A 
ATOM      8  C   UNL     1       9.612   0.413  21.651  0.00  0.00    +0.029 A 
ATOM      9  N   UNL     1       9.481  -1.239  24.894  0.00  0.00    -0.241 NA
ENDROOT
BRANCH   1  10
ATOM     10  N   UNL     1       9.846  -3.441  24.138  0.00  0.00    -0.291 NA
ATOM     11  H   UNL     1      10.599  -3.165  24.760  0.00  0.00    +0.122 HD
ATOM     12  H   UNL     1       9.291  -4.115  24.660  0.00  0.00    +0.122 HD
ENDBRANCH   1  10
TORSDOF 1
ENDMDL
MODEL 2
REMARK VINA RESULT:      -4.6      0.926      2.095
REMARK  Name = 
REMARK  1 active torsions:
REMARK  status: ('A' for Active; 'I' for Inactive)
REMARK    1  A    between atoms: N_1  and  C_2
REMARK                            x       y       z     vdW  Elec       q    Type
REMARK                         _______ _______ _______ _____ _____    ______ ____
ROOT
ATOM      1  C   UNL     1       9.413  -2.288  22.912  0.00  0.00    +0.292 C 
ATOM      2  N   UNL     1       9.906  -1.631  24.133  0.00  0.00    -0.241 NA
ATOM      3  C   UNL     1      10.063  -0.412  23.755  0.00  0.00    +0.087 A 
ATOM      4  C   UNL     1       9.635  -0.217  22.356  0.00  0.00    +0.087 A 
ATOM      5  C   UNL     1       9.711   1.120  21.759  0.00  0.00    +0.029 A 
ATOM      6  C   UNL     1      10.182   2.112  22.527  0.00  0.00    +0.002 A 
ATOM      7  C   UNL     1      10.609   1.918  23.901  0.00  0.00    +0.002 A 
ATOM      8  C   UNL     1      10.564   0.732  24.523  0.00  0.00    +0.029 A 
ATOM      9  N   UNL     1       9.203  -1.310  21.832  0.00  0.00    -0.241 NA
ENDROOT
BRANCH   1  10
ATOM     10  N   UNL     1       8.167  -2.946  23.174  0.00  0.00    -0.291 NA
ATOM     11  H   UNL     1       7.653  -2.346  23.810  0.00  0.00    +0.122 HD
ATOM     12  H   UNL     1       7.651  -2.927  22.299  0.00  0.00    +0.122 HD
ENDBRANCH   1  10
TORSDOF 1
ENDMDL
MODEL 3
REMARK VINA RESULT:      -4.5      2.471      4.136
REMARK  Name = 
REMARK  1 active torsions:
REMARK  status: ('A' for Active; 'I' for Inactive)
REMARK    1  A    between atoms: N_1  and  C_2
REMARK                            x       y       z     vdW  Elec       q    Type
REMARK                         _______ _______ _______ _____ _____    ______ ____
ROOT
ATOM      1  C   UNL     1      10.052   2.740  23.295  0.00  0.00    +0.292 C 
ATOM      2  N   UNL     1      10.298   1.736  24.341  0.00  0.00    -0.241 NA
ATOM      3  C   UNL     1      10.069   0.628  23.732  0.00  0.00    +0.087 A 
ATOM      4  C   UNL     1       9.744   0.847  22.308  0.00  0.00    +0.087 A 
ATOM      5  C   UNL     1       9.482  -0.307  21.443  0.00  0.00    +0.029 A 
ATOM      6  C   UNL     1       9.545  -1.524  22.002  0.00  0.00    +0.002 A 
ATOM      7  C   UNL     1       9.859  -1.738  23.403  0.00  0.00    +0.002 A 
ATOM      8  C   UNL     1      10.118  -0.740  24.259  0.00  0.00    +0.029 A 
ATOM      9  N   UNL     1       9.763   2.096  22.002  0.00  0.00    -0.241 NA
ENDROOT
BRANCH   1  10
ATOM     10  N   UNL     1      11.202   3.579  23.134  0.00  0.00    -0.291 NA
ATOM     11  H   UNL     1      11.147   3.968  22.199  0.00  0.00    +0.122 HD
ATOM     12  H   UNL     1      11.067   4.363  23.767  0.00  0.00    +0.122 HD
ENDBRANCH   1  10
TORSDOF 1
ENDMDL
MODEL 4
REMARK VINA RESULT:      -4.5      2.395      3.699
REMARK  Name = 
REMARK  1 active torsions:
REMARK  status: ('A' for Active; 'I' for Inactive)
REMARK    1  A    between atoms: N_1  and  C_2
REMARK                            x       y       z     vdW  Elec       q    Type
REMARK                         _______ _______ _______ _____ _____    ______ ____
ROOT
ATOM      1  C   UNL     1      10.511   2.583  23.090  0.00  0.00    +0.292 C 
ATOM      2  N   UNL     1      10.078   1.890  21.866  0.00  0.00    -0.241 NA
ATOM      3  C   UNL     1       9.918   0.679  22.267  0.00  0.00    +0.087 A 
ATOM      4  C   UNL     1      10.161   0.549  23.717  0.00  0.00    +0.087 A 
ATOM      5  C   UNL     1       9.995  -0.757  24.361  0.00  0.00    +0.029 A 
ATOM      6  C   UNL     1       9.631  -1.786  23.583  0.00  0.00    +0.002 A 
ATOM      7  C   UNL     1       9.397  -1.659  22.156  0.00  0.00    +0.002 A 
ATOM      8  C   UNL     1       9.520  -0.501  21.493  0.00  0.00    +0.029 A 
ATOM      9  N   UNL     1      10.481   1.676  24.250  0.00  0.00    -0.241 NA
ENDROOT
BRANCH   1  10
ATOM     10  N   UNL     1       9.646   3.692  23.362  0.00  0.00    -0.291 NA
ATOM     11  H   UNL     1       9.603   4.240  22.509  0.00  0.00    +0.122 HD
ATOM     12  H   UNL     1       8.716   3.299  23.483  0.00  0.00    +0.122 HD
ENDBRANCH   1  10
TORSDOF 1
ENDMDL
MODEL 5
REMARK VINA RESULT:      -4.4      2.289      4.880
REMARK  Name = 
REMARK  1 active torsions:
REMARK  status: ('A' for Active; 'I' for Inactive)
REMARK    1  A    between atoms: N_1  and  C_2
REMARK                            x       y       z     vdW  Elec       q    Type
REMARK                         _______ _______ _______ _____ _____    ______ ____
ROOT
ATOM      1  C   UNL     1       9.304  -1.553  22.655  0.00  0.00    +0.292 C 
ATOM      2  N   UNL     1      10.030  -2.277  23.711  0.00  0.00    -0.241 NA
ATOM      3  C   UNL     1       9.205  -3.208  24.035  0.00  0.00    +0.087 A 
ATOM      4  C   UNL     1       7.991  -3.176  23.196  0.00  0.00    +0.087 A 
ATOM      5  C   UNL     1       6.947  -4.185  23.399  0.00  0.00    +0.029 A 
ATOM      6  C   UNL     1       7.151  -5.098  24.360  0.00  0.00    +0.002 A 
ATOM      7  C   UNL     1       8.343  -5.126  25.187  0.00  0.00    +0.002 A 
ATOM      8  C   UNL     1       9.346  -4.246  25.061  0.00  0.00    +0.029 A 
ATOM      9  N   UNL     1       8.033  -2.222  22.333  0.00  0.00    -0.241 NA
ENDROOT
BRANCH   1  10
ATOM     10  N   UNL     1      10.097  -1.493  21.463  0.00  0.00    -0.291 NA
ATOM     11  H   UNL     1       9.703  -0.753  20.892  0.00  0.00    +0.122 HD
ATOM     12  H   UNL     1      11.013  -1.159  21.752  0.00  0.00    +0.122 HD
ENDBRANCH   1  10
TORSDOF 1
ENDMDL
MODEL 6
REMARK VINA RESULT:      -4.2      2.010      3.434
REMARK  Name = 
REMARK  1 active torsions:
REMARK  status: ('A' for Active; 'I' for Inactive)
REMARK    1  A    between atoms: N_1  and  C_2
REMARK                            x       y       z     vdW  Elec       q    Type
REMARK                         _______ _______ _______ _____ _____    ______ ____
ROOT
ATOM      1  C   UNL     1      10.486  -1.631  22.702  0.00  0.00    +0.292 C 
ATOM      2  N   UNL     1       9.817  -2.783  23.326  0.00  0.00    -0.241 NA
ATOM      3  C   UNL     1       9.361  -2.288  24.421  0.00  0.00    +0.087 A 
ATOM      4  C   UNL     1       9.640  -0.842  24.522  0.00  0.00    +0.087 A 
ATOM      5  C   UNL     1       9.166  -0.097  25.692  0.00  0.00    +0.029 A 
ATOM      6  C   UNL     1       8.498  -0.782  26.630  0.00  0.00    +0.002 A 
ATOM      7  C   UNL     1       8.228  -2.205  26.533  0.00  0.00    +0.002 A 
ATOM      8  C   UNL     1       8.620  -2.957  25.495  0.00  0.00    +0.029 A 
ATOM      9  N   UNL     1      10.278  -0.406  23.493  0.00  0.00    -0.241 NA
ENDROOT
BRANCH   1  10
ATOM     10  N   UNL     1       9.965  -1.412  21.385  0.00  0.00    -0.291 NA
ATOM     11  H   UNL     1      10.096  -0.426  21.184  0.00  0.00    +0.122 HD
ATOM     12  H   UNL     1      10.588  -1.907  20.752  0.00  0.00    +0.122 HD
ENDBRANCH   1  10
TORSDOF 1
ENDMDL
MODEL 7
REMARK VINA RESULT:      -4.2      2.198      3.880
REMARK  Name = 
REMARK  1 active torsions:
REMARK  status: ('A' for Active; 'I' for Inactive)
REMARK    1  A    between atoms: N_1  and  C_2
REMARK                            x       y       z     vdW  Elec       q    Type
REMARK                         _______ _______ _______ _____ _____    ______ ____
ROOT
ATOM      1  C   UNL     1       8.952   0.992  21.636  0.00  0.00    +0.292 C 
ATOM      2  N   UNL     1       8.161   1.005  22.877  0.00  0.00    -0.241 NA
ATOM      3  C   UNL     1       8.483  -0.110  23.429  0.00  0.00    +0.087 A 
ATOM      4  C   UNL     1       9.503  -0.833  22.643  0.00  0.00    +0.087 A 
ATOM      5  C   UNL     1      10.018  -2.114  23.135  0.00  0.00    +0.029 A 
ATOM      6  C   UNL     1       9.521  -2.575  24.292  0.00  0.00    +0.002 A 
ATOM      7  C   UNL     1       8.515  -1.866  25.062  0.00  0.00    +0.002 A 
ATOM      8  C   UNL     1       7.998  -0.688  24.686  0.00  0.00    +0.029 A 
ATOM      9  N   UNL     1       9.835  -0.184  21.583  0.00  0.00    -0.241 NA
ENDROOT
BRANCH   1  10
ATOM     10  N   UNL     1       9.764   2.171  21.556  0.00  0.00    -0.291 NA
ATOM     11  H   UNL     1       9.664   2.650  22.444  0.00  0.00    +0.122 HD
ATOM     12  H   UNL     1      10.726   1.846  21.524  0.00  0.00    +0.122 HD
ENDBRANCH   1  10
TORSDOF 1
ENDMDL
MODEL 8
REMARK VINA RESULT:      -4.2      3.417      4.770
REMARK  Name = 
REMARK  1 active torsions:
REMARK  status: ('A' for Active; 'I' for Inactive)
REMARK    1  A    between atoms: N_1  and  C_2
REMARK                            x       y       z     vdW  Elec       q    Type
REMARK                         _______ _______ _______ _____ _____    ______ ____
ROOT
ATOM      1  C   UNL     1       7.262   3.630  22.505  0.00  0.00    +0.292 C 
ATOM      2  N   UNL     1       8.221   3.565  23.619  0.00  0.00    -0.241 NA
ATOM      3  C   UNL     1       8.893   2.502  23.353  0.00  0.00    +0.087 A 
ATOM      4  C   UNL     1       8.468   1.894  22.077  0.00  0.00    +0.087 A 
ATOM      5  C   UNL     1       9.146   0.688  21.592  0.00  0.00    +0.029 A 
ATOM      6  C   UNL     1      10.131   0.187  22.351  0.00  0.00    +0.002 A 
ATOM      7  C   UNL     1      10.545   0.783  23.608  0.00  0.00    +0.002 A 
ATOM      8  C   UNL     1       9.983   1.888  24.118  0.00  0.00    +0.029 A 
ATOM      9  N   UNL     1       7.520   2.564  21.522  0.00  0.00    -0.241 NA
ENDROOT
BRANCH   1  10
ATOM     10  N   UNL     1       7.365   4.894  21.837  0.00  0.00    -0.291 NA
ATOM     11  H   UNL     1       6.795   5.546  22.366  0.00  0.00    +0.122 HD
ATOM     12  H   UNL     1       8.326   5.201  21.966  0.00  0.00    +0.122 HD
ENDBRANCH   1  10
TORSDOF 1
ENDMDL
MODEL 9
REMARK VINA RESULT:      -4.1      1.499      2.095
REMARK  Name = 
REMARK  1 active torsions:
REMARK  status: ('A' for Active; 'I' for Inactive)
REMARK    1  A    between atoms: N_1  and  C_2
REMARK                            x       y       z     vdW  Elec       q    Type
REMARK                         _______ _______ _______ _____ _____    ______ ____
ROOT
ATOM      1  C   UNL     1       9.561  -2.377  24.207  0.00  0.00    +0.292 C 
ATOM      2  N   UNL     1       8.334  -1.619  24.497  0.00  0.00    -0.241 NA
ATOM      3  C   UNL     1       8.356  -0.691  23.608  0.00  0.00    +0.087 A 
ATOM      4  C   UNL     1       9.510  -0.837  22.698  0.00  0.00    +0.087 A 
ATOM      5  C   UNL     1       9.684   0.115  21.597  0.00  0.00    +0.029 A 
ATOM      6  C   UNL     1       8.774   1.092  21.477  0.00  0.00    +0.002 A 
ATOM      7  C   UNL     1       7.643   1.238  22.375  0.00  0.00    +0.002 A 
ATOM      8  C   UNL     1       7.407   0.407  23.400  0.00  0.00    +0.029 A 
ATOM      9  N   UNL     1      10.231  -1.858  23.003  0.00  0.00    -0.241 NA
ENDROOT
BRANCH   1  10
ATOM     10  N   UNL     1       9.248  -3.759  23.989  0.00  0.00    -0.291 NA
ATOM     11  H   UNL     1       8.462  -3.779  23.349  0.00  0.00    +0.122 HD
ATOM     12  H   UNL     1      10.034  -4.146  23.473  0.00  0.00    +0.122 HD
ENDBRANCH   1  10
TORSDOF 1
ENDMDL
