MODEL 1
REMARK VINA RESULT:     -12.2      0.000      0.000
REMARK  Name = 
REMARK  2 active torsions:
REMARK  status: ('A' for Active; 'I' for Inactive)
REMARK    1  A    between atoms: C_7  and  C_8
REMARK    2  A    between atoms: C_24  and  C_25
REMARK                            x       y       z     vdW  Elec       q    Type
REMARK                         _______ _______ _______ _____ _____    ______ ____
ROOT
ATOM      1  C   UNL     1      12.922   5.134  23.149  0.00  0.00    +0.006 C 
ATOM      2  C   UNL     1      12.922   5.134  23.149  0.00  0.00    -0.003 C 
ATOM      3  C   UNL     1      12.922   5.134  23.149  0.00  0.00    +0.004 C 
ATOM      4  C   UNL     1      12.922   5.134  23.149  0.00  0.00    +0.005 C 
ATOM      5  C   UNL     1      12.922   5.134  23.149  0.00  0.00    +0.002 C 
ATOM      6  C   UNL     1      12.922   5.134  23.149  0.00  0.00    -0.025 C 
ATOM      7  C   UNL     1      12.922   5.134  23.149  0.00  0.00    +0.012 C 
ATOM      8  C   UNL     1      12.922   5.134  23.149  0.00  0.00    +0.015 C 
ATOM      9  C   UNL     1      12.922   5.134  23.149  0.00  0.00    +0.075 C 
ATOM     10  C   UNL     1      12.922   5.134  23.149  0.00  0.00    +0.134 C 
ATOM     11  O   UNL     1      12.922   5.134  23.149  0.00  0.00    -0.297 OA
ATOM     12  C   UNL     1      12.922   5.134  23.149  0.00  0.00    +0.078 C 
ATOM     13  C   UNL     1      12.922   5.134  23.149  0.00  0.00    -0.001 C 
ATOM     14  C   UNL     1      12.922   5.134  23.149  0.00  0.00    +0.005 C 
ATOM     15  C   UNL     1      12.922   5.134  23.149  0.00  0.00    +0.015 C 
ATOM     16  C   UNL     1      12.922   5.134  23.149  0.00  0.00    +0.029 C 
ATOM     17  C   UNL     1      12.922   5.134  23.149  0.00  0.00    +0.019 C 
ATOM     18  C   UNL     1      12.922   5.134  23.149  0.00  0.00    +0.139 C 
ATOM     19  O   UNL     1      12.922   5.134  23.149  0.00  0.00    -0.297 OA
ATOM     20  C   UNL     1      12.922   5.134  23.149  0.00  0.00    +0.075 C 
ATOM     21  C   UNL     1      12.922   5.134  23.149  0.00  0.00    +0.012 C 
ENDROOT
TORSDOF 0
ENDMDL
MODEL 2
REMARK VINA RESULT:     -11.7     12.888     12.888
REMARK  Name = 
REMARK  2 active torsions:
REMARK  status: ('A' for Active; 'I' for Inactive)
REMARK    1  A    between atoms: C_7  and  C_8
REMARK    2  A    between atoms: C_24  and  C_25
REMARK                            x       y       z     vdW  Elec       q    Type
REMARK                         _______ _______ _______ _____ _____    ______ ____
ROOT
ATOM      1  C   UNL     1       6.244  -5.681  21.021  0.00  0.00    +0.006 C 
ATOM      2  C   UNL     1       6.244  -5.681  21.021  0.00  0.00    -0.003 C 
ATOM      3  C   UNL     1       6.244  -5.681  21.021  0.00  0.00    +0.004 C 
ATOM      4  C   UNL     1       6.244  -5.681  21.021  0.00  0.00    +0.005 C 
ATOM      5  C   UNL     1       6.244  -5.681  21.021  0.00  0.00    +0.002 C 
ATOM      6  C   UNL     1       6.244  -5.681  21.021  0.00  0.00    -0.025 C 
ATOM      7  C   UNL     1       6.244  -5.681  21.021  0.00  0.00    +0.012 C 
ATOM      8  C   UNL     1       6.244  -5.681  21.021  0.00  0.00    +0.015 C 
ATOM      9  C   UNL     1       6.244  -5.681  21.021  0.00  0.00    +0.075 C 
ATOM     10  C   UNL     1       6.244  -5.681  21.021  0.00  0.00    +0.134 C 
ATOM     11  O   UNL     1       6.244  -5.681  21.021  0.00  0.00    -0.297 OA
ATOM     12  C   UNL     1       6.244  -5.681  21.021  0.00  0.00    +0.078 C 
ATOM     13  C   UNL     1       6.244  -5.681  21.021  0.00  0.00    -0.001 C 
ATOM     14  C   UNL     1       6.244  -5.681  21.021  0.00  0.00    +0.005 C 
ATOM     15  C   UNL     1       6.244  -5.681  21.021  0.00  0.00    +0.015 C 
ATOM     16  C   UNL     1       6.244  -5.681  21.021  0.00  0.00    +0.029 C 
ATOM     17  C   UNL     1       6.244  -5.681  21.021  0.00  0.00    +0.019 C 
ATOM     18  C   UNL     1       6.244  -5.681  21.021  0.00  0.00    +0.139 C 
ATOM     19  O   UNL     1       6.244  -5.681  21.021  0.00  0.00    -0.297 OA
ATOM     20  C   UNL     1       6.244  -5.681  21.021  0.00  0.00    +0.075 C 
ATOM     21  C   UNL     1       6.244  -5.681  21.021  0.00  0.00    +0.012 C 
ENDROOT
TORSDOF 0
ENDMDL
MODEL 3
REMARK VINA RESULT:     -11.5      4.776      4.776
REMARK  Name = 
REMARK  2 active torsions:
REMARK  status: ('A' for Active; 'I' for Inactive)
REMARK    1  A    between atoms: C_7  and  C_8
REMARK    2  A    between atoms: C_24  and  C_25
REMARK                            x       y       z     vdW  Elec       q    Type
REMARK                         _______ _______ _______ _____ _____    ______ ____
ROOT
ATOM      1  C   UNL     1       9.946   1.573  22.022  0.00  0.00    +0.006 C 
ATOM      2  C   UNL     1       9.946   1.573  22.022  0.00  0.00    -0.003 C 
ATOM      3  C   UNL     1       9.946   1.573  22.022  0.00  0.00    +0.004 C 
ATOM      4  C   UNL     1       9.946   1.573  22.022  0.00  0.00    +0.005 C 
ATOM      5  C   UNL     1       9.946   1.573  22.022  0.00  0.00    +0.002 C 
ATOM      6  C   UNL     1       9.946   1.573  22.022  0.00  0.00    -0.025 C 
ATOM      7  C   UNL     1       9.946   1.573  22.022  0.00  0.00    +0.012 C 
ATOM      8  C   UNL     1       9.946   1.573  22.022  0.00  0.00    +0.015 C 
ATOM      9  C   UNL     1       9.946   1.573  22.022  0.00  0.00    +0.075 C 
ATOM     10  C   UNL     1       9.946   1.573  22.022  0.00  0.00    +0.134 C 
ATOM     11  O   UNL     1       9.946   1.573  22.022  0.00  0.00    -0.297 OA
ATOM     12  C   UNL     1       9.946   1.573  22.022  0.00  0.00    +0.078 C 
ATOM     13  C   UNL     1       9.946   1.573  22.022  0.00  0.00    -0.001 C 
ATOM     14  C   UNL     1       9.946   1.573  22.022  0.00  0.00    +0.005 C 
ATOM     15  C   UNL     1       9.946   1.573  22.022  0.00  0.00    +0.015 C 
ATOM     16  C   UNL     1       9.946   1.573  22.022  0.00  0.00    +0.029 C 
ATOM     17  C   UNL     1       9.946   1.573  22.022  0.00  0.00    +0.019 C 
ATOM     18  C   UNL     1       9.946   1.573  22.022  0.00  0.00    +0.139 C 
ATOM     19  O   UNL     1       9.946   1.573  22.022  0.00  0.00    -0.297 OA
ATOM     20  C   UNL     1       9.946   1.573  22.022  0.00  0.00    +0.075 C 
ATOM     21  C   UNL     1       9.946   1.573  22.022  0.00  0.00    +0.012 C 
ENDROOT
TORSDOF 0
ENDMDL
MODEL 4
REMARK VINA RESULT:     -11.5     10.363     10.363
REMARK  Name = 
REMARK  2 active torsions:
REMARK  status: ('A' for Active; 'I' for Inactive)
REMARK    1  A    between atoms: C_7  and  C_8
REMARK    2  A    between atoms: C_24  and  C_25
REMARK                            x       y       z     vdW  Elec       q    Type
REMARK                         _______ _______ _______ _____ _____    ______ ____
ROOT
ATOM      1  C   UNL     1      20.589  -1.559  25.101  0.00  0.00    +0.006 C 
ATOM      2  C   UNL     1      20.589  -1.559  25.101  0.00  0.00    -0.003 C 
ATOM      3  C   UNL     1      20.589  -1.559  25.101  0.00  0.00    +0.004 C 
ATOM      4  C   UNL     1      20.589  -1.559  25.101  0.00  0.00    +0.005 C 
ATOM      5  C   UNL     1      20.589  -1.559  25.101  0.00  0.00    +0.002 C 
ATOM      6  C   UNL     1      20.589  -1.559  25.101  0.00  0.00    -0.025 C 
ATOM      7  C   UNL     1      20.589  -1.559  25.101  0.00  0.00    +0.012 C 
ATOM      8  C   UNL     1      20.589  -1.559  25.101  0.00  0.00    +0.015 C 
ATOM      9  C   UNL     1      20.589  -1.559  25.101  0.00  0.00    +0.075 C 
ATOM     10  C   UNL     1      20.589  -1.559  25.101  0.00  0.00    +0.134 C 
ATOM     11  O   UNL     1      20.589  -1.559  25.101  0.00  0.00    -0.297 OA
ATOM     12  C   UNL     1      20.589  -1.559  25.101  0.00  0.00    +0.078 C 
ATOM     13  C   UNL     1      20.589  -1.559  25.101  0.00  0.00    -0.001 C 
ATOM     14  C   UNL     1      20.589  -1.559  25.101  0.00  0.00    +0.005 C 
ATOM     15  C   UNL     1      20.589  -1.559  25.101  0.00  0.00    +0.015 C 
ATOM     16  C   UNL     1      20.589  -1.559  25.101  0.00  0.00    +0.029 C 
ATOM     17  C   UNL     1      20.589  -1.559  25.101  0.00  0.00    +0.019 C 
ATOM     18  C   UNL     1      20.589  -1.559  25.101  0.00  0.00    +0.139 C 
ATOM     19  O   UNL     1      20.589  -1.559  25.101  0.00  0.00    -0.297 OA
ATOM     20  C   UNL     1      20.589  -1.559  25.101  0.00  0.00    +0.075 C 
ATOM     21  C   UNL     1      20.589  -1.559  25.101  0.00  0.00    +0.012 C 
ENDROOT
TORSDOF 0
ENDMDL
MODEL 5
REMARK VINA RESULT:     -11.4      5.261      5.261
REMARK  Name = 
REMARK  2 active torsions:
REMARK  status: ('A' for Active; 'I' for Inactive)
REMARK    1  A    between atoms: C_7  and  C_8
REMARK    2  A    between atoms: C_24  and  C_25
REMARK                            x       y       z     vdW  Elec       q    Type
REMARK                         _______ _______ _______ _____ _____    ______ ____
ROOT
ATOM      1  C   UNL     1      10.793   0.579  24.697  0.00  0.00    +0.006 C 
ATOM      2  C   UNL     1      10.793   0.579  24.697  0.00  0.00    -0.003 C 
ATOM      3  C   UNL     1      10.793   0.579  24.697  0.00  0.00    +0.004 C 
ATOM      4  C   UNL     1      10.793   0.579  24.697  0.00  0.00    +0.005 C 
ATOM      5  C   UNL     1      10.793   0.579  24.697  0.00  0.00    +0.002 C 
ATOM      6  C   UNL     1      10.793   0.579  24.697  0.00  0.00    -0.025 C 
ATOM      7  C   UNL     1      10.793   0.579  24.697  0.00  0.00    +0.012 C 
ATOM      8  C   UNL     1      10.793   0.579  24.697  0.00  0.00    +0.015 C 
ATOM      9  C   UNL     1      10.793   0.579  24.697  0.00  0.00    +0.075 C 
ATOM     10  C   UNL     1      10.793   0.579  24.697  0.00  0.00    +0.134 C 
ATOM     11  O   UNL     1      10.793   0.579  24.697  0.00  0.00    -0.297 OA
ATOM     12  C   UNL     1      10.793   0.579  24.697  0.00  0.00    +0.078 C 
ATOM     13  C   UNL     1      10.793   0.579  24.697  0.00  0.00    -0.001 C 
ATOM     14  C   UNL     1      10.793   0.579  24.697  0.00  0.00    +0.005 C 
ATOM     15  C   UNL     1      10.793   0.579  24.697  0.00  0.00    +0.015 C 
ATOM     16  C   UNL     1      10.793   0.579  24.697  0.00  0.00    +0.029 C 
ATOM     17  C   UNL     1      10.793   0.579  24.697  0.00  0.00    +0.019 C 
ATOM     18  C   UNL     1      10.793   0.579  24.697  0.00  0.00    +0.139 C 
ATOM     19  O   UNL     1      10.793   0.579  24.697  0.00  0.00    -0.297 OA
ATOM     20  C   UNL     1      10.793   0.579  24.697  0.00  0.00    +0.075 C 
ATOM     21  C   UNL     1      10.793   0.579  24.697  0.00  0.00    +0.012 C 
ENDROOT
TORSDOF 0
ENDMDL
MODEL 6
REMARK VINA RESULT:     -11.3      6.435      6.435
REMARK  Name = 
REMARK  2 active torsions:
REMARK  status: ('A' for Active; 'I' for Inactive)
REMARK    1  A    between atoms: C_7  and  C_8
REMARK    2  A    between atoms: C_24  and  C_25
REMARK                            x       y       z     vdW  Elec       q    Type
REMARK                         _______ _______ _______ _____ _____    ______ ____
ROOT
ATOM      1  C   UNL     1       9.443  -0.017  21.485  0.00  0.00    +0.006 C 
ATOM      2  C   UNL     1       9.443  -0.017  21.485  0.00  0.00    -0.003 C 
ATOM      3  C   UNL     1       9.443  -0.017  21.485  0.00  0.00    +0.004 C 
ATOM      4  C   UNL     1       9.443  -0.017  21.485  0.00  0.00    +0.005 C 
ATOM      5  C   UNL     1       9.443  -0.017  21.485  0.00  0.00    +0.002 C 
ATOM      6  C   UNL     1       9.443  -0.017  21.485  0.00  0.00    -0.025 C 
ATOM      7  C   UNL     1       9.443  -0.017  21.485  0.00  0.00    +0.012 C 
ATOM      8  C   UNL     1       9.443  -0.017  21.485  0.00  0.00    +0.015 C 
ATOM      9  C   UNL     1       9.443  -0.017  21.485  0.00  0.00    +0.075 C 
ATOM     10  C   UNL     1       9.443  -0.017  21.485  0.00  0.00    +0.134 C 
ATOM     11  O   UNL     1       9.443  -0.017  21.485  0.00  0.00    -0.297 OA
ATOM     12  C   UNL     1       9.443  -0.017  21.485  0.00  0.00    +0.078 C 
ATOM     13  C   UNL     1       9.443  -0.017  21.485  0.00  0.00    -0.001 C 
ATOM     14  C   UNL     1       9.443  -0.017  21.485  0.00  0.00    +0.005 C 
ATOM     15  C   UNL     1       9.443  -0.017  21.485  0.00  0.00    +0.015 C 
ATOM     16  C   UNL     1       9.443  -0.017  21.485  0.00  0.00    +0.029 C 
ATOM     17  C   UNL     1       9.443  -0.017  21.485  0.00  0.00    +0.019 C 
ATOM     18  C   UNL     1       9.443  -0.017  21.485  0.00  0.00    +0.139 C 
ATOM     19  O   UNL     1       9.443  -0.017  21.485  0.00  0.00    -0.297 OA
ATOM     20  C   UNL     1       9.443  -0.017  21.485  0.00  0.00    +0.075 C 
ATOM     21  C   UNL     1       9.443  -0.017  21.485  0.00  0.00    +0.012 C 
ENDROOT
TORSDOF 0
ENDMDL
MODEL 7
REMARK VINA RESULT:     -11.3      8.212      8.212
REMARK  Name = 
REMARK  2 active torsions:
REMARK  status: ('A' for Active; 'I' for Inactive)
REMARK    1  A    between atoms: C_7  and  C_8
REMARK    2  A    between atoms: C_24  and  C_25
REMARK                            x       y       z     vdW  Elec       q    Type
REMARK                         _______ _______ _______ _____ _____    ______ ____
ROOT
ATOM      1  C   UNL     1       9.866  -2.461  23.789  0.00  0.00    +0.006 C 
ATOM      2  C   UNL     1       9.866  -2.461  23.789  0.00  0.00    -0.003 C 
ATOM      3  C   UNL     1       9.866  -2.461  23.789  0.00  0.00    +0.004 C 
ATOM      4  C   UNL     1       9.866  -2.461  23.789  0.00  0.00    +0.005 C 
ATOM      5  C   UNL     1       9.866  -2.461  23.789  0.00  0.00    +0.002 C 
ATOM      6  C   UNL     1       9.866  -2.461  23.789  0.00  0.00    -0.025 C 
ATOM      7  C   UNL     1       9.866  -2.461  23.789  0.00  0.00    +0.012 C 
ATOM      8  C   UNL     1       9.866  -2.461  23.789  0.00  0.00    +0.015 C 
ATOM      9  C   UNL     1       9.866  -2.461  23.789  0.00  0.00    +0.075 C 
ATOM     10  C   UNL     1       9.866  -2.461  23.789  0.00  0.00    +0.134 C 
ATOM     11  O   UNL     1       9.866  -2.461  23.789  0.00  0.00    -0.297 OA
ATOM     12  C   UNL     1       9.866  -2.461  23.789  0.00  0.00    +0.078 C 
ATOM     13  C   UNL     1       9.866  -2.461  23.789  0.00  0.00    -0.001 C 
ATOM     14  C   UNL     1       9.866  -2.461  23.789  0.00  0.00    +0.005 C 
ATOM     15  C   UNL     1       9.866  -2.461  23.789  0.00  0.00    +0.015 C 
ATOM     16  C   UNL     1       9.866  -2.461  23.789  0.00  0.00    +0.029 C 
ATOM     17  C   UNL     1       9.866  -2.461  23.789  0.00  0.00    +0.019 C 
ATOM     18  C   UNL     1       9.866  -2.461  23.789  0.00  0.00    +0.139 C 
ATOM     19  O   UNL     1       9.866  -2.461  23.789  0.00  0.00    -0.297 OA
ATOM     20  C   UNL     1       9.866  -2.461  23.789  0.00  0.00    +0.075 C 
ATOM     21  C   UNL     1       9.866  -2.461  23.789  0.00  0.00    +0.012 C 
ENDROOT
TORSDOF 0
ENDMDL
MODEL 8
REMARK VINA RESULT:     -11.3      7.200      7.200
REMARK  Name = 
REMARK  2 active torsions:
REMARK  status: ('A' for Active; 'I' for Inactive)
REMARK    1  A    between atoms: C_7  and  C_8
REMARK    2  A    between atoms: C_24  and  C_25
REMARK                            x       y       z     vdW  Elec       q    Type
REMARK                         _______ _______ _______ _____ _____    ______ ____
ROOT
ATOM      1  C   UNL     1      10.290  -1.542  22.572  0.00  0.00    +0.006 C 
ATOM      2  C   UNL     1      10.290  -1.542  22.572  0.00  0.00    -0.003 C 
ATOM      3  C   UNL     1      10.290  -1.542  22.572  0.00  0.00    +0.004 C 
ATOM      4  C   UNL     1      10.290  -1.542  22.572  0.00  0.00    +0.005 C 
ATOM      5  C   UNL     1      10.290  -1.542  22.572  0.00  0.00    +0.002 C 
ATOM      6  C   UNL     1      10.290  -1.542  22.572  0.00  0.00    -0.025 C 
ATOM      7  C   UNL     1      10.290  -1.542  22.572  0.00  0.00    +0.012 C 
ATOM      8  C   UNL     1      10.290  -1.542  22.572  0.00  0.00    +0.015 C 
ATOM      9  C   UNL     1      10.290  -1.542  22.572  0.00  0.00    +0.075 C 
ATOM     10  C   UNL     1      10.290  -1.542  22.572  0.00  0.00    +0.134 C 
ATOM     11  O   UNL     1      10.290  -1.542  22.572  0.00  0.00    -0.297 OA
ATOM     12  C   UNL     1      10.290  -1.542  22.572  0.00  0.00    +0.078 C 
ATOM     13  C   UNL     1      10.290  -1.542  22.572  0.00  0.00    -0.001 C 
ATOM     14  C   UNL     1      10.290  -1.542  22.572  0.00  0.00    +0.005 C 
ATOM     15  C   UNL     1      10.290  -1.542  22.572  0.00  0.00    +0.015 C 
ATOM     16  C   UNL     1      10.290  -1.542  22.572  0.00  0.00    +0.029 C 
ATOM     17  C   UNL     1      10.290  -1.542  22.572  0.00  0.00    +0.019 C 
ATOM     18  C   UNL     1      10.290  -1.542  22.572  0.00  0.00    +0.139 C 
ATOM     19  O   UNL     1      10.290  -1.542  22.572  0.00  0.00    -0.297 OA
ATOM     20  C   UNL     1      10.290  -1.542  22.572  0.00  0.00    +0.075 C 
ATOM     21  C   UNL     1      10.290  -1.542  22.572  0.00  0.00    +0.012 C 
ENDROOT
TORSDOF 0
ENDMDL
MODEL 9
REMARK VINA RESULT:     -10.4     10.936     10.936
REMARK  Name = 
REMARK  2 active torsions:
REMARK  status: ('A' for Active; 'I' for Inactive)
REMARK    1  A    between atoms: C_7  and  C_8
REMARK    2  A    between atoms: C_24  and  C_25
REMARK                            x       y       z     vdW  Elec       q    Type
REMARK                         _______ _______ _______ _____ _____    ______ ____
ROOT
ATOM      1  C   UNL     1       9.680  -5.053  25.450  0.00  0.00    +0.006 C 
ATOM      2  C   UNL     1       9.680  -5.053  25.450  0.00  0.00    -0.003 C 
ATOM      3  C   UNL     1       9.680  -5.053  25.450  0.00  0.00    +0.004 C 
ATOM      4  C   UNL     1       9.680  -5.053  25.450  0.00  0.00    +0.005 C 
ATOM      5  C   UNL     1       9.680  -5.053  25.450  0.00  0.00    +0.002 C 
ATOM      6  C   UNL     1       9.680  -5.053  25.450  0.00  0.00    -0.025 C 
ATOM      7  C   UNL     1       9.680  -5.053  25.450  0.00  0.00    +0.012 C 
ATOM      8  C   UNL     1       9.680  -5.053  25.450  0.00  0.00    +0.015 C 
ATOM      9  C   UNL     1       9.680  -5.053  25.450  0.00  0.00    +0.075 C 
ATOM     10  C   UNL     1       9.680  -5.053  25.450  0.00  0.00    +0.134 C 
ATOM     11  O   UNL     1       9.680  -5.053  25.450  0.00  0.00    -0.297 OA
ATOM     12  C   UNL     1       9.680  -5.053  25.450  0.00  0.00    +0.078 C 
ATOM     13  C   UNL     1       9.680  -5.053  25.450  0.00  0.00    -0.001 C 
ATOM     14  C   UNL     1       9.680  -5.053  25.450  0.00  0.00    +0.005 C 
ATOM     15  C   UNL     1       9.680  -5.053  25.450  0.00  0.00    +0.015 C 
ATOM     16  C   UNL     1       9.680  -5.053  25.450  0.00  0.00    +0.029 C 
ATOM     17  C   UNL     1       9.680  -5.053  25.450  0.00  0.00    +0.019 C 
ATOM     18  C   UNL     1       9.680  -5.053  25.450  0.00  0.00    +0.139 C 
ATOM     19  O   UNL     1       9.680  -5.053  25.450  0.00  0.00    -0.297 OA
ATOM     20  C   UNL     1       9.680  -5.053  25.450  0.00  0.00    +0.075 C 
ATOM     21  C   UNL     1       9.680  -5.053  25.450  0.00  0.00    +0.012 C 
ENDROOT
TORSDOF 0
ENDMDL
