MODEL 1
REMARK VINA RESULT:      -7.1      0.000      0.000
REMARK  Name = 
REMARK  3 active torsions:
REMARK  status: ('A' for Active; 'I' for Inactive)
REMARK    1  A    between atoms: C_11  and  N_12
REMARK    2  A    between atoms: C_14  and  C_15
REMARK    3  A    between atoms: C_18  and  C_19
REMARK                            x       y       z     vdW  Elec       q    Type
REMARK                         _______ _______ _______ _____ _____    ______ ____
ROOT
ATOM      1  C   UNL     1       8.290   2.339  24.800  0.00  0.00    +0.045 C 
ATOM      2  C   UNL     1       9.332   2.867  23.814  0.00  0.00    -0.042 C 
ATOM      3  C   UNL     1       9.857   4.117  23.840  0.00  0.00    -0.028 C 
ATOM      4  C   UNL     1       9.375   5.252  24.697  0.00  0.00    +0.035 C 
ATOM      5  C   UNL     1       9.394   1.894  22.608  0.00  0.00    +0.069 C 
ATOM      6  C   UNL     1       7.967   1.879  21.948  0.00  0.00    +0.061 C 
ATOM      7  C   UNL     1       6.921   2.621  22.753  0.00  0.00    -0.074 C 
ATOM      8  C   UNL     1       6.663   4.006  22.190  0.00  0.00    +0.039 C 
ATOM      9  C   UNL     1       9.627   0.448  23.065  0.00  0.00    -0.004 A 
ATOM     10  C   UNL     1       9.988  -0.568  22.076  0.00  0.00    +0.013 A 
ATOM     11  C   UNL     1      10.082  -1.850  22.406  0.00  0.00    +0.070 A 
ATOM     12  C   UNL     1       9.850  -2.277  23.804  0.00  0.00    +0.249 A 
ATOM     13  O   UNL     1       9.970  -3.442  24.171  0.00  0.00    -0.268 OA
ATOM     14  N   UNL     1       9.481  -1.284  24.666  0.00  0.00    -0.326 N 
ATOM     15  H   UNL     1       9.280  -1.584  25.614  0.00  0.00    +0.169 HD
ATOM     16  C   UNL     1       9.321   0.040  24.312  0.00  0.00    +0.025 A 
ATOM     17  C   UNL     1       6.923   2.380  24.089  0.00  0.00    -0.020 C 
ATOM     18  C   UNL     1       8.722   0.959  25.347  0.00  0.00    +0.065 C 
ENDROOT
BRANCH   5  19
ATOM     19  N   UNL     1      10.390   2.352  21.629  0.00  0.00    -0.317 NA
ATOM     20  H   UNL     1      11.136   1.666  21.588  0.00  0.00    +0.119 HD
ATOM     21  H   UNL     1       9.978   2.396  20.703  0.00  0.00    +0.119 HD
ENDBRANCH   5  19
TORSDOF 1
ENDMDL
MODEL 2
REMARK VINA RESULT:      -6.5      2.415      3.493
REMARK  Name = 
REMARK  3 active torsions:
REMARK  status: ('A' for Active; 'I' for Inactive)
REMARK    1  A    between atoms: C_11  and  N_12
REMARK    2  A    between atoms: C_14  and  C_15
REMARK    3  A    between atoms: C_18  and  C_19
REMARK                            x       y       z     vdW  Elec       q    Type
REMARK                         _______ _______ _______ _____ _____    ______ ____
ROOT
ATOM      1  C   UNL     1       8.646  -0.033  25.347  0.00  0.00    +0.045 C 
ATOM      2  C   UNL     1       9.539  -0.391  24.160  0.00  0.00    -0.042 C 
ATOM      3  C   UNL     1      10.502   0.415  23.647  0.00  0.00    -0.028 C 
ATOM      4  C   UNL     1      10.727   1.854  24.013  0.00  0.00    +0.035 C 
ATOM      5  C   UNL     1       8.922  -1.618  23.441  0.00  0.00    +0.069 C 
ATOM      6  C   UNL     1       7.490  -1.197  22.947  0.00  0.00    +0.061 C 
ATOM      7  C   UNL     1       7.047   0.156  23.462  0.00  0.00    -0.074 C 
ATOM      8  C   UNL     1       7.226   1.239  22.413  0.00  0.00    +0.039 C 
ATOM      9  C   UNL     1       8.672  -2.774  24.419  0.00  0.00    -0.004 A 
ATOM     10  C   UNL     1       8.355  -4.102  23.894  0.00  0.00    +0.013 A 
ATOM     11  C   UNL     1       8.016  -5.100  24.701  0.00  0.00    +0.070 A 
ATOM     12  C   UNL     1       7.979  -4.892  26.165  0.00  0.00    +0.249 A 
ATOM     13  O   UNL     1       7.717  -5.794  26.957  0.00  0.00    -0.268 OA
ATOM     14  N   UNL     1       8.249  -3.620  26.584  0.00  0.00    -0.326 N 
ATOM     15  H   UNL     1       8.182  -3.469  27.584  0.00  0.00    +0.169 HD
ATOM     16  C   UNL     1       8.541  -2.566  25.744  0.00  0.00    +0.025 A 
ATOM     17  C   UNL     1       7.276   0.391  24.779  0.00  0.00    -0.020 C 
ATOM     18  C   UNL     1       8.619  -1.195  26.366  0.00  0.00    +0.065 C 
ENDROOT
BRANCH   5  19
ATOM     19  N   UNL     1       9.750  -2.011  22.292  0.00  0.00    -0.317 NA
ATOM     20  H   UNL     1       9.391  -2.886  21.924  0.00  0.00    +0.119 HD
ATOM     21  H   UNL     1       9.670  -1.323  21.550  0.00  0.00    +0.119 HD
ENDBRANCH   5  19
TORSDOF 1
ENDMDL
MODEL 3
REMARK VINA RESULT:      -6.4      1.798      3.100
REMARK  Name = 
REMARK  3 active torsions:
REMARK  status: ('A' for Active; 'I' for Inactive)
REMARK    1  A    between atoms: C_11  and  N_12
REMARK    2  A    between atoms: C_14  and  C_15
REMARK    3  A    between atoms: C_18  and  C_19
REMARK                            x       y       z     vdW  Elec       q    Type
REMARK                         _______ _______ _______ _____ _____    ______ ____
ROOT
ATOM      1  C   UNL     1       8.707   1.386  21.999  0.00  0.00    +0.045 C 
ATOM      2  C   UNL     1       8.038   1.908  23.269  0.00  0.00    -0.042 C 
ATOM      3  C   UNL     1       7.283   3.033  23.339  0.00  0.00    -0.028 C 
ATOM      4  C   UNL     1       7.135   4.058  22.251  0.00  0.00    +0.035 C 
ATOM      5  C   UNL     1       8.660   1.171  24.483  0.00  0.00    +0.069 C 
ATOM      6  C   UNL     1      10.197   1.504  24.492  0.00  0.00    +0.061 C 
ATOM      7  C   UNL     1      10.661   2.247  23.258  0.00  0.00    -0.074 C 
ATOM      8  C   UNL     1      10.806   3.734  23.523  0.00  0.00    +0.039 C 
ATOM      9  C   UNL     1       8.593  -0.352  24.310  0.00  0.00    -0.004 A 
ATOM     10  C   UNL     1       8.874  -1.218  25.455  0.00  0.00    +0.013 A 
ATOM     11  C   UNL     1       8.943  -2.536  25.322  0.00  0.00    +0.070 A 
ATOM     12  C   UNL     1       8.706  -3.165  24.003  0.00  0.00    +0.249 A 
ATOM     13  O   UNL     1       8.713  -4.381  23.836  0.00  0.00    -0.268 OA
ATOM     14  N   UNL     1       8.487  -2.297  22.971  0.00  0.00    -0.326 N 
ATOM     15  H   UNL     1       8.367  -2.726  22.061  0.00  0.00    +0.169 HD
ATOM     16  C   UNL     1       8.476  -0.923  23.094  0.00  0.00    +0.025 A 
ATOM     17  C   UNL     1      10.198   1.773  22.073  0.00  0.00    -0.020 C 
ATOM     18  C   UNL     1       8.413  -0.121  21.819  0.00  0.00    +0.065 C 
ENDROOT
BRANCH   5  19
ATOM     19  N   UNL     1       8.044   1.632  25.736  0.00  0.00    -0.317 NA
ATOM     20  H   UNL     1       7.783   0.817  26.282  0.00  0.00    +0.119 HD
ATOM     21  H   UNL     1       8.717   2.154  26.287  0.00  0.00    +0.119 HD
ENDBRANCH   5  19
TORSDOF 1
ENDMDL
MODEL 4
REMARK VINA RESULT:      -6.2      3.201      5.595
REMARK  Name = 
REMARK  3 active torsions:
REMARK  status: ('A' for Active; 'I' for Inactive)
REMARK    1  A    between atoms: C_11  and  N_12
REMARK    2  A    between atoms: C_14  and  C_15
REMARK    3  A    between atoms: C_18  and  C_19
REMARK                            x       y       z     vdW  Elec       q    Type
REMARK                         _______ _______ _______ _____ _____    ______ ____
ROOT
ATOM      1  C   UNL     1       7.421   1.205  22.638  0.00  0.00    +0.045 C 
ATOM      2  C   UNL     1       8.874   1.578  22.347  0.00  0.00    -0.042 C 
ATOM      3  C   UNL     1       9.780   0.758  21.757  0.00  0.00    -0.028 C 
ATOM      4  C   UNL     1       9.583  -0.703  21.471  0.00  0.00    +0.035 C 
ATOM      5  C   UNL     1       9.217   2.858  23.153  0.00  0.00    +0.069 C 
ATOM      6  C   UNL     1       9.030   2.514  24.675  0.00  0.00    +0.061 C 
ATOM      7  C   UNL     1       8.401   1.159  24.915  0.00  0.00    -0.074 C 
ATOM      8  C   UNL     1       9.442   0.116  25.280  0.00  0.00    +0.039 C 
ATOM      9  C   UNL     1       8.206   3.980  22.880  0.00  0.00    -0.004 A 
ATOM     10  C   UNL     1       8.506   5.341  23.325  0.00  0.00    +0.013 A 
ATOM     11  C   UNL     1       7.611   6.315  23.217  0.00  0.00    +0.070 A 
ATOM     12  C   UNL     1       6.289   6.046  22.611  0.00  0.00    +0.249 A 
ATOM     13  O   UNL     1       5.444   6.922  22.445  0.00  0.00    -0.268 OA
ATOM     14  N   UNL     1       6.061   4.748  22.251  0.00  0.00    -0.326 N 
ATOM     15  H   UNL     1       5.139   4.557  21.876  0.00  0.00    +0.169 HD
ATOM     16  C   UNL     1       6.965   3.720  22.420  0.00  0.00    +0.025 A 
ATOM     17  C   UNL     1       7.329   0.859  24.138  0.00  0.00    -0.020 C 
ATOM     18  C   UNL     1       6.473   2.322  22.148  0.00  0.00    +0.065 C 
ENDROOT
BRANCH   5  19
ATOM     19  N   UNL     1      10.606   3.268  22.901  0.00  0.00    -0.317 NA
ATOM     20  H   UNL     1      10.616   4.265  22.715  0.00  0.00    +0.119 HD
ATOM     21  H   UNL     1      11.172   3.116  23.730  0.00  0.00    +0.119 HD
ENDBRANCH   5  19
TORSDOF 1
ENDMDL
MODEL 5
REMARK VINA RESULT:      -6.2      2.807      5.213
REMARK  Name = 
REMARK  3 active torsions:
REMARK  status: ('A' for Active; 'I' for Inactive)
REMARK    1  A    between atoms: C_11  and  N_12
REMARK    2  A    between atoms: C_14  and  C_15
REMARK    3  A    between atoms: C_18  and  C_19
REMARK                            x       y       z     vdW  Elec       q    Type
REMARK                         _______ _______ _______ _____ _____    ______ ____
ROOT
ATOM      1  C   UNL     1       9.532   0.606  22.528  0.00  0.00    +0.045 C 
ATOM      2  C   UNL     1       9.447   0.196  23.998  0.00  0.00    -0.042 C 
ATOM      3  C   UNL     1       9.835  -1.008  24.488  0.00  0.00    -0.028 C 
ATOM      4  C   UNL     1      10.222  -2.205  23.667  0.00  0.00    +0.035 C 
ATOM      5  C   UNL     1       8.530   1.208  24.731  0.00  0.00    +0.069 C 
ATOM      6  C   UNL     1       7.113   1.128  24.055  0.00  0.00    +0.061 C 
ATOM      7  C   UNL     1       7.090   0.278  22.802  0.00  0.00    -0.074 C 
ATOM      8  C   UNL     1       6.529  -1.105  23.076  0.00  0.00    +0.039 C 
ATOM      9  C   UNL     1       8.990   2.653  24.501  0.00  0.00    -0.004 A 
ATOM     10  C   UNL     1       8.429   3.726  25.322  0.00  0.00    +0.013 A 
ATOM     11  C   UNL     1       8.709   5.000  25.078  0.00  0.00    +0.070 A 
ATOM     12  C   UNL     1       9.628   5.362  23.976  0.00  0.00    +0.249 A 
ATOM     13  O   UNL     1       9.955   6.521  23.739  0.00  0.00    -0.268 OA
ATOM     14  N   UNL     1      10.086   4.315  23.227  0.00  0.00    -0.326 N 
ATOM     15  H   UNL     1      10.681   4.568  22.446  0.00  0.00    +0.169 HD
ATOM     16  C   UNL     1       9.747   2.995  23.439  0.00  0.00    +0.025 A 
ATOM     17  C   UNL     1       8.115   0.476  21.934  0.00  0.00    -0.020 C 
ATOM     18  C   UNL     1      10.190   1.998  22.398  0.00  0.00    +0.065 C 
ENDROOT
BRANCH   5  19
ATOM     19  N   UNL     1       8.420   0.864  26.157  0.00  0.00    -0.317 NA
ATOM     20  H   UNL     1       8.567   1.707  26.701  0.00  0.00    +0.119 HD
ATOM     21  H   UNL     1       7.484   0.535  26.367  0.00  0.00    +0.119 HD
ENDBRANCH   5  19
TORSDOF 1
ENDMDL
MODEL 6
REMARK VINA RESULT:      -6.2      2.894      5.394
REMARK  Name = 
REMARK  3 active torsions:
REMARK  status: ('A' for Active; 'I' for Inactive)
REMARK    1  A    between atoms: C_11  and  N_12
REMARK    2  A    between atoms: C_14  and  C_15
REMARK    3  A    between atoms: C_18  and  C_19
REMARK                            x       y       z     vdW  Elec       q    Type
REMARK                         _______ _______ _______ _____ _____    ______ ____
ROOT
ATOM      1  C   UNL     1       6.955  -1.433  24.141  0.00  0.00    +0.045 C 
ATOM      2  C   UNL     1       7.559  -1.926  22.826  0.00  0.00    -0.042 C 
ATOM      3  C   UNL     1       7.083  -2.968  22.100  0.00  0.00    -0.028 C 
ATOM      4  C   UNL     1       6.024  -3.935  22.545  0.00  0.00    +0.035 C 
ATOM      5  C   UNL     1       8.968  -1.298  22.675  0.00  0.00    +0.069 C 
ATOM      6  C   UNL     1       9.830  -1.788  23.894  0.00  0.00    +0.061 C 
ATOM      7  C   UNL     1       9.028  -2.534  24.940  0.00  0.00    -0.074 C 
ATOM      8  C   UNL     1       9.197  -4.036  24.807  0.00  0.00    +0.039 C 
ATOM      9  C   UNL     1       8.921   0.229  22.819  0.00  0.00    -0.004 A 
ATOM     10  C   UNL     1      10.090   1.023  22.438  0.00  0.00    +0.013 A 
ATOM     11  C   UNL     1      10.136   2.330  22.657  0.00  0.00    +0.070 A 
ATOM     12  C   UNL     1       8.982   3.023  23.272  0.00  0.00    +0.249 A 
ATOM     13  O   UNL     1       8.957   4.237  23.452  0.00  0.00    -0.268 OA
ATOM     14  N   UNL     1       7.941   2.218  23.636  0.00  0.00    -0.326 N 
ATOM     15  H   UNL     1       7.169   2.687  24.096  0.00  0.00    +0.169 HD
ATOM     16  C   UNL     1       7.915   0.849  23.467  0.00  0.00    +0.025 A 
ATOM     17  C   UNL     1       7.839  -1.975  25.283  0.00  0.00    -0.020 C 
ATOM     18  C   UNL     1       6.772   0.101  24.104  0.00  0.00    +0.065 C 
ENDROOT
BRANCH   5  19
ATOM     19  N   UNL     1       9.593  -1.734  21.417  0.00  0.00    -0.317 NA
ATOM     20  H   UNL     1      10.331  -1.078  21.183  0.00  0.00    +0.119 HD
ATOM     21  H   UNL     1      10.032  -2.641  21.539  0.00  0.00    +0.119 HD
ENDBRANCH   5  19
TORSDOF 1
ENDMDL
MODEL 7
REMARK VINA RESULT:      -6.1      3.646      6.627
REMARK  Name = 
REMARK  3 active torsions:
REMARK  status: ('A' for Active; 'I' for Inactive)
REMARK    1  A    between atoms: C_11  and  N_12
REMARK    2  A    between atoms: C_14  and  C_15
REMARK    3  A    between atoms: C_18  and  C_19
REMARK                            x       y       z     vdW  Elec       q    Type
REMARK                         _______ _______ _______ _____ _____    ______ ____
ROOT
ATOM      1  C   UNL     1       6.096  -3.508  23.010  0.00  0.00    +0.045 C 
ATOM      2  C   UNL     1       7.372  -4.336  23.155  0.00  0.00    -0.042 C 
ATOM      3  C   UNL     1       7.568  -5.558  22.600  0.00  0.00    -0.028 C 
ATOM      4  C   UNL     1       6.517  -6.392  21.926  0.00  0.00    +0.035 C 
ATOM      5  C   UNL     1       8.215  -3.731  24.308  0.00  0.00    +0.069 C 
ATOM      6  C   UNL     1       7.348  -3.820  25.616  0.00  0.00    +0.061 C 
ATOM      7  C   UNL     1       5.921  -4.262  25.365  0.00  0.00    -0.074 C 
ATOM      8  C   UNL     1       5.727  -5.733  25.685  0.00  0.00    +0.039 C 
ATOM      9  C   UNL     1       8.452  -2.228  24.101  0.00  0.00    -0.004 A 
ATOM     10  C   UNL     1       9.445  -1.538  24.924  0.00  0.00    +0.013 A 
ATOM     11  C   UNL     1       9.598  -0.222  24.861  0.00  0.00    +0.070 A 
ATOM     12  C   UNL     1       8.778   0.579  23.925  0.00  0.00    +0.249 A 
ATOM     13  O   UNL     1       8.912   1.792  23.796  0.00  0.00    -0.268 OA
ATOM     14  N   UNL     1       7.846  -0.123  23.215  0.00  0.00    -0.326 N 
ATOM     15  H   UNL     1       7.255   0.432  22.606  0.00  0.00    +0.169 HD
ATOM     16  C   UNL     1       7.641  -1.483  23.323  0.00  0.00    +0.025 A 
ATOM     17  C   UNL     1       5.294  -3.669  24.317  0.00  0.00    -0.020 C 
ATOM     18  C   UNL     1       6.443  -2.056  22.610  0.00  0.00    +0.065 C 
ENDROOT
BRANCH   5  19
ATOM     19  N   UNL     1       9.463  -4.487  24.485  0.00  0.00    -0.317 NA
ATOM     20  H   UNL     1      10.163  -4.098  23.862  0.00  0.00    +0.119 HD
ATOM     21  H   UNL     1       9.811  -4.372  25.431  0.00  0.00    +0.119 HD
ENDBRANCH   5  19
TORSDOF 1
ENDMDL
MODEL 8
REMARK VINA RESULT:      -6.1      2.656      5.477
REMARK  Name = 
REMARK  3 active torsions:
REMARK  status: ('A' for Active; 'I' for Inactive)
REMARK    1  A    between atoms: C_11  and  N_12
REMARK    2  A    between atoms: C_14  and  C_15
REMARK    3  A    between atoms: C_18  and  C_19
REMARK                            x       y       z     vdW  Elec       q    Type
REMARK                         _______ _______ _______ _____ _____    ______ ____
ROOT
ATOM      1  C   UNL     1       9.130  -2.502  23.200  0.00  0.00    +0.045 C 
ATOM      2  C   UNL     1       8.691  -2.518  24.663  0.00  0.00    -0.042 C 
ATOM      3  C   UNL     1       8.648  -3.625  25.445  0.00  0.00    -0.028 C 
ATOM      4  C   UNL     1       8.826  -5.039  24.972  0.00  0.00    +0.035 C 
ATOM      5  C   UNL     1       7.973  -1.178  24.969  0.00  0.00    +0.069 C 
ATOM      6  C   UNL     1       6.723  -1.090  24.020  0.00  0.00    +0.061 C 
ATOM      7  C   UNL     1       6.681  -2.187  22.976  0.00  0.00    -0.074 C 
ATOM      8  C   UNL     1       5.727  -3.298  23.373  0.00  0.00    +0.039 C 
ATOM      9  C   UNL     1       8.842   0.026  24.580  0.00  0.00    -0.004 A 
ATOM     10  C   UNL     1       8.464   1.363  25.038  0.00  0.00    +0.013 A 
ATOM     11  C   UNL     1       9.117   2.443  24.628  0.00  0.00    +0.070 A 
ATOM     12  C   UNL     1      10.272   2.311  23.712  0.00  0.00    +0.249 A 
ATOM     13  O   UNL     1      10.938   3.273  23.341  0.00  0.00    -0.268 OA
ATOM     14  N   UNL     1      10.547   1.039  23.295  0.00  0.00    -0.326 N 
ATOM     15  H   UNL     1      11.311   0.955  22.634  0.00  0.00    +0.169 HD
ATOM     16  C   UNL     1       9.831  -0.078  23.670  0.00  0.00    +0.025 A 
ATOM     17  C   UNL     1       7.852  -2.442  22.338  0.00  0.00    -0.020 C 
ATOM     18  C   UNL     1      10.154  -1.369  22.961  0.00  0.00    +0.065 C 
ENDROOT
BRANCH   5  19
ATOM     19  N   UNL     1       7.536  -1.137  26.372  0.00  0.00    -0.317 NA
ATOM     20  H   UNL     1       8.119  -1.772  26.907  0.00  0.00    +0.119 HD
ATOM     21  H   UNL     1       7.679  -0.209  26.757  0.00  0.00    +0.119 HD
ENDBRANCH   5  19
TORSDOF 1
ENDMDL
MODEL 9
REMARK VINA RESULT:      -6.1      2.073      3.622
REMARK  Name = 
REMARK  3 active torsions:
REMARK  status: ('A' for Active; 'I' for Inactive)
REMARK    1  A    between atoms: C_11  and  N_12
REMARK    2  A    between atoms: C_14  and  C_15
REMARK    3  A    between atoms: C_18  and  C_19
REMARK                            x       y       z     vdW  Elec       q    Type
REMARK                         _______ _______ _______ _____ _____    ______ ____
ROOT
ATOM      1  C   UNL     1       8.510   0.156  22.408  0.00  0.00    +0.045 C 
ATOM      2  C   UNL     1       7.883   0.929  23.567  0.00  0.00    -0.042 C 
ATOM      3  C   UNL     1       7.196   2.093  23.439  0.00  0.00    -0.028 C 
ATOM      4  C   UNL     1       7.103   2.921  22.189  0.00  0.00    +0.035 C 
ATOM      5  C   UNL     1       8.468   0.377  24.892  0.00  0.00    +0.069 C 
ATOM      6  C   UNL     1      10.021   0.613  24.850  0.00  0.00    +0.061 C 
ATOM      7  C   UNL     1      10.521   1.102  23.507  0.00  0.00    -0.074 C 
ATOM      8  C   UNL     1      10.756   2.602  23.512  0.00  0.00    +0.039 C 
ATOM      9  C   UNL     1       8.308  -1.147  24.985  0.00  0.00    -0.004 A 
ATOM     10  C   UNL     1       8.544  -1.817  26.263  0.00  0.00    +0.013 A 
ATOM     11  C   UNL     1       8.533  -3.141  26.360  0.00  0.00    +0.070 A 
ATOM     12  C   UNL     1       8.250  -3.972  25.169  0.00  0.00    +0.249 A 
ATOM     13  O   UNL     1       8.183  -5.197  25.215  0.00  0.00    -0.268 OA
ATOM     14  N   UNL     1       8.076  -3.283  24.002  0.00  0.00    -0.326 N 
ATOM     15  H   UNL     1       7.925  -3.856  23.179  0.00  0.00    +0.169 HD
ATOM     16  C   UNL     1       8.149  -1.911  23.886  0.00  0.00    +0.025 A 
ATOM     17  C   UNL     1      10.022   0.459  22.420  0.00  0.00    -0.020 C 
ATOM     18  C   UNL     1       8.125  -1.339  22.491  0.00  0.00    +0.065 C 
ENDROOT
BRANCH   5  19
ATOM     19  N   UNL     1       7.888   1.083  26.045  0.00  0.00    -0.317 NA
ATOM     20  H   UNL     1       8.103   0.554  26.884  0.00  0.00    +0.119 HD
ATOM     21  H   UNL     1       8.321   1.995  26.151  0.00  0.00    +0.119 HD
ENDBRANCH   5  19
TORSDOF 1
ENDMDL
