MODEL 1
REMARK VINA RESULT:      -7.3      0.000      0.000
REMARK  Name = 
REMARK  13 active torsions:
REMARK  status: ('A' for Active; 'I' for Inactive)
REMARK    1  A    between atoms: C_2  and  C_3
REMARK    2  A    between atoms: C_2  and  N_7
REMARK    3  A    between atoms: C_2  and  C_24
REMARK    4  A    between atoms: C_3  and  C_4
REMARK    5  A    between atoms: C_4  and  C_5
REMARK    6  A    between atoms: C_5  and  C_6
REMARK    7  A    between atoms: C_8  and  O_10
REMARK    8  A    between atoms: O_10  and  C_11
REMARK    9  A    between atoms: C_11  and  C_12
REMARK   10  A    between atoms: C_12  and  C_13
REMARK   11  A    between atoms: C_13  and  C_14
REMARK   12  A    between atoms: C_24  and  C_26
REMARK   13  A    between atoms: N_28  and  C_29
REMARK                            x       y       z     vdW  Elec       q    Type
REMARK                         _______ _______ _______ _____ _____    ______ ____
ROOT
ATOM      1  N   UNL     1       5.407  -6.474  22.897  0.00  0.00    -0.271 N 
ATOM      2  H   UNL     1       4.782  -6.945  22.251  0.00  0.00    +0.153 HD
ATOM      3  C   UNL     1       6.458  -5.895  22.246  0.00  0.00    +0.401 C 
ATOM      4  O   UNL     1       6.530  -5.903  21.029  0.00  0.00    -0.226 OA
ENDROOT
BRANCH   1   5
ATOM      5  C   UNL     1       4.812  -5.912  24.106  0.00  0.00    +0.152 C 
BRANCH   5   6
ATOM      6  C   UNL     1       4.108  -7.037  24.853  0.00  0.00    +0.238 C 
ATOM      7  O   UNL     1       3.565  -8.016  24.351  0.00  0.00    -0.285 OA
BRANCH   6   8
ATOM      8  C   UNL     1       4.121  -6.927  26.365  0.00  0.00    +0.287 C 
ATOM      9  N   UNL     1       5.408  -6.611  26.925  0.00  0.00    -0.264 N 
ATOM     10  H   UNL     1       6.186  -6.544  26.270  0.00  0.00    +0.157 HD
ATOM     11  O   UNL     1       3.129  -7.108  27.042  0.00  0.00    -0.267 OA
BRANCH   9  12
ATOM     12  C   UNL     1       5.617  -6.383  28.281  0.00  0.00    +0.121 A 
ATOM     13  N   UNL     1       6.317  -7.191  29.133  0.00  0.00    -0.264 N 
ATOM     14  H   UNL     1       6.784  -8.072  28.936  0.00  0.00    +0.190 HD
ATOM     15  N   UNL     1       6.377  -6.729  30.393  0.00  0.00    -0.181 NA
ATOM     16  C   UNL     1       5.695  -5.584  30.340  0.00  0.00    +0.136 A 
ATOM     17  C   UNL     1       5.196  -5.320  29.050  0.00  0.00    +0.064 A 
ENDBRANCH   9  12
ENDBRANCH   6   8
ENDBRANCH   5   6
BRANCH   5  18
ATOM     18  C   UNL     1       3.830  -4.803  23.694  0.00  0.00    +0.030 C 
BRANCH  18  19
ATOM     19  C   UNL     1       4.120  -3.450  24.344  0.00  0.00    +0.002 C 
BRANCH  19  20
ATOM     20  C   UNL     1       3.726  -3.453  25.823  0.00  0.00    -0.003 C 
ATOM     21  C   UNL     1       2.222  -3.583  25.996  0.00  0.00    +0.004 C 
ENDBRANCH  19  20
ENDBRANCH  18  19
ENDBRANCH   5  18
ENDBRANCH   1   5
BRANCH   3  22
ATOM     22  O   UNL     1       7.374  -5.382  23.100  0.00  0.00    -0.450 OA
BRANCH  22  23
ATOM     23  C   UNL     1       7.608  -3.963  22.999  0.00  0.00    +0.241 C 
BRANCH  23  24
ATOM     24  C   UNL     1       8.251  -3.489  24.308  0.00  0.00    +0.009 C 
ATOM     25  C   UNL     1       8.068  -4.577  25.418  0.00  0.00    +0.010 C 
ATOM     26  C   UNL     1       7.648  -3.466  26.392  0.00  0.00    +0.001 C 
ATOM     27  C   UNL     1       7.313  -2.586  25.174  0.00  0.00    +0.010 C 
BRANCH  24  28
ATOM     28  C   UNL     1       9.716  -3.026  24.166  0.00  0.00    +0.045 C 
BRANCH  28  29
ATOM     29  C   UNL     1       9.857  -1.654  23.540  0.00  0.00    -0.047 A 
ATOM     30  C   UNL     1      10.175  -0.534  24.327  0.00  0.00    +0.006 A 
ATOM     31  C   UNL     1      10.299   0.732  23.751  0.00  0.00    +0.038 A 
ATOM     32  C   UNL     1      10.084   0.887  22.387  0.00  0.00    +0.123 A 
ATOM     33  F   UNL     1      10.192   2.102  21.836  0.00  0.00    -0.205 F 
ATOM     34  C   UNL     1       9.755  -0.203  21.591  0.00  0.00    +0.038 A 
ATOM     35  C   UNL     1       9.645  -1.471  22.165  0.00  0.00    +0.006 A 
ENDBRANCH  28  29
ENDBRANCH  24  28
ENDBRANCH  23  24
ENDBRANCH  22  23
ENDBRANCH   3  22
TORSDOF 12
ENDMDL
MODEL 2
REMARK VINA RESULT:      -7.0      3.127      5.118
REMARK  Name = 
REMARK  13 active torsions:
REMARK  status: ('A' for Active; 'I' for Inactive)
REMARK    1  A    between atoms: C_2  and  C_3
REMARK    2  A    between atoms: C_2  and  N_7
REMARK    3  A    between atoms: C_2  and  C_24
REMARK    4  A    between atoms: C_3  and  C_4
REMARK    5  A    between atoms: C_4  and  C_5
REMARK    6  A    between atoms: C_5  and  C_6
REMARK    7  A    between atoms: C_8  and  O_10
REMARK    8  A    between atoms: O_10  and  C_11
REMARK    9  A    between atoms: C_11  and  C_12
REMARK   10  A    between atoms: C_12  and  C_13
REMARK   11  A    between atoms: C_13  and  C_14
REMARK   12  A    between atoms: C_24  and  C_26
REMARK   13  A    between atoms: N_28  and  C_29
REMARK                            x       y       z     vdW  Elec       q    Type
REMARK                         _______ _______ _______ _____ _____    ______ ____
ROOT
ATOM      1  N   UNL     1       9.687  -2.653  23.931  0.00  0.00    -0.271 N 
ATOM      2  H   UNL     1      10.292  -3.443  23.733  0.00  0.00    +0.153 HD
ATOM      3  C   UNL     1       9.955  -1.597  23.108  0.00  0.00    +0.401 C 
ATOM      4  O   UNL     1      10.773  -1.688  22.208  0.00  0.00    -0.226 OA
ENDROOT
BRANCH   1   5
ATOM      5  C   UNL     1       8.349  -2.951  24.433  0.00  0.00    +0.152 C 
BRANCH   5   6
ATOM      6  C   UNL     1       8.387  -2.872  25.954  0.00  0.00    +0.238 C 
ATOM      7  O   UNL     1       8.645  -1.878  26.625  0.00  0.00    -0.285 OA
BRANCH   6   8
ATOM      8  C   UNL     1       8.038  -4.154  26.684  0.00  0.00    +0.287 C 
ATOM      9  N   UNL     1       6.646  -4.285  27.021  0.00  0.00    -0.264 N 
ATOM     10  H   UNL     1       6.045  -3.496  26.788  0.00  0.00    +0.157 HD
ATOM     11  O   UNL     1       8.872  -4.989  26.972  0.00  0.00    -0.267 OA
BRANCH   9  12
ATOM     12  C   UNL     1       6.106  -5.419  27.616  0.00  0.00    +0.121 A 
ATOM     13  N   UNL     1       6.784  -6.323  28.385  0.00  0.00    -0.264 N 
ATOM     14  H   UNL     1       7.767  -6.331  28.642  0.00  0.00    +0.190 HD
ATOM     15  N   UNL     1       6.018  -7.325  28.848  0.00  0.00    -0.181 NA
ATOM     16  C   UNL     1       4.808  -7.046  28.360  0.00  0.00    +0.136 A 
ATOM     17  C   UNL     1       4.805  -5.872  27.583  0.00  0.00    +0.064 A 
ENDBRANCH   9  12
ENDBRANCH   6   8
ENDBRANCH   5   6
BRANCH   5  18
ATOM     18  C   UNL     1       7.949  -4.353  23.947  0.00  0.00    +0.030 C 
BRANCH  18  19
ATOM     19  C   UNL     1       7.322  -4.366  22.553  0.00  0.00    +0.002 C 
BRANCH  19  20
ATOM     20  C   UNL     1       7.118  -5.798  22.052  0.00  0.00    -0.003 C 
ATOM     21  C   UNL     1       6.213  -5.834  20.831  0.00  0.00    +0.004 C 
ENDBRANCH  19  20
ENDBRANCH  18  19
ENDBRANCH   5  18
ENDBRANCH   1   5
BRANCH   3  22
ATOM     22  O   UNL     1       9.257  -0.489  23.447  0.00  0.00    -0.450 OA
BRANCH  22  23
ATOM     23  C   UNL     1       8.590   0.193  22.366  0.00  0.00    +0.241 C 
BRANCH  23  24
ATOM     24  C   UNL     1       8.007   1.502  22.912  0.00  0.00    +0.009 C 
ATOM     25  C   UNL     1       6.452   1.381  23.043  0.00  0.00    +0.010 C 
ATOM     26  C   UNL     1       6.322   2.765  22.390  0.00  0.00    +0.001 C 
ATOM     27  C   UNL     1       7.733   2.573  21.805  0.00  0.00    +0.010 C 
BRANCH  24  28
ATOM     28  C   UNL     1       8.675   2.005  24.208  0.00  0.00    +0.045 C 
BRANCH  28  29
ATOM     29  C   UNL     1       9.622   3.167  23.988  0.00  0.00    -0.047 A 
ATOM     30  C   UNL     1      10.917   2.953  23.488  0.00  0.00    +0.006 A 
ATOM     31  C   UNL     1      11.792   4.024  23.290  0.00  0.00    +0.038 A 
ATOM     32  C   UNL     1      11.382   5.311  23.614  0.00  0.00    +0.123 A 
ATOM     33  F   UNL     1      12.224   6.336  23.435  0.00  0.00    -0.205 F 
ATOM     34  C   UNL     1      10.112   5.546  24.124  0.00  0.00    +0.038 A 
ATOM     35  C   UNL     1       9.232   4.477  24.307  0.00  0.00    +0.006 A 
ENDBRANCH  28  29
ENDBRANCH  24  28
ENDBRANCH  23  24
ENDBRANCH  22  23
ENDBRANCH   3  22
TORSDOF 12
ENDMDL
MODEL 3
REMARK VINA RESULT:      -6.9      3.792      5.844
REMARK  Name = 
REMARK  13 active torsions:
REMARK  status: ('A' for Active; 'I' for Inactive)
REMARK    1  A    between atoms: C_2  and  C_3
REMARK    2  A    between atoms: C_2  and  N_7
REMARK    3  A    between atoms: C_2  and  C_24
REMARK    4  A    between atoms: C_3  and  C_4
REMARK    5  A    between atoms: C_4  and  C_5
REMARK    6  A    between atoms: C_5  and  C_6
REMARK    7  A    between atoms: C_8  and  O_10
REMARK    8  A    between atoms: O_10  and  C_11
REMARK    9  A    between atoms: C_11  and  C_12
REMARK   10  A    between atoms: C_12  and  C_13
REMARK   11  A    between atoms: C_13  and  C_14
REMARK   12  A    between atoms: C_24  and  C_26
REMARK   13  A    between atoms: N_28  and  C_29
REMARK                            x       y       z     vdW  Elec       q    Type
REMARK                         _______ _______ _______ _____ _____    ______ ____
ROOT
ATOM      1  N   UNL     1       9.194  -0.780  22.697  0.00  0.00    -0.271 N 
ATOM      2  H   UNL     1       9.877  -1.079  22.009  0.00  0.00    +0.153 HD
ATOM      3  C   UNL     1       8.637   0.421  22.362  0.00  0.00    +0.401 C 
ATOM      4  O   UNL     1       8.906   0.971  21.307  0.00  0.00    -0.226 OA
ENDROOT
BRANCH   1   5
ATOM      5  C   UNL     1       8.463  -1.826  23.405  0.00  0.00    +0.152 C 
BRANCH   5   6
ATOM      6  C   UNL     1       9.458  -2.905  23.813  0.00  0.00    +0.238 C 
ATOM      7  O   UNL     1      10.649  -2.945  23.519  0.00  0.00    -0.285 OA
BRANCH   6   8
ATOM      8  C   UNL     1       8.904  -4.007  24.693  0.00  0.00    +0.287 C 
ATOM      9  N   UNL     1       8.167  -3.539  25.836  0.00  0.00    -0.264 N 
ATOM     10  H   UNL     1       8.131  -2.531  25.973  0.00  0.00    +0.157 HD
ATOM     11  O   UNL     1       9.085  -5.185  24.456  0.00  0.00    -0.267 OA
BRANCH   9  12
ATOM     12  C   UNL     1       7.507  -4.386  26.720  0.00  0.00    +0.121 A 
ATOM     13  N   UNL     1       7.956  -5.602  27.154  0.00  0.00    -0.264 N 
ATOM     14  H   UNL     1       8.815  -6.088  26.910  0.00  0.00    +0.190 HD
ATOM     15  N   UNL     1       7.126  -6.211  28.018  0.00  0.00    -0.181 NA
ATOM     16  C   UNL     1       6.116  -5.349  28.142  0.00  0.00    +0.136 A 
ATOM     17  C   UNL     1       6.298  -4.196  27.354  0.00  0.00    +0.064 A 
ENDBRANCH   9  12
ENDBRANCH   6   8
ENDBRANCH   5   6
BRANCH   5  18
ATOM     18  C   UNL     1       7.378  -2.380  22.468  0.00  0.00    +0.030 C 
BRANCH  18  19
ATOM     19  C   UNL     1       5.968  -2.326  23.057  0.00  0.00    +0.002 C 
BRANCH  19  20
ATOM     20  C   UNL     1       5.465  -3.725  23.417  0.00  0.00    -0.003 C 
ATOM     21  C   UNL     1       5.874  -4.748  22.369  0.00  0.00    +0.004 C 
ENDBRANCH  19  20
ENDBRANCH  18  19
ENDBRANCH   5  18
ENDBRANCH   1   5
BRANCH   3  22
ATOM     22  O   UNL     1       7.829   0.903  23.333  0.00  0.00    -0.450 OA
BRANCH  22  23
ATOM     23  C   UNL     1       6.747   1.748  22.893  0.00  0.00    +0.241 C 
BRANCH  23  24
ATOM     24  C   UNL     1       7.038   3.181  23.355  0.00  0.00    +0.009 C 
ATOM     25  C   UNL     1       5.696   3.935  23.639  0.00  0.00    +0.010 C 
ATOM     26  C   UNL     1       6.248   5.141  22.865  0.00  0.00    +0.001 C 
ATOM     27  C   UNL     1       7.243   4.189  22.177  0.00  0.00    +0.010 C 
BRANCH  24  28
ATOM     28  C   UNL     1       8.034   3.281  24.529  0.00  0.00    +0.045 C 
BRANCH  28  29
ATOM     29  C   UNL     1       9.305   4.028  24.180  0.00  0.00    -0.047 A 
ATOM     30  C   UNL     1      10.386   3.363  23.576  0.00  0.00    +0.006 A 
ATOM     31  C   UNL     1      11.560   4.050  23.259  0.00  0.00    +0.038 A 
ATOM     32  C   UNL     1      11.666   5.401  23.567  0.00  0.00    +0.123 A 
ATOM     33  F   UNL     1      12.796   6.056  23.274  0.00  0.00    -0.205 F 
ATOM     34  C   UNL     1      10.618   6.076  24.178  0.00  0.00    +0.038 A 
ATOM     35  C   UNL     1       9.438   5.392  24.481  0.00  0.00    +0.006 A 
ENDBRANCH  28  29
ENDBRANCH  24  28
ENDBRANCH  23  24
ENDBRANCH  22  23
ENDBRANCH   3  22
TORSDOF 12
ENDMDL
MODEL 4
REMARK VINA RESULT:      -6.8      3.314      5.863
REMARK  Name = 
REMARK  13 active torsions:
REMARK  status: ('A' for Active; 'I' for Inactive)
REMARK    1  A    between atoms: C_2  and  C_3
REMARK    2  A    between atoms: C_2  and  N_7
REMARK    3  A    between atoms: C_2  and  C_24
REMARK    4  A    between atoms: C_3  and  C_4
REMARK    5  A    between atoms: C_4  and  C_5
REMARK    6  A    between atoms: C_5  and  C_6
REMARK    7  A    between atoms: C_8  and  O_10
REMARK    8  A    between atoms: O_10  and  C_11
REMARK    9  A    between atoms: C_11  and  C_12
REMARK   10  A    between atoms: C_12  and  C_13
REMARK   11  A    between atoms: C_13  and  C_14
REMARK   12  A    between atoms: C_24  and  C_26
REMARK   13  A    between atoms: N_28  and  C_29
REMARK                            x       y       z     vdW  Elec       q    Type
REMARK                         _______ _______ _______ _____ _____    ______ ____
ROOT
ATOM      1  N   UNL     1       5.749  -0.362  24.278  0.00  0.00    -0.271 N 
ATOM      2  H   UNL     1       4.973  -0.865  24.696  0.00  0.00    +0.153 HD
ATOM      3  C   UNL     1       5.653   0.981  24.500  0.00  0.00    +0.401 C 
ATOM      4  O   UNL     1       4.768   1.446  25.197  0.00  0.00    -0.226 OA
ENDROOT
BRANCH   1   5
ATOM      5  C   UNL     1       7.025  -1.066  24.190  0.00  0.00    +0.152 C 
BRANCH   5   6
ATOM      6  C   UNL     1       6.825  -2.299  23.318  0.00  0.00    +0.238 C 
ATOM      7  O   UNL     1       7.436  -2.569  22.289  0.00  0.00    -0.285 OA
BRANCH   6   8
ATOM      8  C   UNL     1       5.785  -3.286  23.809  0.00  0.00    +0.287 C 
ATOM      9  N   UNL     1       6.248  -4.646  23.887  0.00  0.00    -0.264 N 
ATOM     10  H   UNL     1       7.197  -4.823  23.562  0.00  0.00    +0.157 HD
ATOM     11  O   UNL     1       4.652  -2.953  24.095  0.00  0.00    -0.267 OA
BRANCH   9  12
ATOM     12  C   UNL     1       5.479  -5.688  24.391  0.00  0.00    +0.121 A 
ATOM     13  N   UNL     1       4.806  -6.620  23.653  0.00  0.00    -0.264 N 
ATOM     14  H   UNL     1       4.744  -6.709  22.643  0.00  0.00    +0.190 HD
ATOM     15  N   UNL     1       4.147  -7.528  24.394  0.00  0.00    -0.181 NA
ATOM     16  C   UNL     1       4.415  -7.163  25.648  0.00  0.00    +0.136 A 
ATOM     17  C   UNL     1       5.237  -6.021  25.707  0.00  0.00    +0.064 A 
ENDBRANCH   9  12
ENDBRANCH   6   8
ENDBRANCH   5   6
BRANCH   5  18
ATOM     18  C   UNL     1       7.471  -1.443  25.612  0.00  0.00    +0.030 C 
BRANCH  18  19
ATOM     19  C   UNL     1       8.682  -2.375  25.651  0.00  0.00    +0.002 C 
BRANCH  19  20
ATOM     20  C   UNL     1       8.402  -3.609  26.511  0.00  0.00    -0.003 C 
ATOM     21  C   UNL     1       9.195  -4.813  26.027  0.00  0.00    +0.004 C 
ENDBRANCH  19  20
ENDBRANCH  18  19
ENDBRANCH   5  18
ENDBRANCH   1   5
BRANCH   3  22
ATOM     22  O   UNL     1       6.601   1.682  23.834  0.00  0.00    -0.450 OA
BRANCH  22  23
ATOM     23  C   UNL     1       7.174   2.799  24.542  0.00  0.00    +0.241 C 
BRANCH  23  24
ATOM     24  C   UNL     1       7.866   3.710  23.520  0.00  0.00    +0.009 C 
ATOM     25  C   UNL     1       7.507   5.206  23.808  0.00  0.00    +0.010 C 
ATOM     26  C   UNL     1       7.250   5.399  22.307  0.00  0.00    +0.001 C 
ATOM     27  C   UNL     1       7.066   3.875  22.187  0.00  0.00    +0.010 C 
BRANCH  24  28
ATOM     28  C   UNL     1       9.386   3.479  23.389  0.00  0.00    +0.045 C 
BRANCH  28  29
ATOM     29  C   UNL     1       9.760   2.026  23.177  0.00  0.00    -0.047 A 
ATOM     30  C   UNL     1       9.482   1.383  21.959  0.00  0.00    +0.006 A 
ATOM     31  C   UNL     1       9.821   0.042  21.766  0.00  0.00    +0.038 A 
ATOM     32  C   UNL     1      10.420  -0.668  22.800  0.00  0.00    +0.123 A 
ATOM     33  F   UNL     1      10.734  -1.956  22.619  0.00  0.00    -0.205 F 
ATOM     34  C   UNL     1      10.690  -0.058  24.018  0.00  0.00    +0.038 A 
ATOM     35  C   UNL     1      10.365   1.287  24.205  0.00  0.00    +0.006 A 
ENDBRANCH  28  29
ENDBRANCH  24  28
ENDBRANCH  23  24
ENDBRANCH  22  23
ENDBRANCH   3  22
TORSDOF 12
ENDMDL
MODEL 5
REMARK VINA RESULT:      -6.8      5.310      8.807
REMARK  Name = 
REMARK  13 active torsions:
REMARK  status: ('A' for Active; 'I' for Inactive)
REMARK    1  A    between atoms: C_2  and  C_3
REMARK    2  A    between atoms: C_2  and  N_7
REMARK    3  A    between atoms: C_2  and  C_24
REMARK    4  A    between atoms: C_3  and  C_4
REMARK    5  A    between atoms: C_4  and  C_5
REMARK    6  A    between atoms: C_5  and  C_6
REMARK    7  A    between atoms: C_8  and  O_10
REMARK    8  A    between atoms: O_10  and  C_11
REMARK    9  A    between atoms: C_11  and  C_12
REMARK   10  A    between atoms: C_12  and  C_13
REMARK   11  A    between atoms: C_13  and  C_14
REMARK   12  A    between atoms: C_24  and  C_26
REMARK   13  A    between atoms: N_28  and  C_29
REMARK                            x       y       z     vdW  Elec       q    Type
REMARK                         _______ _______ _______ _____ _____    ______ ____
ROOT
ATOM      1  N   UNL     1       9.230  -0.646  22.658  0.00  0.00    -0.271 N 
ATOM      2  H   UNL     1      10.099  -0.136  22.776  0.00  0.00    +0.153 HD
ATOM      3  C   UNL     1       9.422  -1.994  22.757  0.00  0.00    +0.401 C 
ATOM      4  O   UNL     1      10.513  -2.459  23.042  0.00  0.00    -0.226 OA
ENDROOT
BRANCH   1   5
ATOM      5  C   UNL     1       8.006   0.018  23.096  0.00  0.00    +0.152 C 
BRANCH   5   6
ATOM      6  C   UNL     1       7.939   1.380  22.417  0.00  0.00    +0.238 C 
ATOM      7  O   UNL     1       6.954   1.880  21.884  0.00  0.00    -0.285 OA
BRANCH   6   8
ATOM      8  C   UNL     1       9.221   2.189  22.445  0.00  0.00    +0.287 C 
ATOM      9  N   UNL     1       9.140   3.403  23.212  0.00  0.00    -0.264 N 
ATOM     10  H   UNL     1       8.231   3.628  23.613  0.00  0.00    +0.157 HD
ATOM     11  O   UNL     1      10.225   1.842  21.854  0.00  0.00    -0.267 OA
BRANCH   9  12
ATOM     12  C   UNL     1      10.226   4.242  23.432  0.00  0.00    +0.121 A 
ATOM     13  N   UNL     1      11.535   3.949  23.169  0.00  0.00    -0.264 N 
ATOM     14  H   UNL     1      11.932   3.095  22.788  0.00  0.00    +0.190 HD
ATOM     15  N   UNL     1      12.386   4.946  23.466  0.00  0.00    -0.181 NA
ATOM     16  C   UNL     1      11.589   5.910  23.931  0.00  0.00    +0.136 A 
ATOM     17  C   UNL     1      10.234   5.526  23.935  0.00  0.00    +0.064 A 
ENDBRANCH   9  12
ENDBRANCH   6   8
ENDBRANCH   5   6
BRANCH   5  18
ATOM     18  C   UNL     1       8.045   0.148  24.627  0.00  0.00    +0.030 C 
BRANCH  18  19
ATOM     19  C   UNL     1       6.769  -0.331  25.318  0.00  0.00    +0.002 C 
BRANCH  19  20
ATOM     20  C   UNL     1       7.087  -1.304  26.455  0.00  0.00    -0.003 C 
ATOM     21  C   UNL     1       8.542  -1.740  26.421  0.00  0.00    +0.004 C 
ENDBRANCH  19  20
ENDBRANCH  18  19
ENDBRANCH   5  18
ENDBRANCH   1   5
BRANCH   3  22
ATOM     22  O   UNL     1       8.303  -2.697  22.465  0.00  0.00    -0.450 OA
BRANCH  22  23
ATOM     23  C   UNL     1       7.941  -3.727  23.406  0.00  0.00    +0.241 C 
BRANCH  23  24
ATOM     24  C   UNL     1       6.619  -4.354  22.945  0.00  0.00    +0.009 C 
ATOM     25  C   UNL     1       6.816  -5.885  22.686  0.00  0.00    +0.010 C 
ATOM     26  C   UNL     1       6.042  -5.728  21.368  0.00  0.00    +0.001 C 
ATOM     27  C   UNL     1       6.369  -4.224  21.406  0.00  0.00    +0.010 C 
BRANCH  24  28
ATOM     28  C   UNL     1       5.418  -4.058  23.866  0.00  0.00    +0.045 C 
BRANCH  28  29
ATOM     29  C   UNL     1       5.348  -4.966  25.077  0.00  0.00    -0.047 A 
ATOM     30  C   UNL     1       6.223  -4.785  26.162  0.00  0.00    +0.006 A 
ATOM     31  C   UNL     1       6.163  -5.625  27.276  0.00  0.00    +0.038 A 
ATOM     32  C   UNL     1       5.242  -6.665  27.299  0.00  0.00    +0.123 A 
ATOM     33  F   UNL     1       5.192  -7.478  28.361  0.00  0.00    -0.205 F 
ATOM     34  C   UNL     1       4.377  -6.873  26.232  0.00  0.00    +0.038 A 
ATOM     35  C   UNL     1       4.427  -6.023  25.125  0.00  0.00    +0.006 A 
ENDBRANCH  28  29
ENDBRANCH  24  28
ENDBRANCH  23  24
ENDBRANCH  22  23
ENDBRANCH   3  22
TORSDOF 12
ENDMDL
MODEL 6
REMARK VINA RESULT:      -6.8      5.546      8.832
REMARK  Name = 
REMARK  13 active torsions:
REMARK  status: ('A' for Active; 'I' for Inactive)
REMARK    1  A    between atoms: C_2  and  C_3
REMARK    2  A    between atoms: C_2  and  N_7
REMARK    3  A    between atoms: C_2  and  C_24
REMARK    4  A    between atoms: C_3  and  C_4
REMARK    5  A    between atoms: C_4  and  C_5
REMARK    6  A    between atoms: C_5  and  C_6
REMARK    7  A    between atoms: C_8  and  O_10
REMARK    8  A    between atoms: O_10  and  C_11
REMARK    9  A    between atoms: C_11  and  C_12
REMARK   10  A    between atoms: C_12  and  C_13
REMARK   11  A    between atoms: C_13  and  C_14
REMARK   12  A    between atoms: C_24  and  C_26
REMARK   13  A    between atoms: N_28  and  C_29
REMARK                            x       y       z     vdW  Elec       q    Type
REMARK                         _______ _______ _______ _____ _____    ______ ____
ROOT
ATOM      1  N   UNL     1       8.138   1.049  24.597  0.00  0.00    -0.271 N 
ATOM      2  H   UNL     1       7.813   1.978  24.842  0.00  0.00    +0.153 HD
ATOM      3  C   UNL     1       7.975   0.172  25.629  0.00  0.00    +0.401 C 
ATOM      4  O   UNL     1       7.417   0.506  26.662  0.00  0.00    -0.226 OA
ENDROOT
BRANCH   1   5
ATOM      5  C   UNL     1       8.032   0.657  23.195  0.00  0.00    +0.152 C 
BRANCH   5   6
ATOM      6  C   UNL     1       9.375   0.921  22.527  0.00  0.00    +0.238 C 
ATOM      7  O   UNL     1       9.765   0.450  21.463  0.00  0.00    -0.285 OA
BRANCH   6   8
ATOM      8  C   UNL     1      10.288   1.889  23.255  0.00  0.00    +0.287 C 
ATOM      9  N   UNL     1      10.299   3.219  22.709  0.00  0.00    -0.264 N 
ATOM     10  H   UNL     1       9.742   3.371  21.869  0.00  0.00    +0.157 HD
ATOM     11  O   UNL     1      10.964   1.557  24.208  0.00  0.00    -0.267 OA
BRANCH   9  12
ATOM     12  C   UNL     1      11.002   4.274  23.278  0.00  0.00    +0.121 A 
ATOM     13  N   UNL     1      12.362   4.381  23.363  0.00  0.00    -0.264 N 
ATOM     14  H   UNL     1      13.073   3.729  23.043  0.00  0.00    +0.190 HD
ATOM     15  N   UNL     1      12.782   5.513  23.953  0.00  0.00    -0.181 NA
ATOM     16  C   UNL     1      11.649   6.151  24.250  0.00  0.00    +0.136 A 
ATOM     17  C   UNL     1      10.509   5.425  23.856  0.00  0.00    +0.064 A 
ENDBRANCH   9  12
ENDBRANCH   6   8
ENDBRANCH   5   6
BRANCH   5  18
ATOM     18  C   UNL     1       6.905   1.476  22.545  0.00  0.00    +0.030 C 
BRANCH  18  19
ATOM     19  C   UNL     1       6.724   2.867  23.154  0.00  0.00    +0.002 C 
BRANCH  19  20
ATOM     20  C   UNL     1       6.874   3.959  22.092  0.00  0.00    -0.003 C 
ATOM     21  C   UNL     1       6.943   5.340  22.723  0.00  0.00    +0.004 C 
ENDBRANCH  19  20
ENDBRANCH  18  19
ENDBRANCH   5  18
ENDBRANCH   1   5
BRANCH   3  22
ATOM     22  O   UNL     1       8.529  -1.036  25.373  0.00  0.00    -0.450 OA
BRANCH  22  23
ATOM     23  C   UNL     1       8.423  -2.016  26.425  0.00  0.00    +0.241 C 
BRANCH  23  24
ATOM     24  C   UNL     1       8.228  -3.393  25.779  0.00  0.00    +0.009 C 
ATOM     25  C   UNL     1       8.912  -4.495  26.655  0.00  0.00    +0.010 C 
ATOM     26  C   UNL     1       9.514  -5.093  25.374  0.00  0.00    +0.001 C 
ATOM     27  C   UNL     1       9.298  -3.731  24.690  0.00  0.00    +0.010 C 
BRANCH  24  28
ATOM     28  C   UNL     1       6.763  -3.733  25.435  0.00  0.00    +0.045 C 
BRANCH  28  29
ATOM     29  C   UNL     1       6.568  -4.183  24.002  0.00  0.00    -0.047 A 
ATOM     30  C   UNL     1       6.424  -3.243  22.967  0.00  0.00    +0.006 A 
ATOM     31  C   UNL     1       6.239  -3.657  21.646  0.00  0.00    +0.038 A 
ATOM     32  C   UNL     1       6.174  -5.014  21.358  0.00  0.00    +0.123 A 
ATOM     33  F   UNL     1       5.985  -5.411  20.094  0.00  0.00    -0.205 F 
ATOM     34  C   UNL     1       6.298  -5.962  22.366  0.00  0.00    +0.038 A 
ATOM     35  C   UNL     1       6.499  -5.548  23.684  0.00  0.00    +0.006 A 
ENDBRANCH  28  29
ENDBRANCH  24  28
ENDBRANCH  23  24
ENDBRANCH  22  23
ENDBRANCH   3  22
TORSDOF 12
ENDMDL
MODEL 7
REMARK VINA RESULT:      -6.6      4.224      6.064
REMARK  Name = 
REMARK  13 active torsions:
REMARK  status: ('A' for Active; 'I' for Inactive)
REMARK    1  A    between atoms: C_2  and  C_3
REMARK    2  A    between atoms: C_2  and  N_7
REMARK    3  A    between atoms: C_2  and  C_24
REMARK    4  A    between atoms: C_3  and  C_4
REMARK    5  A    between atoms: C_4  and  C_5
REMARK    6  A    between atoms: C_5  and  C_6
REMARK    7  A    between atoms: C_8  and  O_10
REMARK    8  A    between atoms: O_10  and  C_11
REMARK    9  A    between atoms: C_11  and  C_12
REMARK   10  A    between atoms: C_12  and  C_13
REMARK   11  A    between atoms: C_13  and  C_14
REMARK   12  A    between atoms: C_24  and  C_26
REMARK   13  A    between atoms: N_28  and  C_29
REMARK                            x       y       z     vdW  Elec       q    Type
REMARK                         _______ _______ _______ _____ _____    ______ ____
ROOT
ATOM      1  N   UNL     1       9.565  -2.450  24.184  0.00  0.00    -0.271 N 
ATOM      2  H   UNL     1      10.409  -2.967  24.407  0.00  0.00    +0.153 HD
ATOM      3  C   UNL     1       9.683  -1.785  22.998  0.00  0.00    +0.401 C 
ATOM      4  O   UNL     1      10.674  -1.911  22.298  0.00  0.00    -0.226 OA
ENDROOT
BRANCH   1   5
ATOM      5  C   UNL     1       8.302  -3.001  24.665  0.00  0.00    +0.152 C 
BRANCH   5   6
ATOM      6  C   UNL     1       8.205  -2.726  26.160  0.00  0.00    +0.238 C 
ATOM      7  O   UNL     1       8.045  -3.561  27.045  0.00  0.00    -0.285 OA
BRANCH   6   8
ATOM      8  C   UNL     1       8.357  -1.274  26.570  0.00  0.00    +0.287 C 
ATOM      9  N   UNL     1       7.145  -0.663  27.045  0.00  0.00    -0.264 N 
ATOM     10  H   UNL     1       6.303  -1.235  27.014  0.00  0.00    +0.157 HD
ATOM     11  O   UNL     1       9.413  -0.679  26.485  0.00  0.00    -0.267 OA
BRANCH   9  12
ATOM     12  C   UNL     1       7.088   0.633  27.547  0.00  0.00    +0.121 A 
ATOM     13  N   UNL     1       7.599   1.055  28.742  0.00  0.00    -0.264 N 
ATOM     14  H   UNL     1       8.085   0.515  29.453  0.00  0.00    +0.190 HD
ATOM     15  N   UNL     1       7.417   2.365  28.979  0.00  0.00    -0.181 NA
ATOM     16  C   UNL     1       6.772   2.793  27.892  0.00  0.00    +0.136 A 
ATOM     17  C   UNL     1       6.538   1.756  26.969  0.00  0.00    +0.064 A 
ENDBRANCH   9  12
ENDBRANCH   6   8
ENDBRANCH   5   6
BRANCH   5  18
ATOM     18  C   UNL     1       8.282  -4.508  24.362  0.00  0.00    +0.030 C 
BRANCH  18  19
ATOM     19  C   UNL     1       7.029  -4.970  23.618  0.00  0.00    +0.002 C 
BRANCH  19  20
ATOM     20  C   UNL     1       6.128  -3.786  23.262  0.00  0.00    -0.003 C 
ATOM     21  C   UNL     1       6.109  -3.535  21.763  0.00  0.00    +0.004 C 
ENDBRANCH  19  20
ENDBRANCH  18  19
ENDBRANCH   5  18
ENDBRANCH   1   5
BRANCH   3  22
ATOM     22  O   UNL     1       8.625  -0.980  22.750  0.00  0.00    -0.450 OA
BRANCH  22  23
ATOM     23  C   UNL     1       8.922   0.270  22.094  0.00  0.00    +0.241 C 
BRANCH  23  24
ATOM     24  C   UNL     1       8.157   1.385  22.819  0.00  0.00    +0.009 C 
ATOM     25  C   UNL     1       6.656   0.978  22.992  0.00  0.00    +0.010 C 
ATOM     26  C   UNL     1       6.255   2.383  22.520  0.00  0.00    +0.001 C 
ATOM     27  C   UNL     1       7.641   2.511  21.864  0.00  0.00    +0.010 C 
BRANCH  24  28
ATOM     28  C   UNL     1       8.804   1.844  24.142  0.00  0.00    +0.045 C 
BRANCH  28  29
ATOM     29  C   UNL     1       9.676   3.075  23.993  0.00  0.00    -0.047 A 
ATOM     30  C   UNL     1       9.195   4.344  24.355  0.00  0.00    +0.006 A 
ATOM     31  C   UNL     1       9.996   5.479  24.212  0.00  0.00    +0.038 A 
ATOM     32  C   UNL     1      11.275   5.351  23.684  0.00  0.00    +0.123 A 
ATOM     33  F   UNL     1      12.038   6.440  23.535  0.00  0.00    -0.205 F 
ATOM     34  C   UNL     1      11.767   4.109  23.304  0.00  0.00    +0.038 A 
ATOM     35  C   UNL     1      10.971   2.972  23.461  0.00  0.00    +0.006 A 
ENDBRANCH  28  29
ENDBRANCH  24  28
ENDBRANCH  23  24
ENDBRANCH  22  23
ENDBRANCH   3  22
TORSDOF 12
ENDMDL
MODEL 8
REMARK VINA RESULT:      -6.6      2.767      4.797
REMARK  Name = 
REMARK  13 active torsions:
REMARK  status: ('A' for Active; 'I' for Inactive)
REMARK    1  A    between atoms: C_2  and  C_3
REMARK    2  A    between atoms: C_2  and  N_7
REMARK    3  A    between atoms: C_2  and  C_24
REMARK    4  A    between atoms: C_3  and  C_4
REMARK    5  A    between atoms: C_4  and  C_5
REMARK    6  A    between atoms: C_5  and  C_6
REMARK    7  A    between atoms: C_8  and  O_10
REMARK    8  A    between atoms: O_10  and  C_11
REMARK    9  A    between atoms: C_11  and  C_12
REMARK   10  A    between atoms: C_12  and  C_13
REMARK   11  A    between atoms: C_13  and  C_14
REMARK   12  A    between atoms: C_24  and  C_26
REMARK   13  A    between atoms: N_28  and  C_29
REMARK                            x       y       z     vdW  Elec       q    Type
REMARK                         _______ _______ _______ _____ _____    ______ ____
ROOT
ATOM      1  N   UNL     1       5.416  -3.454  24.573  0.00  0.00    -0.271 N 
ATOM      2  H   UNL     1       4.701  -3.711  25.245  0.00  0.00    +0.153 HD
ATOM      3  C   UNL     1       5.584  -2.101  24.512  0.00  0.00    +0.401 C 
ATOM      4  O   UNL     1       4.980  -1.354  25.264  0.00  0.00    -0.226 OA
ENDROOT
BRANCH   1   5
ATOM      5  C   UNL     1       6.508  -4.402  24.371  0.00  0.00    +0.152 C 
BRANCH   5   6
ATOM      6  C   UNL     1       6.100  -5.364  23.263  0.00  0.00    +0.238 C 
ATOM      7  O   UNL     1       6.839  -5.850  22.412  0.00  0.00    -0.285 OA
BRANCH   6   8
ATOM      8  C   UNL     1       4.639  -5.767  23.252  0.00  0.00    +0.287 C 
ATOM      9  N   UNL     1       4.357  -6.994  23.949  0.00  0.00    -0.264 N 
ATOM     10  H   UNL     1       5.158  -7.494  24.332  0.00  0.00    +0.157 HD
ATOM     11  O   UNL     1       3.785  -5.114  22.687  0.00  0.00    -0.267 OA
BRANCH   9  12
ATOM     12  C   UNL     1       3.072  -7.494  24.128  0.00  0.00    +0.121 A 
ATOM     13  N   UNL     1       2.169  -7.762  23.138  0.00  0.00    -0.264 N 
ATOM     14  H   UNL     1       2.269  -7.641  22.134  0.00  0.00    +0.190 HD
ATOM     15  N   UNL     1       1.001  -8.252  23.587  0.00  0.00    -0.181 NA
ATOM     16  C   UNL     1       1.169  -8.302  24.909  0.00  0.00    +0.136 A 
ATOM     17  C   UNL     1       2.439  -7.839  25.303  0.00  0.00    +0.064 A 
ENDBRANCH   9  12
ENDBRANCH   6   8
ENDBRANCH   5   6
BRANCH   5  18
ATOM     18  C   UNL     1       6.764  -5.138  25.696  0.00  0.00    +0.030 C 
BRANCH  18  19
ATOM     19  C   UNL     1       7.647  -4.361  26.672  0.00  0.00    +0.002 C 
BRANCH  19  20
ATOM     20  C   UNL     1       8.924  -3.867  25.989  0.00  0.00    -0.003 C 
ATOM     21  C   UNL     1       9.784  -5.028  25.517  0.00  0.00    +0.004 C 
ENDBRANCH  19  20
ENDBRANCH  18  19
ENDBRANCH   5  18
ENDBRANCH   1   5
BRANCH   3  22
ATOM     22  O   UNL     1       6.432  -1.731  23.525  0.00  0.00    -0.450 OA
BRANCH  22  23
ATOM     23  C   UNL     1       6.970  -0.397  23.622  0.00  0.00    +0.241 C 
BRANCH  23  24
ATOM     24  C   UNL     1       8.488  -0.476  23.411  0.00  0.00    +0.009 C 
ATOM     25  C   UNL     1       8.857   0.052  21.985  0.00  0.00    +0.010 C 
ATOM     26  C   UNL     1       9.779  -1.164  21.810  0.00  0.00    +0.001 C 
ATOM     27  C   UNL     1       8.978  -1.876  22.915  0.00  0.00    +0.010 C 
BRANCH  24  28
ATOM     28  C   UNL     1       9.321   0.192  24.525  0.00  0.00    +0.045 C 
BRANCH  28  29
ATOM     29  C   UNL     1       9.552   1.672  24.300  0.00  0.00    -0.047 A 
ATOM     30  C   UNL     1       8.568   2.614  24.647  0.00  0.00    +0.006 A 
ATOM     31  C   UNL     1       8.779   3.979  24.434  0.00  0.00    +0.038 A 
ATOM     32  C   UNL     1       9.967   4.404  23.852  0.00  0.00    +0.123 A 
ATOM     33  F   UNL     1      10.164   5.711  23.637  0.00  0.00    -0.205 F 
ATOM     34  C   UNL     1      10.948   3.491  23.487  0.00  0.00    +0.038 A 
ATOM     35  C   UNL     1      10.743   2.128  23.714  0.00  0.00    +0.006 A 
ENDBRANCH  28  29
ENDBRANCH  24  28
ENDBRANCH  23  24
ENDBRANCH  22  23
ENDBRANCH   3  22
TORSDOF 12
ENDMDL
MODEL 9
REMARK VINA RESULT:      -6.5      2.948      4.321
REMARK  Name = 
REMARK  13 active torsions:
REMARK  status: ('A' for Active; 'I' for Inactive)
REMARK    1  A    between atoms: C_2  and  C_3
REMARK    2  A    between atoms: C_2  and  N_7
REMARK    3  A    between atoms: C_2  and  C_24
REMARK    4  A    between atoms: C_3  and  C_4
REMARK    5  A    between atoms: C_4  and  C_5
REMARK    6  A    between atoms: C_5  and  C_6
REMARK    7  A    between atoms: C_8  and  O_10
REMARK    8  A    between atoms: O_10  and  C_11
REMARK    9  A    between atoms: C_11  and  C_12
REMARK   10  A    between atoms: C_12  and  C_13
REMARK   11  A    between atoms: C_13  and  C_14
REMARK   12  A    between atoms: C_24  and  C_26
REMARK   13  A    between atoms: N_28  and  C_29
REMARK                            x       y       z     vdW  Elec       q    Type
REMARK                         _______ _______ _______ _____ _____    ______ ____
ROOT
ATOM      1  N   UNL     1       9.556  -2.920  23.760  0.00  0.00    -0.271 N 
ATOM      2  H   UNL     1      10.360  -3.522  23.617  0.00  0.00    +0.153 HD
ATOM      3  C   UNL     1       9.641  -1.784  23.008  0.00  0.00    +0.401 C 
ATOM      4  O   UNL     1      10.552  -1.615  22.216  0.00  0.00    -0.226 OA
ENDROOT
BRANCH   1   5
ATOM      5  C   UNL     1       8.288  -3.569  24.081  0.00  0.00    +0.152 C 
BRANCH   5   6
ATOM      6  C   UNL     1       8.594  -4.843  24.859  0.00  0.00    +0.238 C 
ATOM      7  O   UNL     1       9.443  -5.682  24.577  0.00  0.00    -0.285 OA
BRANCH   6   8
ATOM      8  C   UNL     1       7.774  -5.053  26.116  0.00  0.00    +0.287 C 
ATOM      9  N   UNL     1       6.589  -5.846  25.926  0.00  0.00    -0.264 N 
ATOM     10  H   UNL     1       6.388  -6.143  24.972  0.00  0.00    +0.157 HD
ATOM     11  O   UNL     1       8.088  -4.575  27.188  0.00  0.00    -0.267 OA
BRANCH   9  12
ATOM     12  C   UNL     1       5.748  -6.225  26.966  0.00  0.00    +0.121 A 
ATOM     13  N   UNL     1       6.139  -6.741  28.169  0.00  0.00    -0.264 N 
ATOM     14  H   UNL     1       7.079  -6.938  28.502  0.00  0.00    +0.190 HD
ATOM     15  N   UNL     1       5.120  -7.012  29.002  0.00  0.00    -0.181 NA
ATOM     16  C   UNL     1       4.041  -6.651  28.305  0.00  0.00    +0.136 A 
ATOM     17  C   UNL     1       4.372  -6.157  27.028  0.00  0.00    +0.064 A 
ENDBRANCH   9  12
ENDBRANCH   6   8
ENDBRANCH   5   6
BRANCH   5  18
ATOM     18  C   UNL     1       7.550  -3.870  22.766  0.00  0.00    +0.030 C 
BRANCH  18  19
ATOM     19  C   UNL     1       6.046  -3.603  22.829  0.00  0.00    +0.002 C 
BRANCH  19  20
ATOM     20  C   UNL     1       5.250  -4.907  22.743  0.00  0.00    -0.003 C 
ATOM     21  C   UNL     1       6.115  -6.054  22.247  0.00  0.00    +0.004 C 
ENDBRANCH  19  20
ENDBRANCH  18  19
ENDBRANCH   5  18
ENDBRANCH   1   5
BRANCH   3  22
ATOM     22  O   UNL     1       8.650  -0.905  23.288  0.00  0.00    -0.450 OA
BRANCH  22  23
ATOM     23  C   UNL     1       9.013   0.209  24.128  0.00  0.00    +0.241 C 
BRANCH  23  24
ATOM     24  C   UNL     1       7.972   0.322  25.249  0.00  0.00    +0.009 C 
ATOM     25  C   UNL     1       8.329  -0.665  26.410  0.00  0.00    +0.010 C 
ATOM     26  C   UNL     1       6.856  -1.095  26.453  0.00  0.00    +0.001 C 
ATOM     27  C   UNL     1       6.704  -0.562  25.017  0.00  0.00    +0.010 C 
BRANCH  24  28
ATOM     28  C   UNL     1       7.729   1.762  25.749  0.00  0.00    +0.045 C 
BRANCH  28  29
ATOM     29  C   UNL     1       7.646   2.782  24.632  0.00  0.00    -0.047 A 
ATOM     30  C   UNL     1       8.644   3.760  24.476  0.00  0.00    +0.006 A 
ATOM     31  C   UNL     1       8.565   4.704  23.450  0.00  0.00    +0.038 A 
ATOM     32  C   UNL     1       7.476   4.687  22.588  0.00  0.00    +0.123 A 
ATOM     33  F   UNL     1       7.394   5.599  21.612  0.00  0.00    -0.205 F 
ATOM     34  C   UNL     1       6.470   3.740  22.730  0.00  0.00    +0.038 A 
ATOM     35  C   UNL     1       6.557   2.787  23.747  0.00  0.00    +0.006 A 
ENDBRANCH  28  29
ENDBRANCH  24  28
ENDBRANCH  23  24
ENDBRANCH  22  23
ENDBRANCH   3  22
TORSDOF 12
ENDMDL
