MODEL 1
REMARK VINA RESULT:      -5.3      0.000      0.000
REMARK  Name = 
REMARK  15 active torsions:
REMARK  status: ('A' for Active; 'I' for Inactive)
REMARK    1  A    between atoms: C_1  and  C_2
REMARK    2  A    between atoms: C_2  and  C_3
REMARK    3  A    between atoms: C_3  and  C_4
REMARK    4  A    between atoms: C_4  and  C_5
REMARK    5  A    between atoms: C_5  and  C_6
REMARK    6  A    between atoms: C_6  and  C_7
REMARK    7  A    between atoms: C_7  and  C_8
REMARK    8  A    between atoms: C_8  and  C_9
REMARK    9  A    between atoms: C_9  and  O_10
REMARK   10  A    between atoms: C_9  and  P_11
REMARK   11  A    between atoms: C_9  and  P_15
REMARK   12  A    between atoms: P_11  and  O_12
REMARK   13  A    between atoms: P_11  and  O_13
REMARK   14  A    between atoms: P_15  and  O_16
REMARK   15  A    between atoms: P_15  and  O_17
REMARK                            x       y       z     vdW  Elec       q    Type
REMARK                         _______ _______ _______ _____ _____    ______ ____
ROOT
ATOM      1  C   UNL     1       8.534  -3.866  24.912  0.00  0.00    +0.267 C 
ENDROOT
BRANCH   1   2
ATOM      2  P   UNL     1       7.527  -4.275  23.440  0.00  0.00    +0.371 P 
ATOM      3  O   UNL     1       6.675  -4.621  22.194  0.00  0.00    -0.255 OA
BRANCH   2   4
ATOM      4  O   UNL     1       6.335  -4.931  24.391  0.00  0.00    -0.322 OA
ATOM      5  H   UNL     1       6.722  -5.803  24.651  0.00  0.00    +0.220 HD
ENDBRANCH   2   4
BRANCH   2   6
ATOM      6  O   UNL     1       8.366  -5.704  23.364  0.00  0.00    -0.322 OA
ATOM      7  H   UNL     1       8.998  -5.760  24.113  0.00  0.00    +0.220 HD
ENDBRANCH   2   6
ENDBRANCH   1   2
BRANCH   1   8
ATOM      8  P   UNL     1       7.987  -4.887  26.329  0.00  0.00    +0.371 P 
ATOM      9  O   UNL     1       7.524  -5.750  27.527  0.00  0.00    -0.255 OA
BRANCH   8  10
ATOM     10  O   UNL     1       7.241  -3.570  26.970  0.00  0.00    -0.322 OA
ATOM     11  H   UNL     1       6.704  -3.683  27.797  0.00  0.00    +0.220 HD
ENDBRANCH   8  10
BRANCH   8  12
ATOM     12  O   UNL     1       9.464  -4.731  27.015  0.00  0.00    -0.322 OA
ATOM     13  H   UNL     1       9.887  -3.975  26.544  0.00  0.00    +0.220 HD
ENDBRANCH   8  12
ENDBRANCH   1   8
BRANCH   1  14
ATOM     14  O   UNL     1       9.949  -4.139  24.600  0.00  0.00    -0.367 OA
ATOM     15  H   UNL     1      10.406  -4.346  25.436  0.00  0.00    +0.212 HD
ENDBRANCH   1  14
BRANCH   1  16
ATOM     16  C   UNL     1       8.497  -2.379  25.281  0.00  0.00    +0.060 C 
BRANCH  16  17
ATOM     17  C   UNL     1       9.587  -1.544  24.618  0.00  0.00    +0.004 C 
BRANCH  17  18
ATOM     18  C   UNL     1       9.690  -0.149  25.240  0.00  0.00    +0.000 C 
BRANCH  18  19
ATOM     19  C   UNL     1      10.741   0.737  24.562  0.00  0.00    +0.000 C 
BRANCH  19  20
ATOM     20  C   UNL     1      10.144   1.982  23.905  0.00  0.00    -0.000 C 
BRANCH  20  21
ATOM     21  C   UNL     1      10.219   1.921  22.379  0.00  0.00    -0.000 C 
BRANCH  21  23
ATOM     22  C   UNL     1       9.343  -0.133  21.243  0.00  0.00    +0.004 C 
ATOM     23  C   UNL     1       8.991   1.245  21.777  0.00  0.00    -0.003 C 
ENDBRANCH  21  23
ENDBRANCH  20  21
ENDBRANCH  19  20
ENDBRANCH  18  19
ENDBRANCH  17  18
ENDBRANCH  16  17
ENDBRANCH   1  16
TORSDOF 14
ENDMDL
MODEL 2
REMARK VINA RESULT:      -5.2      1.002      1.954
REMARK  Name = 
REMARK  15 active torsions:
REMARK  status: ('A' for Active; 'I' for Inactive)
REMARK    1  A    between atoms: C_1  and  C_2
REMARK    2  A    between atoms: C_2  and  C_3
REMARK    3  A    between atoms: C_3  and  C_4
REMARK    4  A    between atoms: C_4  and  C_5
REMARK    5  A    between atoms: C_5  and  C_6
REMARK    6  A    between atoms: C_6  and  C_7
REMARK    7  A    between atoms: C_7  and  C_8
REMARK    8  A    between atoms: C_8  and  C_9
REMARK    9  A    between atoms: C_9  and  O_10
REMARK   10  A    between atoms: C_9  and  P_11
REMARK   11  A    between atoms: C_9  and  P_15
REMARK   12  A    between atoms: P_11  and  O_12
REMARK   13  A    between atoms: P_11  and  O_13
REMARK   14  A    between atoms: P_15  and  O_16
REMARK   15  A    between atoms: P_15  and  O_17
REMARK                            x       y       z     vdW  Elec       q    Type
REMARK                         _______ _______ _______ _____ _____    ______ ____
ROOT
ATOM      1  C   UNL     1       8.181  -4.535  24.832  0.00  0.00    +0.267 C 
ENDROOT
BRANCH   1   2
ATOM      2  P   UNL     1       6.811  -4.915  23.680  0.00  0.00    +0.371 P 
ATOM      3  O   UNL     1       5.652  -5.236  22.704  0.00  0.00    -0.255 OA
BRANCH   2   4
ATOM      4  O   UNL     1       6.067  -3.472  24.028  0.00  0.00    -0.322 OA
ATOM      5  H   UNL     1       5.528  -3.306  23.217  0.00  0.00    +0.220 HD
ENDBRANCH   2   4
BRANCH   2   6
ATOM      6  O   UNL     1       6.072  -5.694  24.944  0.00  0.00    -0.322 OA
ATOM      7  H   UNL     1       5.335  -5.145  25.289  0.00  0.00    +0.220 HD
ENDBRANCH   2   6
ENDBRANCH   1   2
BRANCH   1   8
ATOM      8  P   UNL     1       7.769  -5.165  26.500  0.00  0.00    +0.371 P 
ATOM      9  O   UNL     1       7.419  -5.699  27.911  0.00  0.00    -0.255 OA
BRANCH   8  10
ATOM     10  O   UNL     1       7.037  -3.734  26.844  0.00  0.00    -0.322 OA
ATOM     11  H   UNL     1       6.102  -3.745  27.174  0.00  0.00    +0.220 HD
ENDBRANCH   8  10
BRANCH   8  12
ATOM     12  O   UNL     1       9.288  -4.830  27.005  0.00  0.00    -0.322 OA
ATOM     13  H   UNL     1       9.182  -4.124  27.686  0.00  0.00    +0.220 HD
ENDBRANCH   8  12
ENDBRANCH   1   8
BRANCH   1  14
ATOM     14  O   UNL     1       9.406  -5.181  24.328  0.00  0.00    -0.367 OA
ATOM     15  H   UNL     1      10.080  -4.488  24.202  0.00  0.00    +0.212 HD
ENDBRANCH   1  14
BRANCH   1  16
ATOM     16  C   UNL     1       8.525  -3.043  24.896  0.00  0.00    +0.060 C 
BRANCH  16  17
ATOM     17  C   UNL     1       9.567  -2.598  23.876  0.00  0.00    +0.004 C 
BRANCH  17  18
ATOM     18  C   UNL     1       8.917  -2.031  22.611  0.00  0.00    +0.000 C 
BRANCH  18  19
ATOM     19  C   UNL     1       9.866  -1.152  21.789  0.00  0.00    +0.000 C 
BRANCH  19  20
ATOM     20  C   UNL     1       9.301   0.240  21.505  0.00  0.00    -0.000 C 
BRANCH  20  21
ATOM     21  C   UNL     1      10.122   1.344  22.172  0.00  0.00    -0.000 C 
BRANCH  21  23
ATOM     22  C   UNL     1      10.896   0.862  24.506  0.00  0.00    +0.004 C 
ATOM     23  C   UNL     1       9.796   1.474  23.657  0.00  0.00    -0.003 C 
ENDBRANCH  21  23
ENDBRANCH  20  21
ENDBRANCH  19  20
ENDBRANCH  18  19
ENDBRANCH  17  18
ENDBRANCH  16  17
ENDBRANCH   1  16
TORSDOF 14
ENDMDL
MODEL 3
REMARK VINA RESULT:      -5.1      0.916      1.465
REMARK  Name = 
REMARK  15 active torsions:
REMARK  status: ('A' for Active; 'I' for Inactive)
REMARK    1  A    between atoms: C_1  and  C_2
REMARK    2  A    between atoms: C_2  and  C_3
REMARK    3  A    between atoms: C_3  and  C_4
REMARK    4  A    between atoms: C_4  and  C_5
REMARK    5  A    between atoms: C_5  and  C_6
REMARK    6  A    between atoms: C_6  and  C_7
REMARK    7  A    between atoms: C_7  and  C_8
REMARK    8  A    between atoms: C_8  and  C_9
REMARK    9  A    between atoms: C_9  and  O_10
REMARK   10  A    between atoms: C_9  and  P_11
REMARK   11  A    between atoms: C_9  and  P_15
REMARK   12  A    between atoms: P_11  and  O_12
REMARK   13  A    between atoms: P_11  and  O_13
REMARK   14  A    between atoms: P_15  and  O_16
REMARK   15  A    between atoms: P_15  and  O_17
REMARK                            x       y       z     vdW  Elec       q    Type
REMARK                         _______ _______ _______ _____ _____    ______ ____
ROOT
ATOM      1  C   UNL     1       8.151  -3.996  24.829  0.00  0.00    +0.267 C 
ENDROOT
BRANCH   1   2
ATOM      2  P   UNL     1       7.070  -4.631  23.497  0.00  0.00    +0.371 P 
ATOM      3  O   UNL     1       6.155  -5.170  22.370  0.00  0.00    -0.255 OA
BRANCH   2   4
ATOM      4  O   UNL     1       8.175  -5.808  23.109  0.00  0.00    -0.322 OA
ATOM      5  H   UNL     1       9.038  -5.337  23.216  0.00  0.00    +0.220 HD
ENDBRANCH   2   4
BRANCH   2   6
ATOM      6  O   UNL     1       7.784  -3.517  22.497  0.00  0.00    -0.322 OA
ATOM      7  H   UNL     1       7.279  -3.450  21.658  0.00  0.00    +0.220 HD
ENDBRANCH   2   6
ENDBRANCH   1   2
BRANCH   1   8
ATOM      8  P   UNL     1       7.814  -4.910  26.377  0.00  0.00    +0.371 P 
ATOM      9  O   UNL     1       7.529  -5.684  27.688  0.00  0.00    -0.255 OA
BRANCH   8  10
ATOM     10  O   UNL     1       9.010  -5.970  25.994  0.00  0.00    -0.322 OA
ATOM     11  H   UNL     1       8.822  -6.943  26.054  0.00  0.00    +0.220 HD
ENDBRANCH   8  10
BRANCH   8  12
ATOM     12  O   UNL     1       6.543  -5.655  25.664  0.00  0.00    -0.322 OA
ATOM     13  H   UNL     1       6.913  -6.069  24.850  0.00  0.00    +0.220 HD
ENDBRANCH   8  12
ENDBRANCH   1   8
BRANCH   1  14
ATOM     14  O   UNL     1       9.555  -4.183  24.418  0.00  0.00    -0.367 OA
ATOM     15  H   UNL     1      10.023  -4.630  25.148  0.00  0.00    +0.212 HD
ENDBRANCH   1  14
BRANCH   1  16
ATOM     16  C   UNL     1       8.011  -2.487  25.059  0.00  0.00    +0.060 C 
BRANCH  16  17
ATOM     17  C   UNL     1       9.303  -1.702  24.860  0.00  0.00    +0.004 C 
BRANCH  17  18
ATOM     18  C   UNL     1       9.235  -0.321  25.519  0.00  0.00    +0.000 C 
BRANCH  18  19
ATOM     19  C   UNL     1      10.291   0.653  24.986  0.00  0.00    +0.000 C 
BRANCH  19  20
ATOM     20  C   UNL     1      10.647   0.409  23.519  0.00  0.00    -0.000 C 
BRANCH  20  21
ATOM     21  C   UNL     1      10.110   1.509  22.604  0.00  0.00    -0.000 C 
BRANCH  21  23
ATOM     22  C   UNL     1       9.348  -0.511  21.334  0.00  0.00    +0.004 C 
ATOM     23  C   UNL     1       9.106   0.966  21.592  0.00  0.00    -0.003 C 
ENDBRANCH  21  23
ENDBRANCH  20  21
ENDBRANCH  19  20
ENDBRANCH  18  19
ENDBRANCH  17  18
ENDBRANCH  16  17
ENDBRANCH   1  16
TORSDOF 14
ENDMDL
MODEL 4
REMARK VINA RESULT:      -5.1      1.277      3.428
REMARK  Name = 
REMARK  15 active torsions:
REMARK  status: ('A' for Active; 'I' for Inactive)
REMARK    1  A    between atoms: C_1  and  C_2
REMARK    2  A    between atoms: C_2  and  C_3
REMARK    3  A    between atoms: C_3  and  C_4
REMARK    4  A    between atoms: C_4  and  C_5
REMARK    5  A    between atoms: C_5  and  C_6
REMARK    6  A    between atoms: C_6  and  C_7
REMARK    7  A    between atoms: C_7  and  C_8
REMARK    8  A    between atoms: C_8  and  C_9
REMARK    9  A    between atoms: C_9  and  O_10
REMARK   10  A    between atoms: C_9  and  P_11
REMARK   11  A    between atoms: C_9  and  P_15
REMARK   12  A    between atoms: P_11  and  O_12
REMARK   13  A    between atoms: P_11  and  O_13
REMARK   14  A    between atoms: P_15  and  O_16
REMARK   15  A    between atoms: P_15  and  O_17
REMARK                            x       y       z     vdW  Elec       q    Type
REMARK                         _______ _______ _______ _____ _____    ______ ____
ROOT
ATOM      1  C   UNL     1       7.518  -4.115  25.148  0.00  0.00    +0.267 C 
ENDROOT
BRANCH   1   2
ATOM      2  P   UNL     1       7.409  -5.059  26.712  0.00  0.00    +0.371 P 
ATOM      3  O   UNL     1       7.317  -5.858  28.035  0.00  0.00    -0.255 OA
BRANCH   2   4
ATOM      4  O   UNL     1       8.764  -5.935  26.321  0.00  0.00    -0.322 OA
ATOM      5  H   UNL     1       8.856  -5.767  25.351  0.00  0.00    +0.220 HD
ENDBRANCH   2   4
BRANCH   2   6
ATOM      6  O   UNL     1       6.402  -6.108  25.914  0.00  0.00    -0.322 OA
ATOM      7  H   UNL     1       6.626  -7.033  26.153  0.00  0.00    +0.220 HD
ENDBRANCH   2   6
ENDBRANCH   1   2
BRANCH   1   8
ATOM      8  P   UNL     1       6.681  -5.044  23.814  0.00  0.00    +0.371 P 
ATOM      9  O   UNL     1       5.972  -5.832  22.684  0.00  0.00    -0.255 OA
BRANCH   8  10
ATOM     10  O   UNL     1       8.144  -5.571  23.283  0.00  0.00    -0.322 OA
ATOM     11  H   UNL     1       8.913  -5.556  23.910  0.00  0.00    +0.220 HD
ENDBRANCH   8  10
BRANCH   8  12
ATOM     12  O   UNL     1       6.544  -3.669  22.937  0.00  0.00    -0.322 OA
ATOM     13  H   UNL     1       5.612  -3.374  23.066  0.00  0.00    +0.220 HD
ENDBRANCH   8  12
ENDBRANCH   1   8
BRANCH   1  14
ATOM     14  O   UNL     1       6.867  -2.807  25.348  0.00  0.00    -0.367 OA
ATOM     15  H   UNL     1       6.221  -2.901  26.073  0.00  0.00    +0.212 HD
ENDBRANCH   1  14
BRANCH   1  16
ATOM     16  C   UNL     1       8.956  -3.776  24.742  0.00  0.00    +0.060 C 
BRANCH  16  17
ATOM     17  C   UNL     1       9.218  -2.285  24.555  0.00  0.00    +0.004 C 
BRANCH  17  18
ATOM     18  C   UNL     1       9.954  -1.998  23.244  0.00  0.00    +0.000 C 
BRANCH  18  19
ATOM     19  C   UNL     1       9.044  -1.417  22.156  0.00  0.00    +0.000 C 
BRANCH  19  20
ATOM     20  C   UNL     1       9.660  -0.218  21.434  0.00  0.00    -0.000 C 
BRANCH  20  21
ATOM     21  C   UNL     1       9.068   1.109  21.910  0.00  0.00    -0.000 C 
BRANCH  21  23
ATOM     22  C   UNL     1      10.490   1.663  23.896  0.00  0.00    +0.004 C 
ATOM     23  C   UNL     1      10.140   2.041  22.468  0.00  0.00    -0.003 C 
ENDBRANCH  21  23
ENDBRANCH  20  21
ENDBRANCH  19  20
ENDBRANCH  18  19
ENDBRANCH  17  18
ENDBRANCH  16  17
ENDBRANCH   1  16
TORSDOF 14
ENDMDL
MODEL 5
REMARK VINA RESULT:      -5.1      1.637      3.760
REMARK  Name = 
REMARK  15 active torsions:
REMARK  status: ('A' for Active; 'I' for Inactive)
REMARK    1  A    between atoms: C_1  and  C_2
REMARK    2  A    between atoms: C_2  and  C_3
REMARK    3  A    between atoms: C_3  and  C_4
REMARK    4  A    between atoms: C_4  and  C_5
REMARK    5  A    between atoms: C_5  and  C_6
REMARK    6  A    between atoms: C_6  and  C_7
REMARK    7  A    between atoms: C_7  and  C_8
REMARK    8  A    between atoms: C_8  and  C_9
REMARK    9  A    between atoms: C_9  and  O_10
REMARK   10  A    between atoms: C_9  and  P_11
REMARK   11  A    between atoms: C_9  and  P_15
REMARK   12  A    between atoms: P_11  and  O_12
REMARK   13  A    between atoms: P_11  and  O_13
REMARK   14  A    between atoms: P_15  and  O_16
REMARK   15  A    between atoms: P_15  and  O_17
REMARK                            x       y       z     vdW  Elec       q    Type
REMARK                         _______ _______ _______ _____ _____    ______ ____
ROOT
ATOM      1  C   UNL     1       7.022  -3.488  23.250  0.00  0.00    +0.267 C 
ENDROOT
BRANCH   1   2
ATOM      2  P   UNL     1       8.387  -4.314  24.147  0.00  0.00    +0.371 P 
ATOM      3  O   UNL     1       9.542  -5.013  24.904  0.00  0.00    -0.255 OA
BRANCH   2   4
ATOM      4  O   UNL     1       8.256  -5.660  23.183  0.00  0.00    -0.322 OA
ATOM      5  H   UNL     1       9.007  -5.546  22.550  0.00  0.00    +0.220 HD
ENDBRANCH   2   4
BRANCH   2   6
ATOM      6  O   UNL     1       7.243  -4.867  25.213  0.00  0.00    -0.322 OA
ATOM      7  H   UNL     1       6.471  -5.221  24.721  0.00  0.00    +0.220 HD
ENDBRANCH   2   6
ENDBRANCH   1   2
BRANCH   1   8
ATOM      8  P   UNL     1       6.410  -4.588  21.922  0.00  0.00    +0.371 P 
ATOM      9  O   UNL     1       5.893  -5.518  20.798  0.00  0.00    -0.255 OA
BRANCH   8  10
ATOM     10  O   UNL     1       5.443  -3.373  21.382  0.00  0.00    -0.322 OA
ATOM     11  H   UNL     1       5.750  -2.436  21.491  0.00  0.00    +0.220 HD
ENDBRANCH   8  10
BRANCH   8  12
ATOM     12  O   UNL     1       5.391  -5.305  22.982  0.00  0.00    -0.322 OA
ATOM     13  H   UNL     1       4.628  -4.685  23.064  0.00  0.00    +0.220 HD
ENDBRANCH   8  12
ENDBRANCH   1   8
BRANCH   1  14
ATOM     14  O   UNL     1       5.943  -3.196  24.212  0.00  0.00    -0.367 OA
ATOM     15  H   UNL     1       5.670  -2.268  24.083  0.00  0.00    +0.212 HD
ENDBRANCH   1  14
BRANCH   1  16
ATOM     16  C   UNL     1       7.412  -2.123  22.675  0.00  0.00    +0.060 C 
BRANCH  16  17
ATOM     17  C   UNL     1       8.879  -1.756  22.874  0.00  0.00    +0.004 C 
BRANCH  17  18
ATOM     18  C   UNL     1       9.483  -1.128  21.615  0.00  0.00    +0.000 C 
BRANCH  18  19
ATOM     19  C   UNL     1       9.064   0.333  21.411  0.00  0.00    +0.000 C 
BRANCH  19  20
ATOM     20  C   UNL     1      10.042   1.330  22.033  0.00  0.00    -0.000 C 
BRANCH  20  21
ATOM     21  C   UNL     1       9.397   2.150  23.150  0.00  0.00    -0.000 C 
BRANCH  21  23
ATOM     22  C   UNL     1      11.001   0.811  24.532  0.00  0.00    +0.004 C 
ATOM     23  C   UNL     1       9.677   1.554  24.527  0.00  0.00    -0.003 C 
ENDBRANCH  21  23
ENDBRANCH  20  21
ENDBRANCH  19  20
ENDBRANCH  18  19
ENDBRANCH  17  18
ENDBRANCH  16  17
ENDBRANCH   1  16
TORSDOF 14
ENDMDL
MODEL 6
REMARK VINA RESULT:      -5.0      1.366      3.076
REMARK  Name = 
REMARK  15 active torsions:
REMARK  status: ('A' for Active; 'I' for Inactive)
REMARK    1  A    between atoms: C_1  and  C_2
REMARK    2  A    between atoms: C_2  and  C_3
REMARK    3  A    between atoms: C_3  and  C_4
REMARK    4  A    between atoms: C_4  and  C_5
REMARK    5  A    between atoms: C_5  and  C_6
REMARK    6  A    between atoms: C_6  and  C_7
REMARK    7  A    between atoms: C_7  and  C_8
REMARK    8  A    between atoms: C_8  and  C_9
REMARK    9  A    between atoms: C_9  and  O_10
REMARK   10  A    between atoms: C_9  and  P_11
REMARK   11  A    between atoms: C_9  and  P_15
REMARK   12  A    between atoms: P_11  and  O_12
REMARK   13  A    between atoms: P_11  and  O_13
REMARK   14  A    between atoms: P_15  and  O_16
REMARK   15  A    between atoms: P_15  and  O_17
REMARK                            x       y       z     vdW  Elec       q    Type
REMARK                         _______ _______ _______ _____ _____    ______ ____
ROOT
ATOM      1  C   UNL     1       7.530  -2.873  24.101  0.00  0.00    +0.267 C 
ENDROOT
BRANCH   1   2
ATOM      2  P   UNL     1       8.730  -4.180  24.552  0.00  0.00    +0.371 P 
ATOM      3  O   UNL     1       9.744  -5.286  24.932  0.00  0.00    -0.255 OA
BRANCH   2   4
ATOM      4  O   UNL     1       8.193  -5.151  23.317  0.00  0.00    -0.322 OA
ATOM      5  H   UNL     1       8.394  -4.610  22.514  0.00  0.00    +0.220 HD
ENDBRANCH   2   4
BRANCH   2   6
ATOM      6  O   UNL     1       7.585  -4.752  25.607  0.00  0.00    -0.322 OA
ATOM      7  H   UNL     1       7.373  -5.687  25.395  0.00  0.00    +0.220 HD
ENDBRANCH   2   6
ENDBRANCH   1   2
BRANCH   1   8
ATOM      8  P   UNL     1       6.526  -3.432  22.677  0.00  0.00    +0.371 P 
ATOM      9  O   UNL     1       5.676  -3.904  21.472  0.00  0.00    -0.255 OA
BRANCH   8  10
ATOM     10  O   UNL     1       5.881  -1.924  22.560  0.00  0.00    -0.322 OA
ATOM     11  H   UNL     1       6.121  -1.249  23.246  0.00  0.00    +0.220 HD
ENDBRANCH   8  10
BRANCH   8  12
ATOM     12  O   UNL     1       5.449  -4.116  23.701  0.00  0.00    -0.322 OA
ATOM     13  H   UNL     1       4.570  -3.983  23.275  0.00  0.00    +0.220 HD
ENDBRANCH   8  12
ENDBRANCH   1   8
BRANCH   1  14
ATOM     14  O   UNL     1       6.666  -2.612  25.266  0.00  0.00    -0.367 OA
ATOM     15  H   UNL     1       6.278  -1.723  25.157  0.00  0.00    +0.212 HD
ENDBRANCH   1  14
BRANCH   1  16
ATOM     16  C   UNL     1       8.189  -1.524  23.792  0.00  0.00    +0.060 C 
BRANCH  16  17
ATOM     17  C   UNL     1       9.632  -1.409  24.273  0.00  0.00    +0.004 C 
BRANCH  17  18
ATOM     18  C   UNL     1       9.857  -0.137  25.094  0.00  0.00    +0.000 C 
BRANCH  18  19
ATOM     19  C   UNL     1      10.804   0.858  24.414  0.00  0.00    +0.000 C 
BRANCH  19  20
ATOM     20  C   UNL     1      10.070   1.993  23.698  0.00  0.00    -0.000 C 
BRANCH  20  21
ATOM     21  C   UNL     1      10.231   1.917  22.180  0.00  0.00    -0.000 C 
BRANCH  21  23
ATOM     22  C   UNL     1       7.771   1.921  21.708  0.00  0.00    +0.004 C 
ATOM     23  C   UNL     1       9.076   1.168  21.523  0.00  0.00    -0.003 C 
ENDBRANCH  21  23
ENDBRANCH  20  21
ENDBRANCH  19  20
ENDBRANCH  18  19
ENDBRANCH  17  18
ENDBRANCH  16  17
ENDBRANCH   1  16
TORSDOF 14
ENDMDL
MODEL 7
REMARK VINA RESULT:      -5.0      1.587      2.553
REMARK  Name = 
REMARK  15 active torsions:
REMARK  status: ('A' for Active; 'I' for Inactive)
REMARK    1  A    between atoms: C_1  and  C_2
REMARK    2  A    between atoms: C_2  and  C_3
REMARK    3  A    between atoms: C_3  and  C_4
REMARK    4  A    between atoms: C_4  and  C_5
REMARK    5  A    between atoms: C_5  and  C_6
REMARK    6  A    between atoms: C_6  and  C_7
REMARK    7  A    between atoms: C_7  and  C_8
REMARK    8  A    between atoms: C_8  and  C_9
REMARK    9  A    between atoms: C_9  and  O_10
REMARK   10  A    between atoms: C_9  and  P_11
REMARK   11  A    between atoms: C_9  and  P_15
REMARK   12  A    between atoms: P_11  and  O_12
REMARK   13  A    between atoms: P_11  and  O_13
REMARK   14  A    between atoms: P_15  and  O_16
REMARK   15  A    between atoms: P_15  and  O_17
REMARK                            x       y       z     vdW  Elec       q    Type
REMARK                         _______ _______ _______ _____ _____    ______ ____
ROOT
ATOM      1  C   UNL     1       8.286  -4.278  26.331  0.00  0.00    +0.267 C 
ENDROOT
BRANCH   1   2
ATOM      2  P   UNL     1       8.462  -5.066  24.689  0.00  0.00    +0.371 P 
ATOM      3  O   UNL     1       8.610  -5.733  23.300  0.00  0.00    -0.255 OA
BRANCH   2   4
ATOM      4  O   UNL     1       9.263  -6.359  25.353  0.00  0.00    -0.322 OA
ATOM      5  H   UNL     1       8.528  -6.883  25.757  0.00  0.00    +0.220 HD
ENDBRANCH   2   4
BRANCH   2   6
ATOM      6  O   UNL     1       9.859  -4.190  24.508  0.00  0.00    -0.322 OA
ATOM      7  H   UNL     1      10.621  -4.702  24.854  0.00  0.00    +0.220 HD
ENDBRANCH   2   6
ENDBRANCH   1   2
BRANCH   1   8
ATOM      8  P   UNL     1       6.747  -4.863  27.127  0.00  0.00    +0.371 P 
ATOM      9  O   UNL     1       5.444  -5.358  27.802  0.00  0.00    -0.255 OA
BRANCH   8  10
ATOM     10  O   UNL     1       7.602  -6.052  27.874  0.00  0.00    -0.322 OA
ATOM     11  H   UNL     1       8.588  -5.962  27.937  0.00  0.00    +0.220 HD
ENDBRANCH   8  10
BRANCH   8  12
ATOM     12  O   UNL     1       6.328  -5.643  25.751  0.00  0.00    -0.322 OA
ATOM     13  H   UNL     1       6.489  -6.598  25.938  0.00  0.00    +0.220 HD
ENDBRANCH   8  12
ENDBRANCH   1   8
BRANCH   1  14
ATOM     14  O   UNL     1       9.457  -4.642  27.150  0.00  0.00    -0.367 OA
ATOM     15  H   UNL     1      10.259  -4.417  26.642  0.00  0.00    +0.212 HD
ENDBRANCH   1  14
BRANCH   1  16
ATOM     16  C   UNL     1       8.310  -2.747  26.277  0.00  0.00    +0.060 C 
BRANCH  16  17
ATOM     17  C   UNL     1       7.236  -2.137  25.380  0.00  0.00    +0.004 C 
BRANCH  17  18
ATOM     18  C   UNL     1       7.675  -0.786  24.808  0.00  0.00    +0.000 C 
BRANCH  18  19
ATOM     19  C   UNL     1       7.587  -0.723  23.280  0.00  0.00    +0.000 C 
BRANCH  19  20
ATOM     20  C   UNL     1       8.653  -1.567  22.581  0.00  0.00    -0.000 C 
BRANCH  20  21
ATOM     21  C   UNL     1       9.551  -0.726  21.672  0.00  0.00    -0.000 C 
BRANCH  21  23
ATOM     22  C   UNL     1      10.039   1.707  22.012  0.00  0.00    +0.004 C 
ATOM     23  C   UNL     1       9.023   0.696  21.512  0.00  0.00    -0.003 C 
ENDBRANCH  21  23
ENDBRANCH  20  21
ENDBRANCH  19  20
ENDBRANCH  18  19
ENDBRANCH  17  18
ENDBRANCH  16  17
ENDBRANCH   1  16
TORSDOF 14
ENDMDL
MODEL 8
REMARK VINA RESULT:      -4.9      4.736      6.368
REMARK  Name = 
REMARK  15 active torsions:
REMARK  status: ('A' for Active; 'I' for Inactive)
REMARK    1  A    between atoms: C_1  and  C_2
REMARK    2  A    between atoms: C_2  and  C_3
REMARK    3  A    between atoms: C_3  and  C_4
REMARK    4  A    between atoms: C_4  and  C_5
REMARK    5  A    between atoms: C_5  and  C_6
REMARK    6  A    between atoms: C_6  and  C_7
REMARK    7  A    between atoms: C_7  and  C_8
REMARK    8  A    between atoms: C_8  and  C_9
REMARK    9  A    between atoms: C_9  and  O_10
REMARK   10  A    between atoms: C_9  and  P_11
REMARK   11  A    between atoms: C_9  and  P_15
REMARK   12  A    between atoms: P_11  and  O_12
REMARK   13  A    between atoms: P_11  and  O_13
REMARK   14  A    between atoms: P_15  and  O_16
REMARK   15  A    between atoms: P_15  and  O_17
REMARK                            x       y       z     vdW  Elec       q    Type
REMARK                         _______ _______ _______ _____ _____    ______ ____
ROOT
ATOM      1  C   UNL     1       8.740   0.949  22.065  0.00  0.00    +0.267 C 
ENDROOT
BRANCH   1   2
ATOM      2  P   UNL     1       9.591   2.295  22.967  0.00  0.00    +0.371 P 
ATOM      3  O   UNL     1      10.311   3.434  23.731  0.00  0.00    -0.255 OA
BRANCH   2   4
ATOM      4  O   UNL     1       8.488   3.409  22.422  0.00  0.00    -0.322 OA
ATOM      5  H   UNL     1       8.383   4.008  23.202  0.00  0.00    +0.220 HD
ENDBRANCH   2   4
BRANCH   2   6
ATOM      6  O   UNL     1      10.554   2.473  21.628  0.00  0.00    -0.322 OA
ATOM      7  H   UNL     1      11.395   1.983  21.754  0.00  0.00    +0.220 HD
ENDBRANCH   2   6
ENDBRANCH   1   2
BRANCH   1   8
ATOM      8  P   UNL     1       7.371   0.299  23.089  0.00  0.00    +0.371 P 
ATOM      9  O   UNL     1       6.211  -0.251  23.955  0.00  0.00    -0.255 OA
BRANCH   8  10
ATOM     10  O   UNL     1       6.337   1.332  22.336  0.00  0.00    -0.322 OA
ATOM     11  H   UNL     1       5.992   2.113  22.841  0.00  0.00    +0.220 HD
ENDBRANCH   8  10
BRANCH   8  12
ATOM     12  O   UNL     1       7.850   1.245  24.336  0.00  0.00    -0.322 OA
ATOM     13  H   UNL     1       7.869   0.646  25.119  0.00  0.00    +0.220 HD
ENDBRANCH   8  12
ENDBRANCH   1   8
BRANCH   1  14
ATOM     14  O   UNL     1       8.219   1.495  20.798  0.00  0.00    -0.367 OA
ATOM     15  H   UNL     1       7.324   1.131  20.661  0.00  0.00    +0.212 HD
ENDBRANCH   1  14
BRANCH   1  16
ATOM     16  C   UNL     1       9.677  -0.188  21.643  0.00  0.00    +0.060 C 
BRANCH  16  17
ATOM     17  C   UNL     1       9.228  -1.570  22.105  0.00  0.00    +0.004 C 
BRANCH  17  18
ATOM     18  C   UNL     1      10.141  -2.127  23.201  0.00  0.00    +0.000 C 
BRANCH  18  19
ATOM     19  C   UNL     1       9.369  -2.666  24.411  0.00  0.00    +0.000 C 
BRANCH  19  20
ATOM     20  C   UNL     1       8.619  -3.965  24.113  0.00  0.00    -0.000 C 
BRANCH  20  21
ATOM     21  C   UNL     1       7.104  -3.796  24.229  0.00  0.00    -0.000 C 
BRANCH  21  23
ATOM     22  C   UNL     1       7.049  -4.959  22.010  0.00  0.00    +0.004 C 
ATOM     23  C   UNL     1       6.419  -3.875  22.867  0.00  0.00    -0.003 C 
ENDBRANCH  21  23
ENDBRANCH  20  21
ENDBRANCH  19  20
ENDBRANCH  18  19
ENDBRANCH  17  18
ENDBRANCH  16  17
ENDBRANCH   1  16
TORSDOF 14
ENDMDL
MODEL 9
REMARK VINA RESULT:      -4.8      1.328      2.188
REMARK  Name = 
REMARK  15 active torsions:
REMARK  status: ('A' for Active; 'I' for Inactive)
REMARK    1  A    between atoms: C_1  and  C_2
REMARK    2  A    between atoms: C_2  and  C_3
REMARK    3  A    between atoms: C_3  and  C_4
REMARK    4  A    between atoms: C_4  and  C_5
REMARK    5  A    between atoms: C_5  and  C_6
REMARK    6  A    between atoms: C_6  and  C_7
REMARK    7  A    between atoms: C_7  and  C_8
REMARK    8  A    between atoms: C_8  and  C_9
REMARK    9  A    between atoms: C_9  and  O_10
REMARK   10  A    between atoms: C_9  and  P_11
REMARK   11  A    between atoms: C_9  and  P_15
REMARK   12  A    between atoms: P_11  and  O_12
REMARK   13  A    between atoms: P_11  and  O_13
REMARK   14  A    between atoms: P_15  and  O_16
REMARK   15  A    between atoms: P_15  and  O_17
REMARK                            x       y       z     vdW  Elec       q    Type
REMARK                         _______ _______ _______ _____ _____    ______ ____
ROOT
ATOM      1  C   UNL     1       7.516  -4.725  24.633  0.00  0.00    +0.267 C 
ENDROOT
BRANCH   1   2
ATOM      2  P   UNL     1       6.103  -5.445  23.719  0.00  0.00    +0.371 P 
ATOM      3  O   UNL     1       4.909  -6.055  22.946  0.00  0.00    -0.255 OA
BRANCH   2   4
ATOM      4  O   UNL     1       6.675  -4.839  22.284  0.00  0.00    -0.322 OA
ATOM      5  H   UNL     1       6.446  -5.555  21.641  0.00  0.00    +0.220 HD
ENDBRANCH   2   4
BRANCH   2   6
ATOM      6  O   UNL     1       5.272  -4.054  24.069  0.00  0.00    -0.322 OA
ATOM      7  H   UNL     1       5.864  -3.277  23.971  0.00  0.00    +0.220 HD
ENDBRANCH   2   6
ENDBRANCH   1   2
BRANCH   1   8
ATOM      8  P   UNL     1       7.295  -5.017  26.426  0.00  0.00    +0.371 P 
ATOM      9  O   UNL     1       7.110  -5.264  27.943  0.00  0.00    -0.255 OA
BRANCH   8  10
ATOM     10  O   UNL     1       8.634  -5.971  26.420  0.00  0.00    -0.322 OA
ATOM     11  H   UNL     1       9.472  -5.619  26.817  0.00  0.00    +0.220 HD
ENDBRANCH   8  10
BRANCH   8  12
ATOM     12  O   UNL     1       6.150  -6.141  26.105  0.00  0.00    -0.322 OA
ATOM     13  H   UNL     1       5.400  -5.922  26.707  0.00  0.00    +0.220 HD
ENDBRANCH   8  12
ENDBRANCH   1   8
BRANCH   1  14
ATOM     14  O   UNL     1       8.755  -5.368  24.158  0.00  0.00    -0.367 OA
ATOM     15  H   UNL     1       9.003  -4.950  23.312  0.00  0.00    +0.212 HD
ENDBRANCH   1  14
BRANCH   1  16
ATOM     16  C   UNL     1       7.720  -3.232  24.357  0.00  0.00    +0.060 C 
BRANCH  16  17
ATOM     17  C   UNL     1       9.177  -2.829  24.147  0.00  0.00    +0.004 C 
BRANCH  17  18
ATOM     18  C   UNL     1       9.500  -1.494  24.822  0.00  0.00    +0.000 C 
BRANCH  18  19
ATOM     19  C   UNL     1      10.127  -0.472  23.866  0.00  0.00    +0.000 C 
BRANCH  19  20
ATOM     20  C   UNL     1      10.265  -0.994  22.436  0.00  0.00    -0.000 C 
BRANCH  20  21
ATOM     21  C   UNL     1       9.474  -0.151  21.435  0.00  0.00    -0.000 C 
BRANCH  21  23
ATOM     22  C   UNL     1       8.193   1.981  21.734  0.00  0.00    +0.004 C 
ATOM     23  C   UNL     1       9.569   1.339  21.749  0.00  0.00    -0.003 C 
ENDBRANCH  21  23
ENDBRANCH  20  21
ENDBRANCH  19  20
ENDBRANCH  18  19
ENDBRANCH  17  18
ENDBRANCH  16  17
ENDBRANCH   1  16
TORSDOF 14
ENDMDL
