MODEL 1
REMARK VINA RESULT:      -6.2      0.000      0.000
REMARK  Name = 
REMARK  17 active torsions:
REMARK  status: ('A' for Active; 'I' for Inactive)
REMARK    1  A    between atoms: O_1  and  C_2
REMARK    2  A    between atoms: C_2  and  N_3
REMARK    3  A    between atoms: N_3  and  O_4
REMARK    4  A    between atoms: N_3  and  C_5
REMARK    5  A    between atoms: C_5  and  C_7
REMARK    6  A    between atoms: C_5  and  C_32
REMARK    7  A    between atoms: C_7  and  C_8
REMARK    8  A    between atoms: C_8  and  C_9
REMARK    9  A    between atoms: C_9  and  N_10
REMARK   10  A    between atoms: C_16  and  C_18
REMARK   11  A    between atoms: C_18  and  O_19
REMARK   12  A    between atoms: O_19  and  P_20
REMARK   13  A    between atoms: P_20  and  O_21
REMARK   14  A    between atoms: P_20  and  O_22
REMARK   15  A    between atoms: C_24  and  O_26
REMARK   16  A    between atoms: C_27  and  O_29
REMARK   17  A    between atoms: C_32  and  O_33
REMARK                            x       y       z     vdW  Elec       q    Type
REMARK                         _______ _______ _______ _____ _____    ______ ____
ROOT
ATOM      1  N   UNL     1       6.532  -4.794  22.842  0.00  0.00    -0.222 N 
ATOM      2  C   UNL     1       7.527  -4.503  23.752  0.00  0.00    +0.277 C 
ATOM      3  O   UNL     1       7.977  -5.285  24.583  0.00  0.00    -0.270 OA
ATOM      4  C   UNL     1       7.919  -3.011  23.575  0.00  0.00    +0.244 C 
ATOM      5  C   UNL     1       7.334  -2.181  24.735  0.00  0.00    +0.205 C 
ATOM      6  C   UNL     1       8.552  -2.006  25.618  0.00  0.00    +0.179 C 
ATOM      7  C   UNL     1       9.708  -1.970  24.607  0.00  0.00    +0.179 C 
ATOM      8  O   UNL     1       9.272  -2.660  23.416  0.00  0.00    -0.338 OA
ATOM      9  N   UNL     1       7.249  -2.742  22.337  0.00  0.00    -0.261 N 
ATOM     10  H   UNL     1       7.411  -1.964  21.716  0.00  0.00    +0.154 HD
ATOM     11  C   UNL     1       6.392  -3.749  21.985  0.00  0.00    +0.311 C 
ATOM     12  O   UNL     1       5.673  -3.650  21.007  0.00  0.00    -0.252 OA
ENDROOT
BRANCH   6  13
ATOM     13  O   UNL     1       8.660  -3.130  26.494  0.00  0.00    -0.386 OA
ATOM     14  H   UNL     1       8.429  -2.839  27.396  0.00  0.00    +0.210 HD
ENDBRANCH   6  13
BRANCH   5  15
ATOM     15  O   UNL     1       6.889  -0.868  24.343  0.00  0.00    -0.384 OA
ATOM     16  H   UNL     1       6.629  -0.380  25.145  0.00  0.00    +0.210 HD
ENDBRANCH   5  15
BRANCH   1  17
ATOM     17  C   UNL     1       5.760  -6.028  22.884  0.00  0.00    +0.118 C 
BRANCH  17  18
ATOM     18  C   UNL     1       4.528  -5.962  23.780  0.00  0.00    +0.022 C 
BRANCH  18  19
ATOM     19  C   UNL     1       4.558  -6.954  24.950  0.00  0.00    +0.034 C 
BRANCH  19  20
ATOM     20  C   UNL     1       4.684  -6.240  26.319  0.00  0.00    +0.195 C 
BRANCH  20  21
ATOM     21  C   UNL     1       3.364  -6.462  27.093  0.00  0.00    +0.324 C 
ATOM     22  O   UNL     1       2.919  -5.686  27.929  0.00  0.00    -0.249 OA
BRANCH  21  23
ATOM     23  O   UNL     1       2.706  -7.587  26.718  0.00  0.00    -0.479 OA
ATOM     24  H   UNL     1       1.971  -7.288  26.128  0.00  0.00    +0.295 HD
ENDBRANCH  21  23
ENDBRANCH  20  21
BRANCH  20  25
ATOM     25  N   UNL     1       5.839  -6.738  27.131  0.00  0.00    -0.152 NA
BRANCH  25  26
ATOM     26  O   UNL     1       5.278  -7.533  28.227  0.00  0.00    -0.309 OA
ATOM     27  H   UNL     1       6.015  -7.529  28.882  0.00  0.00    +0.237 HD
ENDBRANCH  25  26
BRANCH  25  28
ATOM     28  C   UNL     1       6.546  -5.645  27.799  0.00  0.00    +0.270 C 
BRANCH  28  29
ATOM     29  O   UNL     1       7.924  -5.743  27.458  0.00  0.00    -0.378 OA
ATOM     30  H   UNL     1       8.127  -6.694  27.423  0.00  0.00    +0.211 HD
ENDBRANCH  28  29
ENDBRANCH  25  28
ENDBRANCH  20  25
ENDBRANCH  19  20
ENDBRANCH  18  19
ENDBRANCH  17  18
ENDBRANCH   1  17
BRANCH   7  31
ATOM     31  C   UNL     1      10.075  -0.526  24.239  0.00  0.00    +0.206 C 
BRANCH  31  32
ATOM     32  O   UNL     1      10.294  -0.383  22.835  0.00  0.00    -0.284 OA
BRANCH  32  33
ATOM     33  P   UNL     1       9.453   1.009  22.247  0.00  0.00    +0.472 P 
ATOM     34  O   UNL     1       8.699   2.255  21.720  0.00  0.00    -0.228 OA
BRANCH  33  35
ATOM     35  O   UNL     1       8.236  -0.045  21.952  0.00  0.00    -0.303 OA
ATOM     36  H   UNL     1       7.374   0.326  22.213  0.00  0.00    +0.222 HD
ENDBRANCH  33  35
BRANCH  33  37
ATOM     37  O   UNL     1       9.061   1.212  23.822  0.00  0.00    -0.303 OA
ATOM     38  H   UNL     1       8.114   1.453  23.830  0.00  0.00    +0.222 HD
ENDBRANCH  33  37
ENDBRANCH  32  33
ENDBRANCH  31  32
ENDBRANCH   7  31
TORSDOF 17
ENDMDL
MODEL 2
REMARK VINA RESULT:      -6.2      3.063      7.990
REMARK  Name = 
REMARK  17 active torsions:
REMARK  status: ('A' for Active; 'I' for Inactive)
REMARK    1  A    between atoms: O_1  and  C_2
REMARK    2  A    between atoms: C_2  and  N_3
REMARK    3  A    between atoms: N_3  and  O_4
REMARK    4  A    between atoms: N_3  and  C_5
REMARK    5  A    between atoms: C_5  and  C_7
REMARK    6  A    between atoms: C_5  and  C_32
REMARK    7  A    between atoms: C_7  and  C_8
REMARK    8  A    between atoms: C_8  and  C_9
REMARK    9  A    between atoms: C_9  and  N_10
REMARK   10  A    between atoms: C_16  and  C_18
REMARK   11  A    between atoms: C_18  and  O_19
REMARK   12  A    between atoms: O_19  and  P_20
REMARK   13  A    between atoms: P_20  and  O_21
REMARK   14  A    between atoms: P_20  and  O_22
REMARK   15  A    between atoms: C_24  and  O_26
REMARK   16  A    between atoms: C_27  and  O_29
REMARK   17  A    between atoms: C_32  and  O_33
REMARK                            x       y       z     vdW  Elec       q    Type
REMARK                         _______ _______ _______ _____ _____    ______ ____
ROOT
ATOM      1  N   UNL     1       8.525  -1.955  22.955  0.00  0.00    -0.222 N 
ATOM      2  C   UNL     1       9.115  -2.816  23.857  0.00  0.00    +0.277 C 
ATOM      3  O   UNL     1      10.310  -3.085  23.900  0.00  0.00    -0.270 OA
ATOM      4  C   UNL     1       7.995  -3.419  24.749  0.00  0.00    +0.244 C 
ATOM      5  C   UNL     1       7.726  -4.877  24.326  0.00  0.00    +0.205 C 
ATOM      6  C   UNL     1       8.473  -5.640  25.400  0.00  0.00    +0.179 C 
ATOM      7  C   UNL     1       8.344  -4.724  26.626  0.00  0.00    +0.179 C 
ATOM      8  O   UNL     1       8.123  -3.379  26.149  0.00  0.00    -0.338 OA
ATOM      9  N   UNL     1       6.916  -2.550  24.384  0.00  0.00    -0.261 N 
ATOM     10  H   UNL     1       6.049  -2.418  24.881  0.00  0.00    +0.154 HD
ATOM     11  C   UNL     1       7.220  -1.781  23.294  0.00  0.00    +0.311 C 
ATOM     12  O   UNL     1       6.388  -1.048  22.789  0.00  0.00    -0.252 OA
ENDROOT
BRANCH   6  13
ATOM     13  O   UNL     1       9.837  -5.792  25.003  0.00  0.00    -0.386 OA
ATOM     14  H   UNL     1       9.960  -5.341  24.148  0.00  0.00    +0.210 HD
ENDBRANCH   6  13
BRANCH   5  15
ATOM     15  O   UNL     1       6.339  -5.258  24.408  0.00  0.00    -0.384 OA
ATOM     16  H   UNL     1       6.255  -6.179  24.103  0.00  0.00    +0.210 HD
ENDBRANCH   5  15
BRANCH   1  17
ATOM     17  C   UNL     1       9.237  -1.397  21.814  0.00  0.00    +0.118 C 
BRANCH  17  18
ATOM     18  C   UNL     1       9.879  -0.041  22.082  0.00  0.00    +0.022 C 
BRANCH  18  19
ATOM     19  C   UNL     1       9.135   1.136  21.439  0.00  0.00    +0.034 C 
BRANCH  19  20
ATOM     20  C   UNL     1       8.332   1.960  22.477  0.00  0.00    +0.195 C 
BRANCH  20  21
ATOM     21  C   UNL     1       9.345   2.731  23.355  0.00  0.00    +0.324 C 
ATOM     22  O   UNL     1       9.216   2.905  24.560  0.00  0.00    -0.249 OA
BRANCH  21  23
ATOM     23  O   UNL     1      10.433   3.159  22.667  0.00  0.00    -0.479 OA
ATOM     24  H   UNL     1      10.453   2.627  21.834  0.00  0.00    +0.295 HD
ENDBRANCH  21  23
ENDBRANCH  20  21
BRANCH  20  25
ATOM     25  N   UNL     1       7.375   2.920  21.843  0.00  0.00    -0.152 NA
BRANCH  25  26
ATOM     26  O   UNL     1       7.890   4.267  22.100  0.00  0.00    -0.309 OA
ATOM     27  H   UNL     1       8.038   4.248  23.076  0.00  0.00    +0.237 HD
ENDBRANCH  25  26
BRANCH  25  28
ATOM     28  C   UNL     1       6.067   2.898  22.500  0.00  0.00    +0.270 C 
BRANCH  28  29
ATOM     29  O   UNL     1       5.875   1.600  23.049  0.00  0.00    -0.378 OA
ATOM     30  H   UNL     1       6.222   0.973  22.391  0.00  0.00    +0.211 HD
ENDBRANCH  28  29
ENDBRANCH  25  28
ENDBRANCH  20  25
ENDBRANCH  19  20
ENDBRANCH  18  19
ENDBRANCH  17  18
ENDBRANCH   1  17
BRANCH   7  31
ATOM     31  C   UNL     1       7.157  -5.141  27.505  0.00  0.00    +0.206 C 
BRANCH  31  32
ATOM     32  O   UNL     1       6.557  -6.349  27.035  0.00  0.00    -0.284 OA
BRANCH  32  33
ATOM     33  P   UNL     1       4.943  -6.481  27.645  0.00  0.00    +0.472 P 
ATOM     34  O   UNL     1       3.499  -6.599  28.190  0.00  0.00    -0.228 OA
BRANCH  33  35
ATOM     35  O   UNL     1       4.644  -7.266  26.240  0.00  0.00    -0.303 OA
ATOM     36  H   UNL     1       4.998  -8.172  26.258  0.00  0.00    +0.222 HD
ENDBRANCH  33  35
BRANCH  33  37
ATOM     37  O   UNL     1       5.533  -7.805  28.402  0.00  0.00    -0.303 OA
ATOM     38  H   UNL     1       5.840  -8.402  27.692  0.00  0.00    +0.222 HD
ENDBRANCH  33  37
ENDBRANCH  32  33
ENDBRANCH  31  32
ENDBRANCH   7  31
TORSDOF 17
ENDMDL
MODEL 3
REMARK VINA RESULT:      -5.9      2.385      4.274
REMARK  Name = 
REMARK  17 active torsions:
REMARK  status: ('A' for Active; 'I' for Inactive)
REMARK    1  A    between atoms: O_1  and  C_2
REMARK    2  A    between atoms: C_2  and  N_3
REMARK    3  A    between atoms: N_3  and  O_4
REMARK    4  A    between atoms: N_3  and  C_5
REMARK    5  A    between atoms: C_5  and  C_7
REMARK    6  A    between atoms: C_5  and  C_32
REMARK    7  A    between atoms: C_7  and  C_8
REMARK    8  A    between atoms: C_8  and  C_9
REMARK    9  A    between atoms: C_9  and  N_10
REMARK   10  A    between atoms: C_16  and  C_18
REMARK   11  A    between atoms: C_18  and  O_19
REMARK   12  A    between atoms: O_19  and  P_20
REMARK   13  A    between atoms: P_20  and  O_21
REMARK   14  A    between atoms: P_20  and  O_22
REMARK   15  A    between atoms: C_24  and  O_26
REMARK   16  A    between atoms: C_27  and  O_29
REMARK   17  A    between atoms: C_32  and  O_33
REMARK                            x       y       z     vdW  Elec       q    Type
REMARK                         _______ _______ _______ _____ _____    ______ ____
ROOT
ATOM      1  N   UNL     1       8.596  -2.594  24.808  0.00  0.00    -0.222 N 
ATOM      2  C   UNL     1       8.441  -2.064  23.544  0.00  0.00    +0.277 C 
ATOM      3  O   UNL     1       8.241  -2.714  22.525  0.00  0.00    -0.270 OA
ATOM      4  C   UNL     1       8.626  -0.525  23.642  0.00  0.00    +0.244 C 
ATOM      5  C   UNL     1      10.004  -0.132  23.071  0.00  0.00    +0.205 C 
ATOM      6  C   UNL     1       9.620   0.379  21.698  0.00  0.00    +0.179 C 
ATOM      7  C   UNL     1       8.226   0.978  21.931  0.00  0.00    +0.179 C 
ATOM      8  O   UNL     1       7.656   0.330  23.089  0.00  0.00    -0.338 OA
ATOM      9  N   UNL     1       8.578  -0.377  25.067  0.00  0.00    -0.261 N 
ATOM     10  H   UNL     1       8.426   0.476  25.583  0.00  0.00    +0.154 HD
ATOM     11  C   UNL     1       8.650  -1.581  25.712  0.00  0.00    +0.311 C 
ATOM     12  O   UNL     1       8.711  -1.640  26.928  0.00  0.00    -0.252 OA
ENDROOT
BRANCH   6  13
ATOM     13  O   UNL     1       9.572  -0.720  20.786  0.00  0.00    -0.386 OA
ATOM     14  H   UNL     1      10.466  -1.101  20.717  0.00  0.00    +0.210 HD
ENDBRANCH   6  13
BRANCH   5  15
ATOM     15  O   UNL     1      10.637   0.952  23.778  0.00  0.00    -0.384 OA
ATOM     16  H   UNL     1      10.948   1.604  23.125  0.00  0.00    +0.210 HD
ENDBRANCH   5  15
BRANCH   1  17
ATOM     17  C   UNL     1       8.726  -4.023  25.055  0.00  0.00    +0.118 C 
BRANCH  17  18
ATOM     18  C   UNL     1       7.554  -4.634  25.812  0.00  0.00    +0.022 C 
BRANCH  18  19
ATOM     19  C   UNL     1       6.186  -4.341  25.182  0.00  0.00    +0.034 C 
BRANCH  19  20
ATOM     20  C   UNL     1       5.794  -5.395  24.117  0.00  0.00    +0.195 C 
BRANCH  20  21
ATOM     21  C   UNL     1       4.653  -6.259  24.702  0.00  0.00    +0.324 C 
ATOM     22  O   UNL     1       3.892  -5.884  25.585  0.00  0.00    -0.249 OA
BRANCH  21  23
ATOM     23  O   UNL     1       4.536  -7.470  24.102  0.00  0.00    -0.479 OA
ATOM     24  H   UNL     1       3.700  -7.865  24.450  0.00  0.00    +0.295 HD
ENDBRANCH  21  23
ENDBRANCH  20  21
BRANCH  20  25
ATOM     25  N   UNL     1       5.354  -4.780  22.825  0.00  0.00    -0.152 NA
BRANCH  25  26
ATOM     26  O   UNL     1       3.970  -5.207  22.599  0.00  0.00    -0.309 OA
ATOM     27  H   UNL     1       3.517  -4.348  22.424  0.00  0.00    +0.237 HD
ENDBRANCH  25  26
BRANCH  25  28
ATOM     28  C   UNL     1       6.093  -5.323  21.684  0.00  0.00    +0.270 C 
BRANCH  28  29
ATOM     29  O   UNL     1       6.272  -6.718  21.902  0.00  0.00    -0.378 OA
ATOM     30  H   UNL     1       7.232  -6.873  21.887  0.00  0.00    +0.211 HD
ENDBRANCH  28  29
ENDBRANCH  25  28
ENDBRANCH  20  25
ENDBRANCH  19  20
ENDBRANCH  18  19
ENDBRANCH  17  18
ENDBRANCH   1  17
BRANCH   7  31
ATOM     31  C   UNL     1       8.310   2.487  22.196  0.00  0.00    +0.206 C 
BRANCH  31  32
ATOM     32  O   UNL     1       7.471   2.875  23.286  0.00  0.00    -0.284 OA
BRANCH  32  33
ATOM     33  P   UNL     1       8.322   3.966  24.324  0.00  0.00    +0.472 P 
ATOM     34  O   UNL     1       9.083   4.942  25.253  0.00  0.00    -0.228 OA
BRANCH  33  35
ATOM     35  O   UNL     1       8.723   2.614  25.156  0.00  0.00    -0.303 OA
ATOM     36  H   UNL     1       9.639   2.659  25.484  0.00  0.00    +0.222 HD
ENDBRANCH  33  35
BRANCH  33  37
ATOM     37  O   UNL     1       9.519   3.792  23.223  0.00  0.00    -0.303 OA
ATOM     38  H   UNL     1       9.153   4.123  22.380  0.00  0.00    +0.222 HD
ENDBRANCH  33  37
ENDBRANCH  32  33
ENDBRANCH  31  32
ENDBRANCH   7  31
TORSDOF 17
ENDMDL
MODEL 4
REMARK VINA RESULT:      -5.9      2.335      4.240
REMARK  Name = 
REMARK  17 active torsions:
REMARK  status: ('A' for Active; 'I' for Inactive)
REMARK    1  A    between atoms: O_1  and  C_2
REMARK    2  A    between atoms: C_2  and  N_3
REMARK    3  A    between atoms: N_3  and  O_4
REMARK    4  A    between atoms: N_3  and  C_5
REMARK    5  A    between atoms: C_5  and  C_7
REMARK    6  A    between atoms: C_5  and  C_32
REMARK    7  A    between atoms: C_7  and  C_8
REMARK    8  A    between atoms: C_8  and  C_9
REMARK    9  A    between atoms: C_9  and  N_10
REMARK   10  A    between atoms: C_16  and  C_18
REMARK   11  A    between atoms: C_18  and  O_19
REMARK   12  A    between atoms: O_19  and  P_20
REMARK   13  A    between atoms: P_20  and  O_21
REMARK   14  A    between atoms: P_20  and  O_22
REMARK   15  A    between atoms: C_24  and  O_26
REMARK   16  A    between atoms: C_27  and  O_29
REMARK   17  A    between atoms: C_32  and  O_33
REMARK                            x       y       z     vdW  Elec       q    Type
REMARK                         _______ _______ _______ _____ _____    ______ ____
ROOT
ATOM      1  N   UNL     1       8.447  -2.221  25.638  0.00  0.00    -0.222 N 
ATOM      2  C   UNL     1       8.478  -2.026  24.272  0.00  0.00    +0.277 C 
ATOM      3  O   UNL     1       8.315  -2.901  23.429  0.00  0.00    -0.270 OA
ATOM      4  C   UNL     1       8.813  -0.532  24.007  0.00  0.00    +0.244 C 
ATOM      5  C   UNL     1      10.276  -0.407  23.533  0.00  0.00    +0.205 C 
ATOM      6  C   UNL     1      10.089  -0.241  22.040  0.00  0.00    +0.179 C 
ATOM      7  C   UNL     1       8.749   0.502  21.940  0.00  0.00    +0.179 C 
ATOM      8  O   UNL     1       8.000   0.221  23.142  0.00  0.00    -0.338 OA
ATOM      9  N   UNL     1       8.637  -0.017  25.333  0.00  0.00    -0.261 N 
ATOM     10  H   UNL     1       8.524   0.949  25.598  0.00  0.00    +0.154 HD
ATOM     11  C   UNL     1       8.515  -1.015  26.261  0.00  0.00    +0.311 C 
ATOM     12  O   UNL     1       8.447  -0.762  27.451  0.00  0.00    -0.252 OA
ENDROOT
BRANCH   6  13
ATOM     13  O   UNL     1      10.017  -1.532  21.430  0.00  0.00    -0.386 OA
ATOM     14  H   UNL     1       9.773  -1.416  20.494  0.00  0.00    +0.210 HD
ENDBRANCH   6  13
BRANCH   5  15
ATOM     15  O   UNL     1      10.944   0.772  24.022  0.00  0.00    -0.384 OA
ATOM     16  H   UNL     1      11.333   1.241  23.262  0.00  0.00    +0.210 HD
ENDBRANCH   5  15
BRANCH   1  17
ATOM     17  C   UNL     1       8.400  -3.542  26.245  0.00  0.00    +0.118 C 
BRANCH  17  18
ATOM     18  C   UNL     1       7.005  -4.153  26.304  0.00  0.00    +0.022 C 
BRANCH  18  19
ATOM     19  C   UNL     1       6.815  -5.358  25.374  0.00  0.00    +0.034 C 
BRANCH  19  20
ATOM     20  C   UNL     1       5.343  -5.519  24.917  0.00  0.00    +0.195 C 
BRANCH  20  21
ATOM     21  C   UNL     1       5.238  -4.998  23.466  0.00  0.00    +0.324 C 
ATOM     22  O   UNL     1       4.207  -4.567  22.964  0.00  0.00    -0.249 OA
BRANCH  21  23
ATOM     23  O   UNL     1       6.422  -5.011  22.805  0.00  0.00    -0.479 OA
ATOM     24  H   UNL     1       6.795  -4.100  22.899  0.00  0.00    +0.295 HD
ENDBRANCH  21  23
ENDBRANCH  20  21
BRANCH  20  25
ATOM     25  N   UNL     1       4.865  -6.936  24.984  0.00  0.00    -0.152 NA
BRANCH  25  26
ATOM     26  O   UNL     1       4.622  -7.369  23.605  0.00  0.00    -0.309 OA
ATOM     27  H   UNL     1       3.778  -7.873  23.694  0.00  0.00    +0.237 HD
ENDBRANCH  25  26
BRANCH  25  28
ATOM     28  C   UNL     1       3.558  -7.040  25.634  0.00  0.00    +0.270 C 
BRANCH  28  29
ATOM     29  O   UNL     1       3.048  -8.345  25.386  0.00  0.00    -0.378 OA
ATOM     30  H   UNL     1       3.733  -8.965  25.691  0.00  0.00    +0.211 HD
ENDBRANCH  28  29
ENDBRANCH  25  28
ENDBRANCH  20  25
ENDBRANCH  19  20
ENDBRANCH  18  19
ENDBRANCH  17  18
ENDBRANCH   1  17
BRANCH   7  31
ATOM     31  C   UNL     1       8.964   2.018  21.831  0.00  0.00    +0.206 C 
BRANCH  31  32
ATOM     32  O   UNL     1       8.052   2.737  22.661  0.00  0.00    -0.284 OA
BRANCH  32  33
ATOM     33  P   UNL     1       8.907   3.922  23.587  0.00  0.00    +0.472 P 
ATOM     34  O   UNL     1       9.673   4.981  24.416  0.00  0.00    -0.228 OA
BRANCH  33  35
ATOM     35  O   UNL     1       8.927   2.770  24.750  0.00  0.00    -0.303 OA
ATOM     36  H   UNL     1       8.800   1.882  24.371  0.00  0.00    +0.222 HD
ENDBRANCH  33  35
BRANCH  33  37
ATOM     37  O   UNL     1      10.213   3.326  22.802  0.00  0.00    -0.303 OA
ATOM     38  H   UNL     1      10.990   3.660  23.291  0.00  0.00    +0.222 HD
ENDBRANCH  33  37
ENDBRANCH  32  33
ENDBRANCH  31  32
ENDBRANCH   7  31
TORSDOF 17
ENDMDL
MODEL 5
REMARK VINA RESULT:      -5.9      2.946      7.525
REMARK  Name = 
REMARK  17 active torsions:
REMARK  status: ('A' for Active; 'I' for Inactive)
REMARK    1  A    between atoms: O_1  and  C_2
REMARK    2  A    between atoms: C_2  and  N_3
REMARK    3  A    between atoms: N_3  and  O_4
REMARK    4  A    between atoms: N_3  and  C_5
REMARK    5  A    between atoms: C_5  and  C_7
REMARK    6  A    between atoms: C_5  and  C_32
REMARK    7  A    between atoms: C_7  and  C_8
REMARK    8  A    between atoms: C_8  and  C_9
REMARK    9  A    between atoms: C_9  and  N_10
REMARK   10  A    between atoms: C_16  and  C_18
REMARK   11  A    between atoms: C_18  and  O_19
REMARK   12  A    between atoms: O_19  and  P_20
REMARK   13  A    between atoms: P_20  and  O_21
REMARK   14  A    between atoms: P_20  and  O_22
REMARK   15  A    between atoms: C_24  and  O_26
REMARK   16  A    between atoms: C_27  and  O_29
REMARK   17  A    between atoms: C_32  and  O_33
REMARK                            x       y       z     vdW  Elec       q    Type
REMARK                         _______ _______ _______ _____ _____    ______ ____
ROOT
ATOM      1  N   UNL     1       8.634  -1.895  22.700  0.00  0.00    -0.222 N 
ATOM      2  C   UNL     1       9.304  -2.661  23.632  0.00  0.00    +0.277 C 
ATOM      3  O   UNL     1      10.520  -2.798  23.692  0.00  0.00    -0.270 OA
ATOM      4  C   UNL     1       8.245  -3.356  24.532  0.00  0.00    +0.244 C 
ATOM      5  C   UNL     1       8.140  -4.847  24.150  0.00  0.00    +0.205 C 
ATOM      6  C   UNL     1       8.953  -5.492  25.253  0.00  0.00    +0.179 C 
ATOM      7  C   UNL     1       8.711  -4.562  26.450  0.00  0.00    +0.179 C 
ATOM      8  O   UNL     1       8.352  -3.263  25.931  0.00  0.00    -0.338 OA
ATOM      9  N   UNL     1       7.083  -2.620  24.132  0.00  0.00    -0.261 N 
ATOM     10  H   UNL     1       6.201  -2.569  24.617  0.00  0.00    +0.154 HD
ATOM     11  C   UNL     1       7.315  -1.854  23.022  0.00  0.00    +0.311 C 
ATOM     12  O   UNL     1       6.414  -1.230  22.489  0.00  0.00    -0.252 OA
ENDROOT
BRANCH   6  13
ATOM     13  O   UNL     1      10.331  -5.507  24.872  0.00  0.00    -0.386 OA
ATOM     14  H   UNL     1      10.464  -6.228  24.230  0.00  0.00    +0.210 HD
ENDBRANCH   6  13
BRANCH   5  15
ATOM     15  O   UNL     1       6.802  -5.373  24.231  0.00  0.00    -0.384 OA
ATOM     16  H   UNL     1       6.236  -4.709  24.664  0.00  0.00    +0.210 HD
ENDBRANCH   5  15
BRANCH   1  17
ATOM     17  C   UNL     1       9.295  -1.296  21.549  0.00  0.00    +0.118 C 
BRANCH  17  18
ATOM     18  C   UNL     1       9.184   0.222  21.486  0.00  0.00    +0.022 C 
BRANCH  18  19
ATOM     19  C   UNL     1      10.082   0.953  22.492  0.00  0.00    +0.034 C 
BRANCH  19  20
ATOM     20  C   UNL     1       9.268   1.611  23.635  0.00  0.00    +0.195 C 
BRANCH  20  21
ATOM     21  C   UNL     1       9.571   0.837  24.939  0.00  0.00    +0.324 C 
ATOM     22  O   UNL     1      10.608   0.219  25.144  0.00  0.00    -0.249 OA
BRANCH  21  23
ATOM     23  O   UNL     1       8.593   0.952  25.870  0.00  0.00    -0.479 OA
ATOM     24  H   UNL     1       9.036   0.835  26.746  0.00  0.00    +0.295 HD
ENDBRANCH  21  23
ENDBRANCH  20  21
BRANCH  20  25
ATOM     25  N   UNL     1       9.589   3.061  23.818  0.00  0.00    -0.152 NA
BRANCH  25  26
ATOM     26  O   UNL     1       8.817   3.798  22.814  0.00  0.00    -0.309 OA
ATOM     27  H   UNL     1       8.893   4.728  23.138  0.00  0.00    +0.237 HD
ENDBRANCH  25  26
BRANCH  25  28
ATOM     28  C   UNL     1      10.985   3.355  23.491  0.00  0.00    +0.270 C 
BRANCH  28  29
ATOM     29  O   UNL     1      11.042   4.672  22.958  0.00  0.00    -0.378 OA
ATOM     30  H   UNL     1      11.822   5.093  23.360  0.00  0.00    +0.211 HD
ENDBRANCH  28  29
ENDBRANCH  25  28
ENDBRANCH  20  25
ENDBRANCH  19  20
ENDBRANCH  18  19
ENDBRANCH  17  18
ENDBRANCH   1  17
BRANCH   7  31
ATOM     31  C   UNL     1       7.566  -5.080  27.330  0.00  0.00    +0.206 C 
BRANCH  31  32
ATOM     32  O   UNL     1       6.395  -4.274  27.194  0.00  0.00    -0.284 OA
BRANCH  32  33
ATOM     33  P   UNL     1       4.982  -5.245  27.426  0.00  0.00    +0.472 P 
ATOM     34  O   UNL     1       3.718  -6.113  27.633  0.00  0.00    -0.228 OA
BRANCH  33  35
ATOM     35  O   UNL     1       4.571  -4.726  25.929  0.00  0.00    -0.303 OA
ATOM     36  H   UNL     1       5.231  -4.997  25.266  0.00  0.00    +0.222 HD
ENDBRANCH  33  35
BRANCH  33  37
ATOM     37  O   UNL     1       5.943  -6.450  26.879  0.00  0.00    -0.303 OA
ATOM     38  H   UNL     1       6.641  -6.559  27.554  0.00  0.00    +0.222 HD
ENDBRANCH  33  37
ENDBRANCH  32  33
ENDBRANCH  31  32
ENDBRANCH   7  31
TORSDOF 17
ENDMDL
MODEL 6
REMARK VINA RESULT:      -5.8      3.003      7.857
REMARK  Name = 
REMARK  17 active torsions:
REMARK  status: ('A' for Active; 'I' for Inactive)
REMARK    1  A    between atoms: O_1  and  C_2
REMARK    2  A    between atoms: C_2  and  N_3
REMARK    3  A    between atoms: N_3  and  O_4
REMARK    4  A    between atoms: N_3  and  C_5
REMARK    5  A    between atoms: C_5  and  C_7
REMARK    6  A    between atoms: C_5  and  C_32
REMARK    7  A    between atoms: C_7  and  C_8
REMARK    8  A    between atoms: C_8  and  C_9
REMARK    9  A    between atoms: C_9  and  N_10
REMARK   10  A    between atoms: C_16  and  C_18
REMARK   11  A    between atoms: C_18  and  O_19
REMARK   12  A    between atoms: O_19  and  P_20
REMARK   13  A    between atoms: P_20  and  O_21
REMARK   14  A    between atoms: P_20  and  O_22
REMARK   15  A    between atoms: C_24  and  O_26
REMARK   16  A    between atoms: C_27  and  O_29
REMARK   17  A    between atoms: C_32  and  O_33
REMARK                            x       y       z     vdW  Elec       q    Type
REMARK                         _______ _______ _______ _____ _____    ______ ____
ROOT
ATOM      1  N   UNL     1       9.206  -1.478  24.276  0.00  0.00    -0.222 N 
ATOM      2  C   UNL     1       8.683  -2.236  25.303  0.00  0.00    +0.277 C 
ATOM      3  O   UNL     1       8.846  -2.016  26.498  0.00  0.00    -0.270 OA
ATOM      4  C   UNL     1       7.918  -3.434  24.676  0.00  0.00    +0.244 C 
ATOM      5  C   UNL     1       8.748  -4.723  24.843  0.00  0.00    +0.205 C 
ATOM      6  C   UNL     1       8.047  -5.375  26.016  0.00  0.00    +0.179 C 
ATOM      7  C   UNL     1       6.589  -4.925  25.841  0.00  0.00    +0.179 C 
ATOM      8  O   UNL     1       6.596  -3.701  25.075  0.00  0.00    -0.338 OA
ATOM      9  N   UNL     1       7.883  -2.996  23.312  0.00  0.00    -0.261 N 
ATOM     10  H   UNL     1       7.286  -3.344  22.578  0.00  0.00    +0.154 HD
ATOM     11  C   UNL     1       8.701  -1.921  23.094  0.00  0.00    +0.311 C 
ATOM     12  O   UNL     1       8.865  -1.471  21.974  0.00  0.00    -0.252 OA
ENDROOT
BRANCH   6  13
ATOM     13  O   UNL     1       8.606  -4.874  27.233  0.00  0.00    -0.386 OA
ATOM     14  H   UNL     1       9.540  -4.649  27.071  0.00  0.00    +0.210 HD
ENDBRANCH   6  13
BRANCH   5  15
ATOM     15  O   UNL     1       8.652  -5.624  23.723  0.00  0.00    -0.384 OA
ATOM     16  H   UNL     1       9.531  -6.010  23.564  0.00  0.00    +0.210 HD
ENDBRANCH   5  15
BRANCH   1  17
ATOM     17  C   UNL     1      10.179  -0.418  24.494  0.00  0.00    +0.118 C 
BRANCH  17  18
ATOM     18  C   UNL     1       9.618   0.989  24.322  0.00  0.00    +0.022 C 
BRANCH  18  19
ATOM     19  C   UNL     1      10.373   1.837  23.290  0.00  0.00    +0.034 C 
BRANCH  19  20
ATOM     20  C   UNL     1       9.423   2.746  22.471  0.00  0.00    +0.195 C 
BRANCH  20  21
ATOM     21  C   UNL     1       8.366   1.841  21.796  0.00  0.00    +0.324 C 
ATOM     22  O   UNL     1       7.173   1.854  22.074  0.00  0.00    -0.249 OA
BRANCH  21  23
ATOM     23  O   UNL     1       8.880   1.057  20.816  0.00  0.00    -0.479 OA
ATOM     24  H   UNL     1       8.531   1.422  19.966  0.00  0.00    +0.295 HD
ENDBRANCH  21  23
ENDBRANCH  20  21
BRANCH  20  25
ATOM     25  N   UNL     1       8.742   3.782  23.310  0.00  0.00    -0.152 NA
BRANCH  25  26
ATOM     26  O   UNL     1       7.941   4.607  22.402  0.00  0.00    -0.309 OA
ATOM     27  H   UNL     1       8.275   5.514  22.599  0.00  0.00    +0.237 HD
ENDBRANCH  25  26
BRANCH  25  28
ATOM     28  C   UNL     1       9.700   4.718  23.901  0.00  0.00    +0.270 C 
BRANCH  28  29
ATOM     29  O   UNL     1       9.728   5.886  23.091  0.00  0.00    -0.378 OA
ATOM     30  H   UNL     1       8.938   6.402  23.332  0.00  0.00    +0.211 HD
ENDBRANCH  28  29
ENDBRANCH  25  28
ENDBRANCH  20  25
ENDBRANCH  19  20
ENDBRANCH  18  19
ENDBRANCH  17  18
ENDBRANCH   1  17
BRANCH   7  31
ATOM     31  C   UNL     1       5.772  -5.981  25.085  0.00  0.00    +0.206 C 
BRANCH  31  32
ATOM     32  O   UNL     1       4.818  -5.378  24.211  0.00  0.00    -0.284 OA
BRANCH  32  33
ATOM     33  P   UNL     1       5.274  -5.648  22.564  0.00  0.00    +0.472 P 
ATOM     34  O   UNL     1       5.682  -5.890  21.091  0.00  0.00    -0.228 OA
BRANCH  33  35
ATOM     35  O   UNL     1       3.712  -6.097  22.369  0.00  0.00    -0.303 OA
ATOM     36  H   UNL     1       3.384  -5.862  21.483  0.00  0.00    +0.222 HD
ENDBRANCH  33  35
BRANCH  33  37
ATOM     37  O   UNL     1       4.963  -4.050  22.407  0.00  0.00    -0.303 OA
ATOM     38  H   UNL     1       5.709  -3.685  21.892  0.00  0.00    +0.222 HD
ENDBRANCH  33  37
ENDBRANCH  32  33
ENDBRANCH  31  32
ENDBRANCH   7  31
TORSDOF 17
ENDMDL
MODEL 7
REMARK VINA RESULT:      -5.8      3.072      5.108
REMARK  Name = 
REMARK  17 active torsions:
REMARK  status: ('A' for Active; 'I' for Inactive)
REMARK    1  A    between atoms: O_1  and  C_2
REMARK    2  A    between atoms: C_2  and  N_3
REMARK    3  A    between atoms: N_3  and  O_4
REMARK    4  A    between atoms: N_3  and  C_5
REMARK    5  A    between atoms: C_5  and  C_7
REMARK    6  A    between atoms: C_5  and  C_32
REMARK    7  A    between atoms: C_7  and  C_8
REMARK    8  A    between atoms: C_8  and  C_9
REMARK    9  A    between atoms: C_9  and  N_10
REMARK   10  A    between atoms: C_16  and  C_18
REMARK   11  A    between atoms: C_18  and  O_19
REMARK   12  A    between atoms: O_19  and  P_20
REMARK   13  A    between atoms: P_20  and  O_21
REMARK   14  A    between atoms: P_20  and  O_22
REMARK   15  A    between atoms: C_24  and  O_26
REMARK   16  A    between atoms: C_27  and  O_29
REMARK   17  A    between atoms: C_32  and  O_33
REMARK                            x       y       z     vdW  Elec       q    Type
REMARK                         _______ _______ _______ _____ _____    ______ ____
ROOT
ATOM      1  N   UNL     1       8.788  -2.021  24.359  0.00  0.00    -0.222 N 
ATOM      2  C   UNL     1       8.488  -1.342  23.196  0.00  0.00    +0.277 C 
ATOM      3  O   UNL     1       8.581  -1.803  22.064  0.00  0.00    -0.270 OA
ATOM      4  C   UNL     1       8.079   0.107  23.578  0.00  0.00    +0.244 C 
ATOM      5  C   UNL     1       9.228   1.077  23.232  0.00  0.00    +0.205 C 
ATOM      6  C   UNL     1       8.726   1.678  21.935  0.00  0.00    +0.179 C 
ATOM      7  C   UNL     1       7.202   1.673  22.120  0.00  0.00    +0.179 C 
ATOM      8  O   UNL     1       6.879   0.646  23.082  0.00  0.00    -0.338 OA
ATOM      9  N   UNL     1       7.931  -0.060  24.994  0.00  0.00    -0.261 N 
ATOM     10  H   UNL     1       7.454   0.559  25.630  0.00  0.00    +0.154 HD
ATOM     11  C   UNL     1       8.428  -1.259  25.425  0.00  0.00    +0.311 C 
ATOM     12  O   UNL     1       8.467  -1.534  26.612  0.00  0.00    -0.252 OA
ENDROOT
BRANCH   6  13
ATOM     13  O   UNL     1       9.124   0.841  20.847  0.00  0.00    -0.386 OA
ATOM     14  H   UNL     1       9.901   1.244  20.418  0.00  0.00    +0.210 HD
ENDBRANCH   6  13
BRANCH   5  15
ATOM     15  O   UNL     1       9.384   2.152  24.178  0.00  0.00    -0.384 OA
ATOM     16  H   UNL     1       8.567   2.682  24.178  0.00  0.00    +0.210 HD
ENDBRANCH   5  15
BRANCH   1  17
ATOM     17  C   UNL     1       9.436  -3.324  24.367  0.00  0.00    +0.118 C 
BRANCH  17  18
ATOM     18  C   UNL     1       8.515  -4.477  24.750  0.00  0.00    +0.022 C 
BRANCH  18  19
ATOM     19  C   UNL     1       7.982  -5.271  23.551  0.00  0.00    +0.034 C 
BRANCH  19  20
ATOM     20  C   UNL     1       6.795  -4.559  22.857  0.00  0.00    +0.195 C 
BRANCH  20  21
ATOM     21  C   UNL     1       6.296  -5.473  21.714  0.00  0.00    +0.324 C 
ATOM     22  O   UNL     1       5.884  -5.061  20.636  0.00  0.00    -0.249 OA
BRANCH  21  23
ATOM     23  O   UNL     1       6.409  -6.794  21.997  0.00  0.00    -0.479 OA
ATOM     24  H   UNL     1       6.289  -7.267  21.137  0.00  0.00    +0.295 HD
ENDBRANCH  21  23
ENDBRANCH  20  21
BRANCH  20  25
ATOM     25  N   UNL     1       5.668  -4.259  23.795  0.00  0.00    -0.152 NA
BRANCH  25  26
ATOM     26  O   UNL     1       4.490  -4.968  23.288  0.00  0.00    -0.309 OA
ATOM     27  H   UNL     1       4.729  -5.111  22.341  0.00  0.00    +0.237 HD
ENDBRANCH  25  26
BRANCH  25  28
ATOM     28  C   UNL     1       5.287  -2.846  23.755  0.00  0.00    +0.270 C 
BRANCH  28  29
ATOM     29  O   UNL     1       5.596  -2.346  22.460  0.00  0.00    -0.378 OA
ATOM     30  H   UNL     1       4.996  -2.801  21.844  0.00  0.00    +0.211 HD
ENDBRANCH  28  29
ENDBRANCH  25  28
ENDBRANCH  20  25
ENDBRANCH  19  20
ENDBRANCH  18  19
ENDBRANCH  17  18
ENDBRANCH   1  17
BRANCH   7  31
ATOM     31  C   UNL     1       6.705   3.025  22.650  0.00  0.00    +0.206 C 
BRANCH  31  32
ATOM     32  O   UNL     1       7.258   4.113  21.908  0.00  0.00    -0.284 OA
BRANCH  32  33
ATOM     33  P   UNL     1       7.483   5.479  22.946  0.00  0.00    +0.472 P 
ATOM     34  O   UNL     1       7.685   6.701  23.875  0.00  0.00    -0.228 OA
BRANCH  33  35
ATOM     35  O   UNL     1       9.025   4.940  23.061  0.00  0.00    -0.303 OA
ATOM     36  H   UNL     1       9.250   4.350  22.320  0.00  0.00    +0.222 HD
ENDBRANCH  33  35
BRANCH  33  37
ATOM     37  O   UNL     1       7.736   6.275  21.540  0.00  0.00    -0.303 OA
ATOM     38  H   UNL     1       8.703   6.401  21.477  0.00  0.00    +0.222 HD
ENDBRANCH  33  37
ENDBRANCH  32  33
ENDBRANCH  31  32
ENDBRANCH   7  31
TORSDOF 17
ENDMDL
MODEL 8
REMARK VINA RESULT:      -5.8      2.349      3.769
REMARK  Name = 
REMARK  17 active torsions:
REMARK  status: ('A' for Active; 'I' for Inactive)
REMARK    1  A    between atoms: O_1  and  C_2
REMARK    2  A    between atoms: C_2  and  N_3
REMARK    3  A    between atoms: N_3  and  O_4
REMARK    4  A    between atoms: N_3  and  C_5
REMARK    5  A    between atoms: C_5  and  C_7
REMARK    6  A    between atoms: C_5  and  C_32
REMARK    7  A    between atoms: C_7  and  C_8
REMARK    8  A    between atoms: C_8  and  C_9
REMARK    9  A    between atoms: C_9  and  N_10
REMARK   10  A    between atoms: C_16  and  C_18
REMARK   11  A    between atoms: C_18  and  O_19
REMARK   12  A    between atoms: O_19  and  P_20
REMARK   13  A    between atoms: P_20  and  O_21
REMARK   14  A    between atoms: P_20  and  O_22
REMARK   15  A    between atoms: C_24  and  O_26
REMARK   16  A    between atoms: C_27  and  O_29
REMARK   17  A    between atoms: C_32  and  O_33
REMARK                            x       y       z     vdW  Elec       q    Type
REMARK                         _______ _______ _______ _____ _____    ______ ____
ROOT
ATOM      1  N   UNL     1       6.080  -2.075  23.488  0.00  0.00    -0.222 N 
ATOM      2  C   UNL     1       7.265  -1.789  22.843  0.00  0.00    +0.277 C 
ATOM      3  O   UNL     1       7.688  -2.370  21.851  0.00  0.00    -0.270 OA
ATOM      4  C   UNL     1       7.980  -0.658  23.632  0.00  0.00    +0.244 C 
ATOM      5  C   UNL     1       9.160  -1.249  24.429  0.00  0.00    +0.205 C 
ATOM      6  C   UNL     1      10.333  -0.864  23.551  0.00  0.00    +0.179 C 
ATOM      7  C   UNL     1       9.877   0.464  22.930  0.00  0.00    +0.179 C 
ATOM      8  O   UNL     1       8.433   0.487  22.952  0.00  0.00    -0.338 OA
ATOM      9  N   UNL     1       6.904  -0.259  24.491  0.00  0.00    -0.261 N 
ATOM     10  H   UNL     1       6.834   0.597  25.017  0.00  0.00    +0.154 HD
ATOM     11  C   UNL     1       5.860  -1.142  24.451  0.00  0.00    +0.311 C 
ATOM     12  O   UNL     1       4.895  -1.009  25.184  0.00  0.00    -0.252 OA
ENDROOT
BRANCH   6  13
ATOM     13  O   UNL     1      10.521  -1.870  22.554  0.00  0.00    -0.386 OA
ATOM     14  H   UNL     1      11.478  -1.998  22.423  0.00  0.00    +0.210 HD
ENDBRANCH   6  13
BRANCH   5  15
ATOM     15  O   UNL     1       9.359  -0.632  25.716  0.00  0.00    -0.384 OA
ATOM     16  H   UNL     1       8.674  -0.962  26.324  0.00  0.00    +0.210 HD
ENDBRANCH   5  15
BRANCH   1  17
ATOM     17  C   UNL     1       5.269  -3.241  23.168  0.00  0.00    +0.118 C 
BRANCH  17  18
ATOM     18  C   UNL     1       5.339  -4.355  24.207  0.00  0.00    +0.022 C 
BRANCH  18  19
ATOM     19  C   UNL     1       6.580  -5.247  24.077  0.00  0.00    +0.034 C 
BRANCH  19  20
ATOM     20  C   UNL     1       7.425  -5.268  25.376  0.00  0.00    +0.195 C 
BRANCH  20  21
ATOM     21  C   UNL     1       8.889  -4.950  24.995  0.00  0.00    +0.324 C 
ATOM     22  O   UNL     1       9.857  -5.240  25.687  0.00  0.00    -0.249 OA
BRANCH  21  23
ATOM     23  O   UNL     1       9.009  -4.359  23.780  0.00  0.00    -0.479 OA
ATOM     24  H   UNL     1       9.947  -4.503  23.500  0.00  0.00    +0.295 HD
ENDBRANCH  21  23
ENDBRANCH  20  21
BRANCH  20  25
ATOM     25  N   UNL     1       6.942  -4.288  26.399  0.00  0.00    -0.152 NA
BRANCH  25  26
ATOM     26  O   UNL     1       8.048  -3.362  26.658  0.00  0.00    -0.309 OA
ATOM     27  H   UNL     1       7.885  -2.655  25.989  0.00  0.00    +0.237 HD
ENDBRANCH  25  26
BRANCH  25  28
ATOM     28  C   UNL     1       6.693  -4.928  27.691  0.00  0.00    +0.270 C 
BRANCH  28  29
ATOM     29  O   UNL     1       7.606  -6.011  27.827  0.00  0.00    -0.378 OA
ATOM     30  H   UNL     1       8.182  -5.979  27.043  0.00  0.00    +0.211 HD
ENDBRANCH  28  29
ENDBRANCH  25  28
ENDBRANCH  20  25
ENDBRANCH  19  20
ENDBRANCH  18  19
ENDBRANCH  17  18
ENDBRANCH   1  17
BRANCH   7  31
ATOM     31  C   UNL     1      10.405   1.660  23.734  0.00  0.00    +0.206 C 
BRANCH  31  32
ATOM     32  O   UNL     1       9.925   2.898  23.207  0.00  0.00    -0.284 OA
BRANCH  32  33
ATOM     33  P   UNL     1       8.959   3.706  24.393  0.00  0.00    +0.472 P 
ATOM     34  O   UNL     1       8.095   4.430  25.454  0.00  0.00    -0.228 OA
BRANCH  33  35
ATOM     35  O   UNL     1       7.704   3.284  23.431  0.00  0.00    -0.303 OA
ATOM     36  H   UNL     1       8.008   2.793  22.648  0.00  0.00    +0.222 HD
ENDBRANCH  33  35
BRANCH  33  37
ATOM     37  O   UNL     1       9.018   2.263  25.159  0.00  0.00    -0.303 OA
ATOM     38  H   UNL     1       8.191   2.204  25.677  0.00  0.00    +0.222 HD
ENDBRANCH  33  37
ENDBRANCH  32  33
ENDBRANCH  31  32
ENDBRANCH   7  31
TORSDOF 17
ENDMDL
MODEL 9
REMARK VINA RESULT:      -5.8      2.398      4.731
REMARK  Name = 
REMARK  17 active torsions:
REMARK  status: ('A' for Active; 'I' for Inactive)
REMARK    1  A    between atoms: O_1  and  C_2
REMARK    2  A    between atoms: C_2  and  N_3
REMARK    3  A    between atoms: N_3  and  O_4
REMARK    4  A    between atoms: N_3  and  C_5
REMARK    5  A    between atoms: C_5  and  C_7
REMARK    6  A    between atoms: C_5  and  C_32
REMARK    7  A    between atoms: C_7  and  C_8
REMARK    8  A    between atoms: C_8  and  C_9
REMARK    9  A    between atoms: C_9  and  N_10
REMARK   10  A    between atoms: C_16  and  C_18
REMARK   11  A    between atoms: C_18  and  O_19
REMARK   12  A    between atoms: O_19  and  P_20
REMARK   13  A    between atoms: P_20  and  O_21
REMARK   14  A    between atoms: P_20  and  O_22
REMARK   15  A    between atoms: C_24  and  O_26
REMARK   16  A    between atoms: C_27  and  O_29
REMARK   17  A    between atoms: C_32  and  O_33
REMARK                            x       y       z     vdW  Elec       q    Type
REMARK                         _______ _______ _______ _____ _____    ______ ____
ROOT
ATOM      1  N   UNL     1       8.714  -2.261  24.818  0.00  0.00    -0.222 N 
ATOM      2  C   UNL     1       8.491  -1.728  23.565  0.00  0.00    +0.277 C 
ATOM      3  O   UNL     1       8.273  -2.378  22.549  0.00  0.00    -0.270 OA
ATOM      4  C   UNL     1       8.627  -0.184  23.669  0.00  0.00    +0.244 C 
ATOM      5  C   UNL     1       9.966   0.260  23.047  0.00  0.00    +0.205 C 
ATOM      6  C   UNL     1       9.511   0.767  21.695  0.00  0.00    +0.179 C 
ATOM      7  C   UNL     1       8.107   1.316  21.987  0.00  0.00    +0.179 C 
ATOM      8  O   UNL     1       7.607   0.640  23.161  0.00  0.00    -0.338 OA
ATOM      9  N   UNL     1       8.630  -0.048  25.095  0.00  0.00    -0.261 N 
ATOM     10  H   UNL     1       8.470   0.795  25.624  0.00  0.00    +0.154 HD
ATOM     11  C   UNL     1       8.769  -1.253  25.728  0.00  0.00    +0.311 C 
ATOM     12  O   UNL     1       8.881  -1.319  26.939  0.00  0.00    -0.252 OA
ENDROOT
BRANCH   6  13
ATOM     13  O   UNL     1       9.464  -0.327  20.776  0.00  0.00    -0.386 OA
ATOM     14  H   UNL     1       8.725  -0.177  20.158  0.00  0.00    +0.210 HD
ENDBRANCH   6  13
BRANCH   5  15
ATOM     15  O   UNL     1      10.589   1.360  23.737  0.00  0.00    -0.384 OA
ATOM     16  H   UNL     1       9.979   1.674  24.428  0.00  0.00    +0.210 HD
ENDBRANCH   5  15
BRANCH   1  17
ATOM     17  C   UNL     1       8.903  -3.686  25.047  0.00  0.00    +0.118 C 
BRANCH  17  18
ATOM     18  C   UNL     1       7.606  -4.482  25.129  0.00  0.00    +0.022 C 
BRANCH  18  19
ATOM     19  C   UNL     1       7.345  -5.372  23.907  0.00  0.00    +0.034 C 
BRANCH  19  20
ATOM     20  C   UNL     1       5.951  -5.116  23.282  0.00  0.00    +0.195 C 
BRANCH  20  21
ATOM     21  C   UNL     1       6.147  -4.881  21.766  0.00  0.00    +0.324 C 
ATOM     22  O   UNL     1       6.651  -5.697  21.005  0.00  0.00    -0.249 OA
BRANCH  21  23
ATOM     23  O   UNL     1       5.653  -3.692  21.340  0.00  0.00    -0.479 OA
ATOM     24  H   UNL     1       5.673  -3.093  22.126  0.00  0.00    +0.295 HD
ENDBRANCH  21  23
ENDBRANCH  20  21
BRANCH  20  25
ATOM     25  N   UNL     1       4.998  -6.249  23.501  0.00  0.00    -0.152 NA
BRANCH  25  26
ATOM     26  O   UNL     1       4.021  -6.202  22.410  0.00  0.00    -0.309 OA
ATOM     27  H   UNL     1       3.260  -6.700  22.794  0.00  0.00    +0.237 HD
ENDBRANCH  25  26
BRANCH  25  28
ATOM     28  C   UNL     1       4.200  -6.061  24.713  0.00  0.00    +0.270 C 
BRANCH  28  29
ATOM     29  O   UNL     1       4.658  -6.991  25.688  0.00  0.00    -0.378 OA
ATOM     30  H   UNL     1       5.052  -7.730  25.192  0.00  0.00    +0.211 HD
ENDBRANCH  28  29
ENDBRANCH  25  28
ENDBRANCH  20  25
ENDBRANCH  19  20
ENDBRANCH  18  19
ENDBRANCH  17  18
ENDBRANCH   1  17
BRANCH   7  31
ATOM     31  C   UNL     1       8.150   2.825  22.262  0.00  0.00    +0.206 C 
BRANCH  31  32
ATOM     32  O   UNL     1       7.373   3.170  23.409  0.00  0.00    -0.284 OA
BRANCH  32  33
ATOM     33  P   UNL     1       8.271   4.243  24.427  0.00  0.00    +0.472 P 
ATOM     34  O   UNL     1       9.075   5.203  25.337  0.00  0.00    -0.228 OA
BRANCH  33  35
ATOM     35  O   UNL     1       8.691   2.879  25.229  0.00  0.00    -0.303 OA
ATOM     36  H   UNL     1       8.620   2.999  26.192  0.00  0.00    +0.222 HD
ENDBRANCH  33  35
BRANCH  33  37
ATOM     37  O   UNL     1       9.424   4.071  23.280  0.00  0.00    -0.303 OA
ATOM     38  H   UNL     1      10.276   4.214  23.737  0.00  0.00    +0.222 HD
ENDBRANCH  33  37
ENDBRANCH  32  33
ENDBRANCH  31  32
ENDBRANCH   7  31
TORSDOF 17
ENDMDL
