MODEL 1
REMARK VINA RESULT:      -6.2      0.000      0.000
REMARK  Name = 
REMARK  30 active torsions:
REMARK  status: ('A' for Active; 'I' for Inactive)
REMARK    1  A    between atoms: C_1  and  C_2
REMARK    2  A    between atoms: C_2  and  C_3
REMARK    3  A    between atoms: C_2  and  C_4
REMARK    4  A    between atoms: C_2  and  C_40
REMARK    5  A    between atoms: C_4  and  O_5
REMARK    6  A    between atoms: O_5  and  P_6
REMARK    7  A    between atoms: P_6  and  O_7
REMARK    8  A    between atoms: P_6  and  O_9
REMARK    9  A    between atoms: O_9  and  P_10
REMARK   10  A    between atoms: P_10  and  O_11
REMARK   11  A    between atoms: P_10  and  O_13
REMARK   12  A    between atoms: O_13  and  C_14
REMARK   13  A    between atoms: C_14  and  C_15
REMARK   14  A    between atoms: C_18  and  N_30
REMARK   15  A    between atoms: C_20  and  O_22
REMARK   16  A    between atoms: C_23  and  O_25
REMARK   17  A    between atoms: O_25  and  P_26
REMARK   18  A    between atoms: P_26  and  O_27
REMARK   19  A    between atoms: P_26  and  O_28
REMARK   20  A    between atoms: C_40  and  O_42
REMARK   21  A    between atoms: C_40  and  C_43
REMARK   22  A    between atoms: N_45  and  C_46
REMARK   23  A    between atoms: C_46  and  C_47
REMARK   24  A    between atoms: C_47  and  C_48
REMARK   25  A    between atoms: N_50  and  C_51
REMARK   26  A    between atoms: C_51  and  C_52
REMARK   27  A    between atoms: C_52  and  S_53
REMARK   28  A    between atoms: S_53  and  C_54
REMARK   29  A    between atoms: C_54  and  C_55
REMARK   30  A    between atoms: C_55  and  C_57
REMARK                            x       y       z     vdW  Elec       q    Type
REMARK                         _______ _______ _______ _____ _____    ______ ____
ROOT
ATOM      1  O   UNL     1       8.381   0.374  22.817  0.00  0.00    -0.186 OA
ENDROOT
BRANCH   1   2
ATOM      2  P   UNL     1       9.800  -0.318  23.001  0.00  0.00    +0.483 P 
ATOM      3  O   UNL     1      10.912   0.539  23.506  0.00  0.00    -0.227 OA
BRANCH   2   4
ATOM      4  O   UNL     1      10.166  -0.804  21.513  0.00  0.00    -0.302 OA
ATOM      5  H   UNL     1       9.346  -0.861  20.987  0.00  0.00    +0.222 HD
ENDBRANCH   2   4
BRANCH   2   6
ATOM      6  O   UNL     1       9.630  -1.745  23.754  0.00  0.00    -0.284 OA
BRANCH   6   7
ATOM      7  C   UNL     1       8.460  -1.827  24.569  0.00  0.00    +0.206 C 
BRANCH   7   8
ATOM      8  C   UNL     1       7.416  -2.882  24.156  0.00  0.00    +0.179 C 
ATOM      9  C   UNL     1       8.002  -4.268  23.893  0.00  0.00    +0.194 C 
ATOM     10  C   UNL     1       7.524  -5.118  25.077  0.00  0.00    +0.196 C 
ATOM     11  C   UNL     1       6.784  -4.137  25.994  0.00  0.00    +0.253 C 
ATOM     12  O   UNL     1       6.404  -3.022  25.173  0.00  0.00    -0.346 OA
BRANCH  11  13
ATOM     13  N   UNL     1       5.607  -4.714  26.629  0.00  0.00    -0.286 N 
ATOM     14  C   UNL     1       5.635  -5.518  27.737  0.00  0.00    +0.167 A 
ATOM     15  N   UNL     1       6.715  -5.970  28.399  0.00  0.00    -0.216 NA
ATOM     16  C   UNL     1       6.339  -6.725  29.457  0.00  0.00    +0.225 A 
ATOM     17  N   UNL     1       5.091  -7.046  29.866  0.00  0.00    -0.219 NA
ATOM     18  C   UNL     1       4.039  -6.557  29.169  0.00  0.00    +0.147 A 
ATOM     19  N   UNL     1       2.759  -6.874  29.600  0.00  0.00    -0.341 N 
ATOM     20  H   UNL     1       2.048  -6.761  28.886  0.00  0.00    +0.144 HD
ATOM     21  H   UNL     1       2.734  -7.711  30.167  0.00  0.00    +0.144 HD
ATOM     22  C   UNL     1       4.302  -5.761  28.039  0.00  0.00    +0.147 A 
ATOM     23  N   UNL     1       3.475  -5.153  27.116  0.00  0.00    -0.231 NA
ATOM     24  C   UNL     1       4.293  -4.524  26.295  0.00  0.00    +0.203 A 
ENDBRANCH  11  13
BRANCH  10  25
ATOM     25  O   UNL     1       8.639  -5.716  25.751  0.00  0.00    -0.385 OA
ATOM     26  H   UNL     1       8.905  -5.104  26.469  0.00  0.00    +0.210 HD
ENDBRANCH  10  25
BRANCH   9  27
ATOM     27  O   UNL     1       7.493  -4.834  22.655  0.00  0.00    -0.278 OA
BRANCH  27  28
ATOM     28  P   UNL     1       5.812  -5.238  22.589  0.00  0.00    +0.473 P 
ATOM     29  O   UNL     1       4.308  -5.601  22.531  0.00  0.00    -0.228 OA
BRANCH  28  30
ATOM     30  O   UNL     1       6.337  -6.670  21.992  0.00  0.00    -0.303 OA
ATOM     31  H   UNL     1       7.236  -6.883  22.289  0.00  0.00    +0.222 HD
ENDBRANCH  28  30
BRANCH  28  32
ATOM     32  O   UNL     1       5.775  -4.514  21.126  0.00  0.00    -0.303 OA
ATOM     33  H   UNL     1       6.670  -4.617  20.750  0.00  0.00    +0.222 HD
ENDBRANCH  28  32
ENDBRANCH  27  28
ENDBRANCH   9  27
ENDBRANCH   7   8
ENDBRANCH   6   7
ENDBRANCH   2   6
ENDBRANCH   1   2
BRANCH   1  34
ATOM     34  P   UNL     1       8.204   1.909  22.451  0.00  0.00    +0.483 P 
ATOM     35  O   UNL     1       6.997   2.273  21.652  0.00  0.00    -0.227 OA
BRANCH  34  36
ATOM     36  O   UNL     1       9.518   2.215  21.579  0.00  0.00    -0.302 OA
ATOM     37  H   UNL     1       9.673   3.178  21.561  0.00  0.00    +0.222 HD
ENDBRANCH  34  36
BRANCH  34  38
ATOM     38  O   UNL     1       8.491   2.802  23.769  0.00  0.00    -0.286 OA
BRANCH  38  39
ATOM     39  C   UNL     1       9.462   3.840  23.626  0.00  0.00    +0.181 C 
BRANCH  39  41
ATOM     40  C   UNL     1       8.478   5.189  25.580  0.00  0.00    +0.016 C 
ATOM     41  C   UNL     1       8.988   5.237  24.123  0.00  0.00    +0.024 C 
ATOM     42  C   UNL     1      10.186   6.218  24.136  0.00  0.00    +0.016 C 
BRANCH  41  43
ATOM     43  C   UNL     1       7.872   5.784  23.165  0.00  0.00    +0.208 C 
BRANCH  43  44
ATOM     44  C   UNL     1       6.430   5.604  23.714  0.00  0.00    +0.242 C 
ATOM     45  N   UNL     1       5.832   4.399  23.392  0.00  0.00    -0.313 N 
ATOM     46  H   UNL     1       6.452   3.631  23.159  0.00  0.00    +0.149 HD
ATOM     47  O   UNL     1       5.823   6.468  24.332  0.00  0.00    -0.273 OA
BRANCH  45  48
ATOM     48  C   UNL     1       4.479   4.133  23.861  0.00  0.00    +0.113 C 
BRANCH  48  49
ATOM     49  C   UNL     1       4.381   2.784  24.565  0.00  0.00    +0.114 C 
BRANCH  49  50
ATOM     50  C   UNL     1       5.432   2.672  25.645  0.00  0.00    +0.215 C 
ATOM     51  N   UNL     1       6.201   1.541  25.584  0.00  0.00    -0.314 N 
ATOM     52  H   UNL     1       5.873   0.758  25.031  0.00  0.00    +0.149 HD
ATOM     53  O   UNL     1       5.583   3.535  26.505  0.00  0.00    -0.276 OA
BRANCH  51  54
ATOM     54  C   UNL     1       7.225   1.270  26.576  0.00  0.00    +0.115 C 
BRANCH  54  55
ATOM     55  C   UNL     1       6.855   0.149  27.553  0.00  0.00    +0.088 C 
BRANCH  55  56
ATOM     56  S   UNL     1       5.834   0.799  28.933  0.00  0.00    -0.151 S 
BRANCH  56  57
ATOM     57  C   UNL     1       4.317  -0.184  28.699  0.00  0.00    +0.153 C 
BRANCH  57  58
ATOM     58  C   UNL     1       3.547   0.142  27.431  0.00  0.00    +0.245 C 
ATOM     59  O   UNL     1       3.745  -0.414  26.349  0.00  0.00    -0.287 OA
BRANCH  58  60
ATOM     60  C   UNL     1       2.490   1.218  27.607  0.00  0.00    +0.451 C 
ATOM     61  F   UNL     1       1.805   1.465  26.458  0.00  0.00    -0.163 F 
ATOM     62  F   UNL     1       3.019   2.404  28.012  0.00  0.00    -0.163 F 
ATOM     63  F   UNL     1       1.553   0.885  28.539  0.00  0.00    -0.163 F 
ENDBRANCH  58  60
ENDBRANCH  57  58
ENDBRANCH  56  57
ENDBRANCH  55  56
ENDBRANCH  54  55
ENDBRANCH  51  54
ENDBRANCH  49  50
ENDBRANCH  48  49
ENDBRANCH  45  48
ENDBRANCH  43  44
BRANCH  43  64
ATOM     64  O   UNL     1       7.950   5.187  21.864  0.00  0.00    -0.382 OA
ATOM     65  H   UNL     1       8.548   5.731  21.319  0.00  0.00    +0.210 HD
ENDBRANCH  43  64
ENDBRANCH  41  43
ENDBRANCH  39  41
ENDBRANCH  38  39
ENDBRANCH  34  38
ENDBRANCH   1  34
TORSDOF 28
ENDMDL
MODEL 2
REMARK VINA RESULT:      -6.1      3.757      9.712
REMARK  Name = 
REMARK  30 active torsions:
REMARK  status: ('A' for Active; 'I' for Inactive)
REMARK    1  A    between atoms: C_1  and  C_2
REMARK    2  A    between atoms: C_2  and  C_3
REMARK    3  A    between atoms: C_2  and  C_4
REMARK    4  A    between atoms: C_2  and  C_40
REMARK    5  A    between atoms: C_4  and  O_5
REMARK    6  A    between atoms: O_5  and  P_6
REMARK    7  A    between atoms: P_6  and  O_7
REMARK    8  A    between atoms: P_6  and  O_9
REMARK    9  A    between atoms: O_9  and  P_10
REMARK   10  A    between atoms: P_10  and  O_11
REMARK   11  A    between atoms: P_10  and  O_13
REMARK   12  A    between atoms: O_13  and  C_14
REMARK   13  A    between atoms: C_14  and  C_15
REMARK   14  A    between atoms: C_18  and  N_30
REMARK   15  A    between atoms: C_20  and  O_22
REMARK   16  A    between atoms: C_23  and  O_25
REMARK   17  A    between atoms: O_25  and  P_26
REMARK   18  A    between atoms: P_26  and  O_27
REMARK   19  A    between atoms: P_26  and  O_28
REMARK   20  A    between atoms: C_40  and  O_42
REMARK   21  A    between atoms: C_40  and  C_43
REMARK   22  A    between atoms: N_45  and  C_46
REMARK   23  A    between atoms: C_46  and  C_47
REMARK   24  A    between atoms: C_47  and  C_48
REMARK   25  A    between atoms: N_50  and  C_51
REMARK   26  A    between atoms: C_51  and  C_52
REMARK   27  A    between atoms: C_52  and  S_53
REMARK   28  A    between atoms: S_53  and  C_54
REMARK   29  A    between atoms: C_54  and  C_55
REMARK   30  A    between atoms: C_55  and  C_57
REMARK                            x       y       z     vdW  Elec       q    Type
REMARK                         _______ _______ _______ _____ _____    ______ ____
ROOT
ATOM      1  O   UNL     1       5.534  -4.034  24.641  0.00  0.00    -0.186 OA
ENDROOT
BRANCH   1   2
ATOM      2  P   UNL     1       4.939  -2.656  25.161  0.00  0.00    +0.483 P 
ATOM      3  O   UNL     1       3.459  -2.577  25.332  0.00  0.00    -0.227 OA
BRANCH   2   4
ATOM      4  O   UNL     1       5.377  -1.613  24.019  0.00  0.00    -0.302 OA
ATOM      5  H   UNL     1       5.156  -1.989  23.145  0.00  0.00    +0.222 HD
ENDBRANCH   2   4
BRANCH   2   6
ATOM      6  O   UNL     1       5.810  -2.112  26.418  0.00  0.00    -0.284 OA
BRANCH   6   7
ATOM      7  C   UNL     1       5.014  -1.618  27.496  0.00  0.00    +0.206 C 
BRANCH   7   8
ATOM      8  C   UNL     1       4.877  -0.086  27.593  0.00  0.00    +0.179 C 
ATOM      9  C   UNL     1       5.607   0.529  28.785  0.00  0.00    +0.194 C 
ATOM     10  C   UNL     1       6.800   1.268  28.166  0.00  0.00    +0.196 C 
ATOM     11  C   UNL     1       6.734   0.938  26.670  0.00  0.00    +0.253 C 
ATOM     12  O   UNL     1       5.379   0.546  26.400  0.00  0.00    -0.346 OA
BRANCH  11  13
ATOM     13  N   UNL     1       7.111   2.054  25.814  0.00  0.00    -0.286 N 
ATOM     14  C   UNL     1       7.134   2.014  24.445  0.00  0.00    +0.167 A 
ATOM     15  N   UNL     1       6.883   0.960  23.648  0.00  0.00    -0.216 NA
ATOM     16  C   UNL     1       6.986   1.316  22.347  0.00  0.00    +0.225 A 
ATOM     17  N   UNL     1       7.300   2.521  21.823  0.00  0.00    -0.219 NA
ATOM     18  C   UNL     1       7.534   3.551  22.669  0.00  0.00    +0.147 A 
ATOM     19  N   UNL     1       7.840   4.792  22.128  0.00  0.00    -0.341 N 
ATOM     20  H   UNL     1       8.307   5.416  22.777  0.00  0.00    +0.144 HD
ATOM     21  H   UNL     1       8.202   4.729  21.187  0.00  0.00    +0.144 HD
ATOM     22  C   UNL     1       7.464   3.304  24.052  0.00  0.00    +0.147 A 
ATOM     23  N   UNL     1       7.677   4.108  25.154  0.00  0.00    -0.231 NA
ATOM     24  C   UNL     1       7.443   3.329  26.191  0.00  0.00    +0.203 A 
ENDBRANCH  11  13
BRANCH  10  25
ATOM     25  O   UNL     1       8.030   0.810  28.742  0.00  0.00    -0.385 OA
ATOM     26  H   UNL     1       7.903  -0.131  28.988  0.00  0.00    +0.210 HD
ENDBRANCH  10  25
BRANCH   9  27
ATOM     27  O   UNL     1       4.765   1.480  29.492  0.00  0.00    -0.278 OA
BRANCH  27  28
ATOM     28  P   UNL     1       3.166   1.742  28.884  0.00  0.00    +0.473 P 
ATOM     29  O   UNL     1       1.737   1.976  28.338  0.00  0.00    -0.228 OA
BRANCH  28  30
ATOM     30  O   UNL     1       3.772   3.162  28.336  0.00  0.00    -0.303 OA
ATOM     31  H   UNL     1       4.632   3.049  27.900  0.00  0.00    +0.222 HD
ENDBRANCH  28  30
BRANCH  28  32
ATOM     32  O   UNL     1       2.789   2.341  30.356  0.00  0.00    -0.303 OA
ATOM     33  H   UNL     1       2.536   1.574  30.903  0.00  0.00    +0.222 HD
ENDBRANCH  28  32
ENDBRANCH  27  28
ENDBRANCH   9  27
ENDBRANCH   7   8
ENDBRANCH   6   7
ENDBRANCH   2   6
ENDBRANCH   1   2
BRANCH   1  34
ATOM     34  P   UNL     1       4.978  -4.792  23.361  0.00  0.00    +0.483 P 
ATOM     35  O   UNL     1       5.757  -5.975  22.891  0.00  0.00    -0.227 OA
BRANCH  34  36
ATOM     36  O   UNL     1       5.025  -3.652  22.230  0.00  0.00    -0.302 OA
ATOM     37  H   UNL     1       5.347  -4.042  21.396  0.00  0.00    +0.222 HD
ENDBRANCH  34  36
BRANCH  34  38
ATOM     38  O   UNL     1       3.382  -5.001  23.524  0.00  0.00    -0.286 OA
BRANCH  38  39
ATOM     39  C   UNL     1       2.837  -6.179  22.928  0.00  0.00    +0.181 C 
BRANCH  39  41
ATOM     40  C   UNL     1       0.692  -6.048  24.338  0.00  0.00    +0.016 C 
ATOM     41  C   UNL     1       1.836  -6.954  23.834  0.00  0.00    +0.024 C 
ATOM     42  C   UNL     1       1.147  -8.071  23.010  0.00  0.00    +0.016 C 
BRANCH  41  43
ATOM     43  C   UNL     1       2.608  -7.594  25.041  0.00  0.00    +0.208 C 
BRANCH  43  44
ATOM     44  C   UNL     1       2.468  -6.797  26.368  0.00  0.00    +0.242 C 
ATOM     45  N   UNL     1       3.354  -5.745  26.511  0.00  0.00    -0.313 N 
ATOM     46  H   UNL     1       3.750  -5.365  25.659  0.00  0.00    +0.149 HD
ATOM     47  O   UNL     1       1.685  -7.093  27.261  0.00  0.00    -0.273 OA
BRANCH  45  48
ATOM     48  C   UNL     1       3.302  -4.936  27.721  0.00  0.00    +0.113 C 
BRANCH  48  49
ATOM     49  C   UNL     1       4.415  -5.306  28.695  0.00  0.00    +0.114 C 
BRANCH  49  50
ATOM     50  C   UNL     1       5.606  -5.865  27.951  0.00  0.00    +0.215 C 
ATOM     51  N   UNL     1       6.562  -4.942  27.619  0.00  0.00    -0.314 N 
ATOM     52  H   UNL     1       6.316  -3.959  27.636  0.00  0.00    +0.149 HD
ATOM     53  O   UNL     1       5.706  -7.057  27.675  0.00  0.00    -0.276 OA
BRANCH  51  54
ATOM     54  C   UNL     1       7.744  -5.317  26.867  0.00  0.00    +0.115 C 
BRANCH  54  55
ATOM     55  C   UNL     1       8.695  -4.147  26.590  0.00  0.00    +0.088 C 
BRANCH  55  56
ATOM     56  S   UNL     1       9.180  -4.106  24.820  0.00  0.00    -0.151 S 
BRANCH  56  57
ATOM     57  C   UNL     1       8.827  -2.361  24.433  0.00  0.00    +0.153 C 
BRANCH  57  58
ATOM     58  C   UNL     1       8.664  -2.065  22.953  0.00  0.00    +0.245 C 
ATOM     59  O   UNL     1       7.735  -2.499  22.267  0.00  0.00    -0.287 OA
BRANCH  58  60
ATOM     60  C   UNL     1       9.747  -1.171  22.376  0.00  0.00    +0.451 C 
ATOM     61  F   UNL     1      10.934  -1.818  22.235  0.00  0.00    -0.163 F 
ATOM     62  F   UNL     1       9.984  -0.078  23.149  0.00  0.00    -0.163 F 
ATOM     63  F   UNL     1       9.429  -0.695  21.139  0.00  0.00    -0.163 F 
ENDBRANCH  58  60
ENDBRANCH  57  58
ENDBRANCH  56  57
ENDBRANCH  55  56
ENDBRANCH  54  55
ENDBRANCH  51  54
ENDBRANCH  49  50
ENDBRANCH  48  49
ENDBRANCH  45  48
ENDBRANCH  43  44
BRANCH  43  64
ATOM     64  O   UNL     1       4.001  -7.764  24.750  0.00  0.00    -0.382 OA
ATOM     65  H   UNL     1       4.085  -7.993  23.806  0.00  0.00    +0.210 HD
ENDBRANCH  43  64
ENDBRANCH  41  43
ENDBRANCH  39  41
ENDBRANCH  38  39
ENDBRANCH  34  38
ENDBRANCH   1  34
TORSDOF 28
ENDMDL
MODEL 3
REMARK VINA RESULT:      -6.1      1.615      2.172
REMARK  Name = 
REMARK  30 active torsions:
REMARK  status: ('A' for Active; 'I' for Inactive)
REMARK    1  A    between atoms: C_1  and  C_2
REMARK    2  A    between atoms: C_2  and  C_3
REMARK    3  A    between atoms: C_2  and  C_4
REMARK    4  A    between atoms: C_2  and  C_40
REMARK    5  A    between atoms: C_4  and  O_5
REMARK    6  A    between atoms: O_5  and  P_6
REMARK    7  A    between atoms: P_6  and  O_7
REMARK    8  A    between atoms: P_6  and  O_9
REMARK    9  A    between atoms: O_9  and  P_10
REMARK   10  A    between atoms: P_10  and  O_11
REMARK   11  A    between atoms: P_10  and  O_13
REMARK   12  A    between atoms: O_13  and  C_14
REMARK   13  A    between atoms: C_14  and  C_15
REMARK   14  A    between atoms: C_18  and  N_30
REMARK   15  A    between atoms: C_20  and  O_22
REMARK   16  A    between atoms: C_23  and  O_25
REMARK   17  A    between atoms: O_25  and  P_26
REMARK   18  A    between atoms: P_26  and  O_27
REMARK   19  A    between atoms: P_26  and  O_28
REMARK   20  A    between atoms: C_40  and  O_42
REMARK   21  A    between atoms: C_40  and  C_43
REMARK   22  A    between atoms: N_45  and  C_46
REMARK   23  A    between atoms: C_46  and  C_47
REMARK   24  A    between atoms: C_47  and  C_48
REMARK   25  A    between atoms: N_50  and  C_51
REMARK   26  A    between atoms: C_51  and  C_52
REMARK   27  A    between atoms: C_52  and  S_53
REMARK   28  A    between atoms: S_53  and  C_54
REMARK   29  A    between atoms: C_54  and  C_55
REMARK   30  A    between atoms: C_55  and  C_57
REMARK                            x       y       z     vdW  Elec       q    Type
REMARK                         _______ _______ _______ _____ _____    ______ ____
ROOT
ATOM      1  O   UNL     1       8.480   0.151  22.806  0.00  0.00    -0.186 OA
ENDROOT
BRANCH   1   2
ATOM      2  P   UNL     1       9.831  -0.631  23.100  0.00  0.00    +0.483 P 
ATOM      3  O   UNL     1      10.969   0.161  23.649  0.00  0.00    -0.227 OA
BRANCH   2   4
ATOM      4  O   UNL     1      10.252  -1.192  21.653  0.00  0.00    -0.302 OA
ATOM      5  H   UNL     1      10.625  -2.088  21.756  0.00  0.00    +0.222 HD
ENDBRANCH   2   4
BRANCH   2   6
ATOM      6  O   UNL     1       9.513  -2.018  23.881  0.00  0.00    -0.284 OA
BRANCH   6   7
ATOM      7  C   UNL     1       8.291  -1.991  24.620  0.00  0.00    +0.206 C 
BRANCH   7   8
ATOM      8  C   UNL     1       7.290  -3.124  24.319  0.00  0.00    +0.179 C 
ATOM      9  C   UNL     1       7.920  -4.514  24.271  0.00  0.00    +0.194 C 
ATOM     10  C   UNL     1       7.416  -5.208  25.543  0.00  0.00    +0.196 C 
ATOM     11  C   UNL     1       6.617  -4.133  26.288  0.00  0.00    +0.253 C 
ATOM     12  O   UNL     1       6.243  -3.152  25.308  0.00  0.00    -0.346 OA
BRANCH  11  13
ATOM     13  N   UNL     1       5.430  -4.652  26.953  0.00  0.00    -0.286 N 
ATOM     14  C   UNL     1       5.443  -5.385  28.110  0.00  0.00    +0.167 A 
ATOM     15  N   UNL     1       6.514  -5.809  28.804  0.00  0.00    -0.216 NA
ATOM     16  C   UNL     1       6.124  -6.491  29.907  0.00  0.00    +0.225 A 
ATOM     17  N   UNL     1       4.871  -6.768  30.330  0.00  0.00    -0.219 NA
ATOM     18  C   UNL     1       3.828  -6.309  29.600  0.00  0.00    +0.147 A 
ATOM     19  N   UNL     1       2.543  -6.580  30.045  0.00  0.00    -0.341 N 
ATOM     20  H   UNL     1       1.835  -6.503  29.322  0.00  0.00    +0.144 HD
ATOM     21  H   UNL     1       2.504  -7.379  30.663  0.00  0.00    +0.144 HD
ATOM     22  C   UNL     1       4.106  -5.590  28.422  0.00  0.00    +0.147 A 
ATOM     23  N   UNL     1       3.291  -5.030  27.459  0.00  0.00    -0.231 NA
ATOM     24  C   UNL     1       4.119  -4.465  26.603  0.00  0.00    +0.203 A 
ENDBRANCH  11  13
BRANCH  10  25
ATOM     25  O   UNL     1       8.518  -5.674  26.333  0.00  0.00    -0.385 OA
ATOM     26  H   UNL     1       9.339  -5.359  25.899  0.00  0.00    +0.210 HD
ENDBRANCH  10  25
BRANCH   9  27
ATOM     27  O   UNL     1       7.475  -5.259  23.105  0.00  0.00    -0.278 OA
BRANCH  27  28
ATOM     28  P   UNL     1       6.463  -4.439  21.967  0.00  0.00    +0.473 P 
ATOM     29  O   UNL     1       5.558  -3.703  20.949  0.00  0.00    -0.228 OA
BRANCH  28  30
ATOM     30  O   UNL     1       5.229  -5.065  22.842  0.00  0.00    -0.303 OA
ATOM     31  H   UNL     1       4.719  -5.720  22.339  0.00  0.00    +0.222 HD
ENDBRANCH  28  30
BRANCH  28  32
ATOM     32  O   UNL     1       6.603  -5.757  21.012  0.00  0.00    -0.303 OA
ATOM     33  H   UNL     1       5.694  -6.070  20.849  0.00  0.00    +0.222 HD
ENDBRANCH  28  32
ENDBRANCH  27  28
ENDBRANCH   9  27
ENDBRANCH   7   8
ENDBRANCH   6   7
ENDBRANCH   2   6
ENDBRANCH   1   2
BRANCH   1  34
ATOM     34  P   UNL     1       8.438   1.674  22.358  0.00  0.00    +0.483 P 
ATOM     35  O   UNL     1       7.310   2.081  21.469  0.00  0.00    -0.227 OA
BRANCH  34  36
ATOM     36  O   UNL     1       9.821   1.843  21.558  0.00  0.00    -0.302 OA
ATOM     37  H   UNL     1      10.047   2.790  21.505  0.00  0.00    +0.222 HD
ENDBRANCH  34  36
BRANCH  34  38
ATOM     38  O   UNL     1       8.712   2.611  23.649  0.00  0.00    -0.286 OA
BRANCH  38  39
ATOM     39  C   UNL     1       9.444   3.813  23.410  0.00  0.00    +0.181 C 
BRANCH  39  41
ATOM     40  C   UNL     1       8.489   4.868  25.551  0.00  0.00    +0.016 C 
ATOM     41  C   UNL     1       8.822   5.085  24.058  0.00  0.00    +0.024 C 
ATOM     42  C   UNL     1       9.853   6.241  24.027  0.00  0.00    +0.016 C 
BRANCH  41  43
ATOM     43  C   UNL     1       7.539   5.506  23.260  0.00  0.00    +0.208 C 
BRANCH  43  44
ATOM     44  C   UNL     1       6.219   4.936  23.850  0.00  0.00    +0.242 C 
ATOM     45  N   UNL     1       5.793   3.750  23.281  0.00  0.00    -0.313 N 
ATOM     46  H   UNL     1       6.498   3.188  22.818  0.00  0.00    +0.149 HD
ATOM     47  O   UNL     1       5.554   5.503  24.708  0.00  0.00    -0.273 OA
BRANCH  45  48
ATOM     48  C   UNL     1       4.565   3.133  23.765  0.00  0.00    +0.113 C 
BRANCH  48  49
ATOM     49  C   UNL     1       4.848   2.048  24.799  0.00  0.00    +0.114 C 
BRANCH  49  50
ATOM     50  C   UNL     1       3.938   2.206  25.995  0.00  0.00    +0.215 C 
ATOM     51  N   UNL     1       4.247   3.257  26.817  0.00  0.00    -0.314 N 
ATOM     52  H   UNL     1       5.166   3.677  26.746  0.00  0.00    +0.149 HD
ATOM     53  O   UNL     1       2.994   1.451  26.205  0.00  0.00    -0.276 OA
BRANCH  51  54
ATOM     54  C   UNL     1       3.492   3.514  28.029  0.00  0.00    +0.115 C 
BRANCH  54  55
ATOM     55  C   UNL     1       4.266   3.201  29.315  0.00  0.00    +0.088 C 
BRANCH  55  56
ATOM     56  S   UNL     1       4.433   1.387  29.549  0.00  0.00    -0.151 S 
BRANCH  56  57
ATOM     57  C   UNL     1       6.248   1.230  29.531  0.00  0.00    +0.153 C 
BRANCH  57  58
ATOM     58  C   UNL     1       6.903   1.642  28.224  0.00  0.00    +0.245 C 
ATOM     59  O   UNL     1       7.136   2.813  27.916  0.00  0.00    -0.287 OA
BRANCH  58  60
ATOM     60  C   UNL     1       7.261   0.479  27.316  0.00  0.00    +0.451 C 
ATOM     61  F   UNL     1       7.688   0.889  26.091  0.00  0.00    -0.163 F 
ATOM     62  F   UNL     1       6.211  -0.359  27.106  0.00  0.00    -0.163 F 
ATOM     63  F   UNL     1       8.263  -0.293  27.824  0.00  0.00    -0.163 F 
ENDBRANCH  58  60
ENDBRANCH  57  58
ENDBRANCH  56  57
ENDBRANCH  55  56
ENDBRANCH  54  55
ENDBRANCH  51  54
ENDBRANCH  49  50
ENDBRANCH  48  49
ENDBRANCH  45  48
ENDBRANCH  43  44
BRANCH  43  64
ATOM     64  O   UNL     1       7.626   5.135  21.879  0.00  0.00    -0.382 OA
ATOM     65  H   UNL     1       6.733   4.890  21.576  0.00  0.00    +0.210 HD
ENDBRANCH  43  64
ENDBRANCH  41  43
ENDBRANCH  39  41
ENDBRANCH  38  39
ENDBRANCH  34  38
ENDBRANCH   1  34
TORSDOF 28
ENDMDL
MODEL 4
REMARK VINA RESULT:      -6.1      2.909      5.571
REMARK  Name = 
REMARK  30 active torsions:
REMARK  status: ('A' for Active; 'I' for Inactive)
REMARK    1  A    between atoms: C_1  and  C_2
REMARK    2  A    between atoms: C_2  and  C_3
REMARK    3  A    between atoms: C_2  and  C_4
REMARK    4  A    between atoms: C_2  and  C_40
REMARK    5  A    between atoms: C_4  and  O_5
REMARK    6  A    between atoms: O_5  and  P_6
REMARK    7  A    between atoms: P_6  and  O_7
REMARK    8  A    between atoms: P_6  and  O_9
REMARK    9  A    between atoms: O_9  and  P_10
REMARK   10  A    between atoms: P_10  and  O_11
REMARK   11  A    between atoms: P_10  and  O_13
REMARK   12  A    between atoms: O_13  and  C_14
REMARK   13  A    between atoms: C_14  and  C_15
REMARK   14  A    between atoms: C_18  and  N_30
REMARK   15  A    between atoms: C_20  and  O_22
REMARK   16  A    between atoms: C_23  and  O_25
REMARK   17  A    between atoms: O_25  and  P_26
REMARK   18  A    between atoms: P_26  and  O_27
REMARK   19  A    between atoms: P_26  and  O_28
REMARK   20  A    between atoms: C_40  and  O_42
REMARK   21  A    between atoms: C_40  and  C_43
REMARK   22  A    between atoms: N_45  and  C_46
REMARK   23  A    between atoms: C_46  and  C_47
REMARK   24  A    between atoms: C_47  and  C_48
REMARK   25  A    between atoms: N_50  and  C_51
REMARK   26  A    between atoms: C_51  and  C_52
REMARK   27  A    between atoms: C_52  and  S_53
REMARK   28  A    between atoms: S_53  and  C_54
REMARK   29  A    between atoms: C_54  and  C_55
REMARK   30  A    between atoms: C_55  and  C_57
REMARK                            x       y       z     vdW  Elec       q    Type
REMARK                         _______ _______ _______ _____ _____    ______ ____
ROOT
ATOM      1  O   UNL     1       7.603  -3.086  21.781  0.00  0.00    -0.186 OA
ENDROOT
BRANCH   1   2
ATOM      2  P   UNL     1       6.679  -4.323  22.156  0.00  0.00    +0.483 P 
ATOM      3  O   UNL     1       7.361  -5.554  22.654  0.00  0.00    -0.227 OA
BRANCH   2   4
ATOM      4  O   UNL     1       5.951  -4.671  20.766  0.00  0.00    -0.302 OA
ATOM      5  H   UNL     1       5.693  -5.613  20.770  0.00  0.00    +0.222 HD
ENDBRANCH   2   4
BRANCH   2   6
ATOM      6  O   UNL     1       5.416  -3.825  23.044  0.00  0.00    -0.284 OA
BRANCH   6   7
ATOM      7  C   UNL     1       4.584  -4.891  23.506  0.00  0.00    +0.206 C 
BRANCH   7   8
ATOM      8  C   UNL     1       4.442  -5.030  25.034  0.00  0.00    +0.179 C 
ATOM      9  C   UNL     1       5.758  -5.308  25.758  0.00  0.00    +0.194 C 
ATOM     10  C   UNL     1       6.072  -4.003  26.500  0.00  0.00    +0.196 C 
ATOM     11  C   UNL     1       4.971  -3.029  26.066  0.00  0.00    +0.253 C 
ATOM     12  O   UNL     1       3.876  -3.834  25.602  0.00  0.00    -0.346 OA
BRANCH  11  13
ATOM     13  N   UNL     1       4.525  -2.147  27.135  0.00  0.00    -0.286 N 
ATOM     14  C   UNL     1       5.220  -1.057  27.588  0.00  0.00    +0.167 A 
ATOM     15  N   UNL     1       6.435  -0.634  27.194  0.00  0.00    -0.216 NA
ATOM     16  C   UNL     1       6.781   0.493  27.858  0.00  0.00    +0.225 A 
ATOM     17  N   UNL     1       6.087   1.165  28.802  0.00  0.00    -0.219 NA
ATOM     18  C   UNL     1       4.865   0.702  29.155  0.00  0.00    +0.147 A 
ATOM     19  N   UNL     1       4.147   1.402  30.114  0.00  0.00    -0.341 N 
ATOM     20  H   UNL     1       3.417   0.855  30.558  0.00  0.00    +0.144 HD
ATOM     21  H   UNL     1       4.736   1.975  30.702  0.00  0.00    +0.144 HD
ATOM     22  C   UNL     1       4.395  -0.472  28.538  0.00  0.00    +0.147 A 
ATOM     23  N   UNL     1       3.237  -1.207  28.695  0.00  0.00    -0.231 NA
ATOM     24  C   UNL     1       3.345  -2.194  27.829  0.00  0.00    +0.203 A 
ENDBRANCH  11  13
BRANCH  10  25
ATOM     25  O   UNL     1       7.369  -3.515  26.133  0.00  0.00    -0.385 OA
ATOM     26  H   UNL     1       7.290  -2.545  26.014  0.00  0.00    +0.210 HD
ENDBRANCH  10  25
BRANCH   9  27
ATOM     27  O   UNL     1       5.616  -6.389  26.720  0.00  0.00    -0.278 OA
BRANCH  27  28
ATOM     28  P   UNL     1       5.949  -6.034  28.380  0.00  0.00    +0.473 P 
ATOM     29  O   UNL     1       6.247  -5.714  29.865  0.00  0.00    -0.228 OA
BRANCH  28  30
ATOM     30  O   UNL     1       7.517  -6.231  27.950  0.00  0.00    -0.303 OA
ATOM     31  H   UNL     1       7.908  -7.026  28.347  0.00  0.00    +0.222 HD
ENDBRANCH  28  30
BRANCH  28  32
ATOM     32  O   UNL     1       5.716  -7.622  28.685  0.00  0.00    -0.303 OA
ATOM     33  H   UNL     1       5.348  -8.003  27.865  0.00  0.00    +0.222 HD
ENDBRANCH  28  32
ENDBRANCH  27  28
ENDBRANCH   9  27
ENDBRANCH   7   8
ENDBRANCH   6   7
ENDBRANCH   2   6
ENDBRANCH   1   2
BRANCH   1  34
ATOM     34  P   UNL     1       8.642  -2.439  22.793  0.00  0.00    +0.483 P 
ATOM     35  O   UNL     1       9.914  -1.921  22.209  0.00  0.00    -0.227 OA
BRANCH  34  36
ATOM     36  O   UNL     1       8.980  -3.663  23.778  0.00  0.00    -0.302 OA
ATOM     37  H   UNL     1       9.376  -3.314  24.598  0.00  0.00    +0.222 HD
ENDBRANCH  34  36
BRANCH  34  38
ATOM     38  O   UNL     1       7.852  -1.445  23.795  0.00  0.00    -0.286 OA
BRANCH  38  39
ATOM     39  C   UNL     1       8.597  -0.335  24.297  0.00  0.00    +0.181 C 
BRANCH  39  41
ATOM     40  C   UNL     1       6.848   0.990  22.958  0.00  0.00    +0.016 C 
ATOM     41  C   UNL     1       8.227   1.033  23.652  0.00  0.00    +0.024 C 
ATOM     42  C   UNL     1       8.101   2.111  24.758  0.00  0.00    +0.016 C 
BRANCH  41  43
ATOM     43  C   UNL     1       9.345   1.453  22.635  0.00  0.00    +0.208 C 
BRANCH  43  44
ATOM     44  C   UNL     1      10.536   2.209  23.289  0.00  0.00    +0.242 C 
ATOM     45  N   UNL     1      10.757   3.482  22.796  0.00  0.00    -0.313 N 
ATOM     46  H   UNL     1       9.971   3.939  22.346  0.00  0.00    +0.149 HD
ATOM     47  O   UNL     1      11.275   1.718  24.131  0.00  0.00    -0.273 OA
BRANCH  45  48
ATOM     48  C   UNL     1      11.850   4.273  23.344  0.00  0.00    +0.113 C 
BRANCH  48  49
ATOM     49  C   UNL     1      11.420   5.708  23.630  0.00  0.00    +0.114 C 
BRANCH  49  50
ATOM     50  C   UNL     1       9.933   5.773  23.892  0.00  0.00    +0.215 C 
ATOM     51  N   UNL     1       9.191   6.294  22.866  0.00  0.00    -0.314 N 
ATOM     52  H   UNL     1       9.662   6.830  22.147  0.00  0.00    +0.149 HD
ATOM     53  O   UNL     1       9.434   5.382  24.943  0.00  0.00    -0.276 OA
BRANCH  51  54
ATOM     54  C   UNL     1       7.754   6.461  22.983  0.00  0.00    +0.115 C 
BRANCH  54  55
ATOM     55  C   UNL     1       6.954   5.228  22.546  0.00  0.00    +0.088 C 
BRANCH  55  56
ATOM     56  S   UNL     1       5.587   4.889  23.723  0.00  0.00    -0.151 S 
BRANCH  56  57
ATOM     57  C   UNL     1       4.270   4.416  22.555  0.00  0.00    +0.153 C 
BRANCH  57  58
ATOM     58  C   UNL     1       3.344   3.323  23.061  0.00  0.00    +0.245 C 
ATOM     59  O   UNL     1       3.628   2.562  23.989  0.00  0.00    -0.287 OA
BRANCH  58  60
ATOM     60  C   UNL     1       2.016   3.247  22.327  0.00  0.00    +0.451 C 
ATOM     61  F   UNL     1       2.101   2.530  21.175  0.00  0.00    -0.163 F 
ATOM     62  F   UNL     1       1.537   4.475  21.993  0.00  0.00    -0.163 F 
ATOM     63  F   UNL     1       1.041   2.651  23.071  0.00  0.00    -0.163 F 
ENDBRANCH  58  60
ENDBRANCH  57  58
ENDBRANCH  56  57
ENDBRANCH  55  56
ENDBRANCH  54  55
ENDBRANCH  51  54
ENDBRANCH  49  50
ENDBRANCH  48  49
ENDBRANCH  45  48
ENDBRANCH  43  44
BRANCH  43  64
ATOM     64  O   UNL     1       8.819   2.253  21.569  0.00  0.00    -0.382 OA
ATOM     65  H   UNL     1       7.892   1.991  21.426  0.00  0.00    +0.210 HD
ENDBRANCH  43  64
ENDBRANCH  41  43
ENDBRANCH  39  41
ENDBRANCH  38  39
ENDBRANCH  34  38
ENDBRANCH   1  34
TORSDOF 28
ENDMDL
MODEL 5
REMARK VINA RESULT:      -6.0      2.811      5.504
REMARK  Name = 
REMARK  30 active torsions:
REMARK  status: ('A' for Active; 'I' for Inactive)
REMARK    1  A    between atoms: C_1  and  C_2
REMARK    2  A    between atoms: C_2  and  C_3
REMARK    3  A    between atoms: C_2  and  C_4
REMARK    4  A    between atoms: C_2  and  C_40
REMARK    5  A    between atoms: C_4  and  O_5
REMARK    6  A    between atoms: O_5  and  P_6
REMARK    7  A    between atoms: P_6  and  O_7
REMARK    8  A    between atoms: P_6  and  O_9
REMARK    9  A    between atoms: O_9  and  P_10
REMARK   10  A    between atoms: P_10  and  O_11
REMARK   11  A    between atoms: P_10  and  O_13
REMARK   12  A    between atoms: O_13  and  C_14
REMARK   13  A    between atoms: C_14  and  C_15
REMARK   14  A    between atoms: C_18  and  N_30
REMARK   15  A    between atoms: C_20  and  O_22
REMARK   16  A    between atoms: C_23  and  O_25
REMARK   17  A    between atoms: O_25  and  P_26
REMARK   18  A    between atoms: P_26  and  O_27
REMARK   19  A    between atoms: P_26  and  O_28
REMARK   20  A    between atoms: C_40  and  O_42
REMARK   21  A    between atoms: C_40  and  C_43
REMARK   22  A    between atoms: N_45  and  C_46
REMARK   23  A    between atoms: C_46  and  C_47
REMARK   24  A    between atoms: C_47  and  C_48
REMARK   25  A    between atoms: N_50  and  C_51
REMARK   26  A    between atoms: C_51  and  C_52
REMARK   27  A    between atoms: C_52  and  S_53
REMARK   28  A    between atoms: S_53  and  C_54
REMARK   29  A    between atoms: C_54  and  C_55
REMARK   30  A    between atoms: C_55  and  C_57
REMARK                            x       y       z     vdW  Elec       q    Type
REMARK                         _______ _______ _______ _____ _____    ______ ____
ROOT
ATOM      1  O   UNL     1       7.489  -3.427  21.929  0.00  0.00    -0.186 OA
ENDROOT
BRANCH   1   2
ATOM      2  P   UNL     1       6.785  -4.788  22.350  0.00  0.00    +0.483 P 
ATOM      3  O   UNL     1       7.626  -6.020  22.337  0.00  0.00    -0.227 OA
BRANCH   2   4
ATOM      4  O   UNL     1       5.623  -4.953  21.252  0.00  0.00    -0.302 OA
ATOM      5  H   UNL     1       4.852  -4.419  21.523  0.00  0.00    +0.222 HD
ENDBRANCH   2   4
BRANCH   2   6
ATOM      6  O   UNL     1       5.903  -4.567  23.694  0.00  0.00    -0.284 OA
BRANCH   6   7
ATOM      7  C   UNL     1       5.833  -5.723  24.530  0.00  0.00    +0.206 C 
BRANCH   7   8
ATOM      8  C   UNL     1       5.751  -5.461  26.046  0.00  0.00    +0.179 C 
ATOM      9  C   UNL     1       7.100  -5.174  26.702  0.00  0.00    +0.194 C 
ATOM     10  C   UNL     1       7.052  -3.679  27.041  0.00  0.00    +0.196 C 
ATOM     11  C   UNL     1       5.721  -3.186  26.460  0.00  0.00    +0.253 C 
ATOM     12  O   UNL     1       4.884  -4.345  26.323  0.00  0.00    -0.346 OA
BRANCH  11  13
ATOM     13  N   UNL     1       5.062  -2.188  27.291  0.00  0.00    -0.286 N 
ATOM     14  C   UNL     1       5.559  -0.939  27.551  0.00  0.00    +0.167 A 
ATOM     15  N   UNL     1       6.738  -0.424  27.158  0.00  0.00    -0.216 NA
ATOM     16  C   UNL     1       6.866   0.851  27.594  0.00  0.00    +0.225 A 
ATOM     17  N   UNL     1       6.002   1.583  28.330  0.00  0.00    -0.219 NA
ATOM     18  C   UNL     1       4.825   1.020  28.692  0.00  0.00    +0.147 A 
ATOM     19  N   UNL     1       3.932   1.779  29.434  0.00  0.00    -0.341 N 
ATOM     20  H   UNL     1       3.244   1.227  29.934  0.00  0.00    +0.144 HD
ATOM     21  H   UNL     1       4.381   2.538  29.928  0.00  0.00    +0.144 HD
ATOM     22  C   UNL     1       4.577  -0.309  28.303  0.00  0.00    +0.147 A 
ATOM     23  N   UNL     1       3.518  -1.165  28.533  0.00  0.00    -0.231 NA
ATOM     24  C   UNL     1       3.839  -2.276  27.900  0.00  0.00    +0.203 A 
ENDBRANCH  11  13
BRANCH  10  25
ATOM     25  O   UNL     1       8.161  -2.993  26.447  0.00  0.00    -0.385 OA
ATOM     26  H   UNL     1       7.815  -2.161  26.061  0.00  0.00    +0.210 HD
ENDBRANCH  10  25
BRANCH   9  27
ATOM     27  O   UNL     1       7.270  -5.941  27.925  0.00  0.00    -0.278 OA
BRANCH  27  28
ATOM     28  P   UNL     1       5.849  -6.590  28.670  0.00  0.00    +0.473 P 
ATOM     29  O   UNL     1       4.577  -7.169  29.335  0.00  0.00    -0.228 OA
BRANCH  28  30
ATOM     30  O   UNL     1       6.084  -5.417  29.788  0.00  0.00    -0.303 OA
ATOM     31  H   UNL     1       5.281  -4.897  29.948  0.00  0.00    +0.222 HD
ENDBRANCH  28  30
BRANCH  28  32
ATOM     32  O   UNL     1       6.827  -7.660  29.422  0.00  0.00    -0.303 OA
ATOM     33  H   UNL     1       6.264  -8.421  29.658  0.00  0.00    +0.222 HD
ENDBRANCH  28  32
ENDBRANCH  27  28
ENDBRANCH   9  27
ENDBRANCH   7   8
ENDBRANCH   6   7
ENDBRANCH   2   6
ENDBRANCH   1   2
BRANCH   1  34
ATOM     34  P   UNL     1       8.371  -2.561  22.927  0.00  0.00    +0.483 P 
ATOM     35  O   UNL     1       9.343  -3.305  23.781  0.00  0.00    -0.227 OA
BRANCH  34  36
ATOM     36  O   UNL     1       7.264  -1.878  23.870  0.00  0.00    -0.302 OA
ATOM     37  H   UNL     1       7.502  -0.944  24.018  0.00  0.00    +0.222 HD
ENDBRANCH  34  36
BRANCH  34  38
ATOM     38  O   UNL     1       8.945  -1.270  22.139  0.00  0.00    -0.286 OA
BRANCH  38  39
ATOM     39  C   UNL     1       8.533   0.004  22.635  0.00  0.00    +0.181 C 
BRANCH  39  41
ATOM     40  C   UNL     1       9.219   1.344  24.719  0.00  0.00    +0.016 C 
ATOM     41  C   UNL     1       9.661   0.817  23.336  0.00  0.00    +0.024 C 
ATOM     42  C   UNL     1      10.872  -0.108  23.613  0.00  0.00    +0.016 C 
BRANCH  41  43
ATOM     43  C   UNL     1      10.107   2.002  22.409  0.00  0.00    +0.208 C 
BRANCH  43  44
ATOM     44  C   UNL     1      10.420   3.315  23.178  0.00  0.00    +0.242 C 
ATOM     45  N   UNL     1       9.351   4.184  23.303  0.00  0.00    -0.313 N 
ATOM     46  H   UNL     1       8.425   3.781  23.220  0.00  0.00    +0.149 HD
ATOM     47  O   UNL     1      11.531   3.612  23.597  0.00  0.00    -0.273 OA
BRANCH  45  48
ATOM     48  C   UNL     1       9.542   5.444  24.009  0.00  0.00    +0.113 C 
BRANCH  48  49
ATOM     49  C   UNL     1       8.867   6.604  23.285  0.00  0.00    +0.114 C 
BRANCH  49  50
ATOM     50  C   UNL     1       7.537   6.170  22.714  0.00  0.00    +0.215 C 
ATOM     51  N   UNL     1       6.442   6.616  23.404  0.00  0.00    -0.314 N 
ATOM     52  H   UNL     1       6.567   6.955  24.350  0.00  0.00    +0.149 HD
ATOM     53  O   UNL     1       7.452   5.476  21.705  0.00  0.00    -0.276 OA
BRANCH  51  54
ATOM     54  C   UNL     1       5.096   6.249  23.004  0.00  0.00    +0.115 C 
BRANCH  54  55
ATOM     55  C   UNL     1       4.068   6.348  24.136  0.00  0.00    +0.088 C 
BRANCH  55  56
ATOM     56  S   UNL     1       4.859   6.031  25.763  0.00  0.00    -0.151 S 
BRANCH  56  57
ATOM     57  C   UNL     1       4.791   4.210  25.801  0.00  0.00    +0.153 C 
BRANCH  57  58
ATOM     58  C   UNL     1       6.001   3.522  25.194  0.00  0.00    +0.245 C 
ATOM     59  O   UNL     1       7.158   3.710  25.577  0.00  0.00    -0.287 OA
BRANCH  58  60
ATOM     60  C   UNL     1       5.668   2.563  24.065  0.00  0.00    +0.451 C 
ATOM     61  F   UNL     1       6.461   2.747  22.976  0.00  0.00    -0.163 F 
ATOM     62  F   UNL     1       4.382   2.688  23.640  0.00  0.00    -0.163 F 
ATOM     63  F   UNL     1       5.820   1.257  24.424  0.00  0.00    -0.163 F 
ENDBRANCH  58  60
ENDBRANCH  57  58
ENDBRANCH  56  57
ENDBRANCH  55  56
ENDBRANCH  54  55
ENDBRANCH  51  54
ENDBRANCH  49  50
ENDBRANCH  48  49
ENDBRANCH  45  48
ENDBRANCH  43  44
BRANCH  43  64
ATOM     64  O   UNL     1       9.132   2.280  21.397  0.00  0.00    -0.382 OA
ATOM     65  H   UNL     1       8.451   1.584  21.435  0.00  0.00    +0.210 HD
ENDBRANCH  43  64
ENDBRANCH  41  43
ENDBRANCH  39  41
ENDBRANCH  38  39
ENDBRANCH  34  38
ENDBRANCH   1  34
TORSDOF 28
ENDMDL
MODEL 6
REMARK VINA RESULT:      -5.9      3.268      5.506
REMARK  Name = 
REMARK  30 active torsions:
REMARK  status: ('A' for Active; 'I' for Inactive)
REMARK    1  A    between atoms: C_1  and  C_2
REMARK    2  A    between atoms: C_2  and  C_3
REMARK    3  A    between atoms: C_2  and  C_4
REMARK    4  A    between atoms: C_2  and  C_40
REMARK    5  A    between atoms: C_4  and  O_5
REMARK    6  A    between atoms: O_5  and  P_6
REMARK    7  A    between atoms: P_6  and  O_7
REMARK    8  A    between atoms: P_6  and  O_9
REMARK    9  A    between atoms: O_9  and  P_10
REMARK   10  A    between atoms: P_10  and  O_11
REMARK   11  A    between atoms: P_10  and  O_13
REMARK   12  A    between atoms: O_13  and  C_14
REMARK   13  A    between atoms: C_14  and  C_15
REMARK   14  A    between atoms: C_18  and  N_30
REMARK   15  A    between atoms: C_20  and  O_22
REMARK   16  A    between atoms: C_23  and  O_25
REMARK   17  A    between atoms: O_25  and  P_26
REMARK   18  A    between atoms: P_26  and  O_27
REMARK   19  A    between atoms: P_26  and  O_28
REMARK   20  A    between atoms: C_40  and  O_42
REMARK   21  A    between atoms: C_40  and  C_43
REMARK   22  A    between atoms: N_45  and  C_46
REMARK   23  A    between atoms: C_46  and  C_47
REMARK   24  A    between atoms: C_47  and  C_48
REMARK   25  A    between atoms: N_50  and  C_51
REMARK   26  A    between atoms: C_51  and  C_52
REMARK   27  A    between atoms: C_52  and  S_53
REMARK   28  A    between atoms: S_53  and  C_54
REMARK   29  A    between atoms: C_54  and  C_55
REMARK   30  A    between atoms: C_55  and  C_57
REMARK                            x       y       z     vdW  Elec       q    Type
REMARK                         _______ _______ _______ _____ _____    ______ ____
ROOT
ATOM      1  O   UNL     1       6.735   4.157  27.544  0.00  0.00    -0.186 OA
ENDROOT
BRANCH   1   2
ATOM      2  P   UNL     1       6.818   2.928  28.547  0.00  0.00    +0.483 P 
ATOM      3  O   UNL     1       7.599   3.127  29.802  0.00  0.00    -0.227 OA
BRANCH   2   4
ATOM      4  O   UNL     1       7.542   1.789  27.672  0.00  0.00    -0.302 OA
ATOM      5  H   UNL     1       8.307   1.445  28.171  0.00  0.00    +0.222 HD
ENDBRANCH   2   4
BRANCH   2   6
ATOM      6  O   UNL     1       5.348   2.269  28.744  0.00  0.00    -0.284 OA
BRANCH   6   7
ATOM      7  C   UNL     1       5.375   0.853  28.926  0.00  0.00    +0.206 C 
BRANCH   7   8
ATOM      8  C   UNL     1       4.637   0.017  27.862  0.00  0.00    +0.179 C 
ATOM      9  C   UNL     1       5.545  -0.534  26.764  0.00  0.00    +0.194 C 
ATOM     10  C   UNL     1       5.617  -2.040  27.045  0.00  0.00    +0.196 C 
ATOM     11  C   UNL     1       4.831  -2.236  28.347  0.00  0.00    +0.253 C 
ATOM     12  O   UNL     1       3.961  -1.100  28.471  0.00  0.00    -0.346 OA
BRANCH  11  13
ATOM     13  N   UNL     1       4.052  -3.466  28.372  0.00  0.00    -0.286 N 
ATOM     14  C   UNL     1       4.570  -4.712  28.610  0.00  0.00    +0.167 A 
ATOM     15  N   UNL     1       5.859  -5.045  28.798  0.00  0.00    -0.216 NA
ATOM     16  C   UNL     1       5.976  -6.374  29.024  0.00  0.00    +0.225 A 
ATOM     17  N   UNL     1       5.006  -7.314  29.064  0.00  0.00    -0.219 NA
ATOM     18  C   UNL     1       3.723  -6.923  28.877  0.00  0.00    +0.147 A 
ATOM     19  N   UNL     1       2.726  -7.887  28.934  0.00  0.00    -0.341 N 
ATOM     20  H   UNL     1       1.862  -7.608  28.482  0.00  0.00    +0.144 HD
ATOM     21  H   UNL     1       3.074  -8.819  28.758  0.00  0.00    +0.144 HD
ATOM     22  C   UNL     1       3.472  -5.562  28.625  0.00  0.00    +0.147 A 
ATOM     23  N   UNL     1       2.312  -4.862  28.364  0.00  0.00    -0.231 NA
ATOM     24  C   UNL     1       2.697  -3.608  28.232  0.00  0.00    +0.203 A 
ENDBRANCH  11  13
BRANCH  10  25
ATOM     25  O   UNL     1       6.979  -2.461  27.194  0.00  0.00    -0.385 OA
ATOM     26  H   UNL     1       7.044  -2.933  28.051  0.00  0.00    +0.210 HD
ENDBRANCH  10  25
BRANCH   9  27
ATOM     27  O   UNL     1       4.976  -0.315  25.444  0.00  0.00    -0.278 OA
BRANCH  27  28
ATOM     28  P   UNL     1       6.032  -0.459  24.081  0.00  0.00    +0.473 P 
ATOM     29  O   UNL     1       6.977  -0.590  22.863  0.00  0.00    -0.228 OA
BRANCH  28  30
ATOM     30  O   UNL     1       7.210  -0.049  25.143  0.00  0.00    -0.303 OA
ATOM     31  H   UNL     1       6.865   0.076  26.042  0.00  0.00    +0.222 HD
ENDBRANCH  28  30
BRANCH  28  32
ATOM     32  O   UNL     1       5.657   1.090  23.726  0.00  0.00    -0.303 OA
ATOM     33  H   UNL     1       4.689   1.162  23.821  0.00  0.00    +0.222 HD
ENDBRANCH  28  32
ENDBRANCH  27  28
ENDBRANCH   9  27
ENDBRANCH   7   8
ENDBRANCH   6   7
ENDBRANCH   2   6
ENDBRANCH   1   2
BRANCH   1  34
ATOM     34  P   UNL     1       5.586   4.317  26.459  0.00  0.00    +0.483 P 
ATOM     35  O   UNL     1       4.283   4.864  26.938  0.00  0.00    -0.227 OA
BRANCH  34  36
ATOM     36  O   UNL     1       5.366   2.807  25.957  0.00  0.00    -0.302 OA
ATOM     37  H   UNL     1       4.679   2.384  26.506  0.00  0.00    +0.222 HD
ENDBRANCH  34  36
BRANCH  34  38
ATOM     38  O   UNL     1       6.208   4.997  25.129  0.00  0.00    -0.286 OA
BRANCH  38  39
ATOM     39  C   UNL     1       7.592   5.344  25.188  0.00  0.00    +0.181 C 
BRANCH  39  41
ATOM     40  C   UNL     1       7.630   4.611  22.724  0.00  0.00    +0.016 C 
ATOM     41  C   UNL     1       8.450   4.766  24.025  0.00  0.00    +0.024 C 
ATOM     42  C   UNL     1       9.591   5.755  23.679  0.00  0.00    +0.016 C 
BRANCH  41  43
ATOM     43  C   UNL     1       9.063   3.389  24.459  0.00  0.00    +0.208 C 
BRANCH  43  44
ATOM     44  C   UNL     1       9.749   2.614  23.300  0.00  0.00    +0.242 C 
ATOM     45  N   UNL     1       9.152   1.411  22.972  0.00  0.00    -0.313 N 
ATOM     46  H   UNL     1       8.179   1.300  23.232  0.00  0.00    +0.149 HD
ATOM     47  O   UNL     1      10.775   2.986  22.745  0.00  0.00    -0.273 OA
BRANCH  45  48
ATOM     48  C   UNL     1       9.721   0.609  21.896  0.00  0.00    +0.113 C 
BRANCH  48  49
ATOM     49  C   UNL     1      10.663  -0.465  22.431  0.00  0.00    +0.114 C 
BRANCH  49  50
ATOM     50  C   UNL     1      10.072  -1.127  23.654  0.00  0.00    +0.215 C 
ATOM     51  N   UNL     1       9.553  -2.376  23.437  0.00  0.00    -0.314 N 
ATOM     52  H   UNL     1       9.351  -2.661  22.486  0.00  0.00    +0.149 HD
ATOM     53  O   UNL     1      10.066  -0.585  24.755  0.00  0.00    -0.276 OA
BRANCH  51  54
ATOM     54  C   UNL     1       8.913  -3.122  24.504  0.00  0.00    +0.115 C 
BRANCH  54  55
ATOM     55  C   UNL     1       8.364  -4.483  24.060  0.00  0.00    +0.088 C 
BRANCH  55  56
ATOM     56  S   UNL     1       7.184  -4.285  22.668  0.00  0.00    -0.151 S 
BRANCH  56  57
ATOM     57  C   UNL     1       6.270  -5.856  22.800  0.00  0.00    +0.153 C 
BRANCH  57  58
ATOM     58  C   UNL     1       4.858  -5.719  23.342  0.00  0.00    +0.245 C 
ATOM     59  O   UNL     1       3.909  -5.293  22.678  0.00  0.00    -0.287 OA
BRANCH  58  60
ATOM     60  C   UNL     1       4.701  -6.163  24.785  0.00  0.00    +0.451 C 
ATOM     61  F   UNL     1       3.725  -5.475  25.437  0.00  0.00    -0.163 F 
ATOM     62  F   UNL     1       5.843  -6.003  25.505  0.00  0.00    -0.163 F 
ATOM     63  F   UNL     1       4.369  -7.481  24.895  0.00  0.00    -0.163 F 
ENDBRANCH  58  60
ENDBRANCH  57  58
ENDBRANCH  56  57
ENDBRANCH  55  56
ENDBRANCH  54  55
ENDBRANCH  51  54
ENDBRANCH  49  50
ENDBRANCH  48  49
ENDBRANCH  45  48
ENDBRANCH  43  44
BRANCH  43  64
ATOM     64  O   UNL     1       8.082   2.539  25.066  0.00  0.00    -0.382 OA
ATOM     65  H   UNL     1       7.409   3.107  25.484  0.00  0.00    +0.210 HD
ENDBRANCH  43  64
ENDBRANCH  41  43
ENDBRANCH  39  41
ENDBRANCH  38  39
ENDBRANCH  34  38
ENDBRANCH   1  34
TORSDOF 28
ENDMDL
MODEL 7
REMARK VINA RESULT:      -5.9      3.574      8.981
REMARK  Name = 
REMARK  30 active torsions:
REMARK  status: ('A' for Active; 'I' for Inactive)
REMARK    1  A    between atoms: C_1  and  C_2
REMARK    2  A    between atoms: C_2  and  C_3
REMARK    3  A    between atoms: C_2  and  C_4
REMARK    4  A    between atoms: C_2  and  C_40
REMARK    5  A    between atoms: C_4  and  O_5
REMARK    6  A    between atoms: O_5  and  P_6
REMARK    7  A    between atoms: P_6  and  O_7
REMARK    8  A    between atoms: P_6  and  O_9
REMARK    9  A    between atoms: O_9  and  P_10
REMARK   10  A    between atoms: P_10  and  O_11
REMARK   11  A    between atoms: P_10  and  O_13
REMARK   12  A    between atoms: O_13  and  C_14
REMARK   13  A    between atoms: C_14  and  C_15
REMARK   14  A    between atoms: C_18  and  N_30
REMARK   15  A    between atoms: C_20  and  O_22
REMARK   16  A    between atoms: C_23  and  O_25
REMARK   17  A    between atoms: O_25  and  P_26
REMARK   18  A    between atoms: P_26  and  O_27
REMARK   19  A    between atoms: P_26  and  O_28
REMARK   20  A    between atoms: C_40  and  O_42
REMARK   21  A    between atoms: C_40  and  C_43
REMARK   22  A    between atoms: N_45  and  C_46
REMARK   23  A    between atoms: C_46  and  C_47
REMARK   24  A    between atoms: C_47  and  C_48
REMARK   25  A    between atoms: N_50  and  C_51
REMARK   26  A    between atoms: C_51  and  C_52
REMARK   27  A    between atoms: C_52  and  S_53
REMARK   28  A    between atoms: S_53  and  C_54
REMARK   29  A    between atoms: C_54  and  C_55
REMARK   30  A    between atoms: C_55  and  C_57
REMARK                            x       y       z     vdW  Elec       q    Type
REMARK                         _______ _______ _______ _____ _____    ______ ____
ROOT
ATOM      1  O   UNL     1       8.415  -1.407  23.603  0.00  0.00    -0.186 OA
ENDROOT
BRANCH   1   2
ATOM      2  P   UNL     1       9.709  -0.858  22.861  0.00  0.00    +0.483 P 
ATOM      3  O   UNL     1      10.643  -1.869  22.286  0.00  0.00    -0.227 OA
BRANCH   2   4
ATOM      4  O   UNL     1      10.480  -0.052  24.018  0.00  0.00    -0.302 OA
ATOM      5  H   UNL     1      11.079  -0.664  24.486  0.00  0.00    +0.222 HD
ENDBRANCH   2   4
BRANCH   2   6
ATOM      6  O   UNL     1       9.305   0.356  21.863  0.00  0.00    -0.284 OA
BRANCH   6   7
ATOM      7  C   UNL     1       9.823   1.625  22.266  0.00  0.00    +0.206 C 
BRANCH   7   8
ATOM      8  C   UNL     1       8.790   2.656  22.761  0.00  0.00    +0.179 C 
ATOM      9  C   UNL     1       7.354   2.346  22.344  0.00  0.00    +0.194 C 
ATOM     10  C   UNL     1       6.663   1.911  23.642  0.00  0.00    +0.196 C 
ATOM     11  C   UNL     1       7.776   1.898  24.696  0.00  0.00    +0.253 C 
ATOM     12  O   UNL     1       8.817   2.752  24.198  0.00  0.00    -0.346 OA
BRANCH  11  13
ATOM     13  N   UNL     1       7.338   2.357  26.007  0.00  0.00    -0.286 N 
ATOM     14  C   UNL     1       6.654   1.590  26.913  0.00  0.00    +0.167 A 
ATOM     15  N   UNL     1       6.214   0.328  26.757  0.00  0.00    -0.216 NA
ATOM     16  C   UNL     1       5.597  -0.100  27.883  0.00  0.00    +0.225 A 
ATOM     17  N   UNL     1       5.393   0.567  29.041  0.00  0.00    -0.219 NA
ATOM     18  C   UNL     1       5.865   1.831  29.148  0.00  0.00    +0.147 A 
ATOM     19  N   UNL     1       5.668   2.509  30.343  0.00  0.00    -0.341 N 
ATOM     20  H   UNL     1       5.745   3.516  30.258  0.00  0.00    +0.144 HD
ATOM     21  H   UNL     1       4.898   2.135  30.881  0.00  0.00    +0.144 HD
ATOM     22  C   UNL     1       6.520   2.393  28.037  0.00  0.00    +0.147 A 
ATOM     23  N   UNL     1       7.074   3.638  27.813  0.00  0.00    -0.231 NA
ATOM     24  C   UNL     1       7.565   3.574  26.592  0.00  0.00    +0.203 A 
ENDBRANCH  11  13
BRANCH  10  25
ATOM     25  O   UNL     1       6.079   0.610  23.490  0.00  0.00    -0.385 OA
ATOM     26  H   UNL     1       5.479   0.651  22.716  0.00  0.00    +0.210 HD
ENDBRANCH  10  25
BRANCH   9  27
ATOM     27  O   UNL     1       6.689   3.525  21.815  0.00  0.00    -0.278 OA
BRANCH  27  28
ATOM     28  P   UNL     1       6.733   4.968  22.769  0.00  0.00    +0.473 P 
ATOM     29  O   UNL     1       6.772   6.258  23.623  0.00  0.00    -0.228 OA
BRANCH  28  30
ATOM     30  O   UNL     1       5.210   5.200  22.213  0.00  0.00    -0.303 OA
ATOM     31  H   UNL     1       5.193   5.404  21.264  0.00  0.00    +0.222 HD
ENDBRANCH  28  30
BRANCH  28  32
ATOM     32  O   UNL     1       7.432   5.700  21.487  0.00  0.00    -0.303 OA
ATOM     33  H   UNL     1       6.836   5.547  20.730  0.00  0.00    +0.222 HD
ENDBRANCH  28  32
ENDBRANCH  27  28
ENDBRANCH   9  27
ENDBRANCH   7   8
ENDBRANCH   6   7
ENDBRANCH   2   6
ENDBRANCH   1   2
BRANCH   1  34
ATOM     34  P   UNL     1       8.479  -2.281  24.927  0.00  0.00    +0.483 P 
ATOM     35  O   UNL     1       8.888  -1.576  26.177  0.00  0.00    -0.227 OA
BRANCH  34  36
ATOM     36  O   UNL     1       9.588  -3.386  24.565  0.00  0.00    -0.302 OA
ATOM     37  H   UNL     1       9.757  -3.940  25.350  0.00  0.00    +0.222 HD
ENDBRANCH  34  36
BRANCH  34  38
ATOM     38  O   UNL     1       7.149  -3.198  25.019  0.00  0.00    -0.286 OA
BRANCH  38  39
ATOM     39  C   UNL     1       6.576  -3.347  26.319  0.00  0.00    +0.181 C 
BRANCH  39  41
ATOM     40  C   UNL     1       5.799  -5.756  25.873  0.00  0.00    +0.016 C 
ATOM     41  C   UNL     1       6.543  -4.812  26.843  0.00  0.00    +0.024 C 
ATOM     42  C   UNL     1       7.988  -5.364  26.933  0.00  0.00    +0.016 C 
BRANCH  41  43
ATOM     43  C   UNL     1       5.880  -4.846  28.265  0.00  0.00    +0.208 C 
BRANCH  43  44
ATOM     44  C   UNL     1       5.118  -6.166  28.570  0.00  0.00    +0.242 C 
ATOM     45  N   UNL     1       3.751  -6.026  28.721  0.00  0.00    -0.313 N 
ATOM     46  H   UNL     1       3.327  -5.210  28.294  0.00  0.00    +0.149 HD
ATOM     47  O   UNL     1       5.667  -7.248  28.731  0.00  0.00    -0.273 OA
BRANCH  45  48
ATOM     48  C   UNL     1       2.946  -7.206  29.010  0.00  0.00    +0.113 C 
BRANCH  48  49
ATOM     49  C   UNL     1       1.496  -7.019  28.578  0.00  0.00    +0.114 C 
BRANCH  49  50
ATOM     50  C   UNL     1       1.290  -7.538  27.173  0.00  0.00    +0.215 C 
ATOM     51  N   UNL     1       1.449  -6.603  26.186  0.00  0.00    -0.314 N 
ATOM     52  H   UNL     1       1.422  -5.622  26.436  0.00  0.00    +0.149 HD
ATOM     53  O   UNL     1       1.009  -8.710  26.942  0.00  0.00    -0.276 OA
BRANCH  51  54
ATOM     54  C   UNL     1       1.244  -6.938  24.789  0.00  0.00    +0.115 C 
BRANCH  54  55
ATOM     55  C   UNL     1       2.545  -7.069  23.989  0.00  0.00    +0.088 C 
BRANCH  55  56
ATOM     56  S   UNL     1       3.055  -5.444  23.305  0.00  0.00    -0.151 S 
BRANCH  56  57
ATOM     57  C   UNL     1       4.679  -5.888  22.606  0.00  0.00    +0.153 C 
BRANCH  57  58
ATOM     58  C   UNL     1       5.559  -4.700  22.257  0.00  0.00    +0.245 C 
ATOM     59  O   UNL     1       5.134  -3.550  22.124  0.00  0.00    -0.287 OA
BRANCH  58  60
ATOM     60  C   UNL     1       7.028  -5.045  22.089  0.00  0.00    +0.451 C 
ATOM     61  F   UNL     1       7.533  -5.703  23.167  0.00  0.00    -0.163 F 
ATOM     62  F   UNL     1       7.802  -3.942  21.903  0.00  0.00    -0.163 F 
ATOM     63  F   UNL     1       7.258  -5.852  21.015  0.00  0.00    -0.163 F 
ENDBRANCH  58  60
ENDBRANCH  57  58
ENDBRANCH  56  57
ENDBRANCH  55  56
ENDBRANCH  54  55
ENDBRANCH  51  54
ENDBRANCH  49  50
ENDBRANCH  48  49
ENDBRANCH  45  48
ENDBRANCH  43  44
BRANCH  43  64
ATOM     64  O   UNL     1       4.988  -3.741  28.461  0.00  0.00    -0.382 OA
ATOM     65  H   UNL     1       4.733  -3.401  27.584  0.00  0.00    +0.210 HD
ENDBRANCH  43  64
ENDBRANCH  41  43
ENDBRANCH  39  41
ENDBRANCH  38  39
ENDBRANCH  34  38
ENDBRANCH   1  34
TORSDOF 28
ENDMDL
MODEL 8
REMARK VINA RESULT:      -5.8      3.850      5.870
REMARK  Name = 
REMARK  30 active torsions:
REMARK  status: ('A' for Active; 'I' for Inactive)
REMARK    1  A    between atoms: C_1  and  C_2
REMARK    2  A    between atoms: C_2  and  C_3
REMARK    3  A    between atoms: C_2  and  C_4
REMARK    4  A    between atoms: C_2  and  C_40
REMARK    5  A    between atoms: C_4  and  O_5
REMARK    6  A    between atoms: O_5  and  P_6
REMARK    7  A    between atoms: P_6  and  O_7
REMARK    8  A    between atoms: P_6  and  O_9
REMARK    9  A    between atoms: O_9  and  P_10
REMARK   10  A    between atoms: P_10  and  O_11
REMARK   11  A    between atoms: P_10  and  O_13
REMARK   12  A    between atoms: O_13  and  C_14
REMARK   13  A    between atoms: C_14  and  C_15
REMARK   14  A    between atoms: C_18  and  N_30
REMARK   15  A    between atoms: C_20  and  O_22
REMARK   16  A    between atoms: C_23  and  O_25
REMARK   17  A    between atoms: O_25  and  P_26
REMARK   18  A    between atoms: P_26  and  O_27
REMARK   19  A    between atoms: P_26  and  O_28
REMARK   20  A    between atoms: C_40  and  O_42
REMARK   21  A    between atoms: C_40  and  C_43
REMARK   22  A    between atoms: N_45  and  C_46
REMARK   23  A    between atoms: C_46  and  C_47
REMARK   24  A    between atoms: C_47  and  C_48
REMARK   25  A    between atoms: N_50  and  C_51
REMARK   26  A    between atoms: C_51  and  C_52
REMARK   27  A    between atoms: C_52  and  S_53
REMARK   28  A    between atoms: S_53  and  C_54
REMARK   29  A    between atoms: C_54  and  C_55
REMARK   30  A    between atoms: C_55  and  C_57
REMARK                            x       y       z     vdW  Elec       q    Type
REMARK                         _______ _______ _______ _____ _____    ______ ____
ROOT
ATOM      1  O   UNL     1       9.041   4.314  23.172  0.00  0.00    -0.186 OA
ENDROOT
BRANCH   1   2
ATOM      2  P   UNL     1      10.186   3.237  23.403  0.00  0.00    +0.483 P 
ATOM      3  O   UNL     1      11.594   3.729  23.391  0.00  0.00    -0.227 OA
BRANCH   2   4
ATOM      4  O   UNL     1       9.990   2.224  22.170  0.00  0.00    -0.302 OA
ATOM      5  H   UNL     1       9.930   2.739  21.343  0.00  0.00    +0.222 HD
ENDBRANCH   2   4
BRANCH   2   6
ATOM      6  O   UNL     1       9.800   2.273  24.650  0.00  0.00    -0.284 OA
BRANCH   6   7
ATOM      7  C   UNL     1      10.292   0.938  24.516  0.00  0.00    +0.206 C 
BRANCH   7   8
ATOM      8  C   UNL     1       9.551  -0.143  25.327  0.00  0.00    +0.179 C 
ATOM      9  C   UNL     1       8.068   0.148  25.543  0.00  0.00    +0.194 C 
ATOM     10  C   UNL     1       7.343  -0.865  24.649  0.00  0.00    +0.196 C 
ATOM     11  C   UNL     1       8.461  -1.599  23.899  0.00  0.00    +0.253 C 
ATOM     12  O   UNL     1       9.655  -1.425  24.678  0.00  0.00    -0.346 OA
BRANCH  11  13
ATOM     13  N   UNL     1       8.193  -3.017  23.705  0.00  0.00    -0.286 N 
ATOM     14  C   UNL     1       7.308  -3.526  22.792  0.00  0.00    +0.167 A 
ATOM     15  N   UNL     1       6.496  -2.844  21.964  0.00  0.00    -0.216 NA
ATOM     16  C   UNL     1       5.782  -3.697  21.193  0.00  0.00    +0.225 A 
ATOM     17  N   UNL     1       5.801  -5.048  21.187  0.00  0.00    -0.219 NA
ATOM     18  C   UNL     1       6.644  -5.685  22.033  0.00  0.00    +0.147 A 
ATOM     19  N   UNL     1       6.673  -7.072  22.013  0.00  0.00    -0.341 N 
ATOM     20  H   UNL     1       7.061  -7.484  22.855  0.00  0.00    +0.144 HD
ATOM     21  H   UNL     1       5.828  -7.475  21.633  0.00  0.00    +0.144 HD
ATOM     22  C   UNL     1       7.437  -4.904  22.894  0.00  0.00    +0.147 A 
ATOM     23  N   UNL     1       8.350  -5.236  23.875  0.00  0.00    -0.231 NA
ATOM     24  C   UNL     1       8.791  -4.080  24.329  0.00  0.00    +0.203 A 
ENDBRANCH  11  13
BRANCH  10  25
ATOM     25  O   UNL     1       6.463  -0.194  23.738  0.00  0.00    -0.385 OA
ATOM     26  H   UNL     1       6.832  -0.313  22.838  0.00  0.00    +0.210 HD
ENDBRANCH  10  25
BRANCH   9  27
ATOM     27  O   UNL     1       7.681  -0.066  26.928  0.00  0.00    -0.278 OA
BRANCH  27  28
ATOM     28  P   UNL     1       6.766   1.179  27.707  0.00  0.00    +0.473 P 
ATOM     29  O   UNL     1       5.946   2.291  28.405  0.00  0.00    -0.228 OA
BRANCH  28  30
ATOM     30  O   UNL     1       5.685   0.927  26.502  0.00  0.00    -0.303 OA
ATOM     31  H   UNL     1       4.808   1.285  26.716  0.00  0.00    +0.222 HD
ENDBRANCH  28  30
BRANCH  28  32
ATOM     32  O   UNL     1       7.644   2.254  26.847  0.00  0.00    -0.303 OA
ATOM     33  H   UNL     1       7.556   3.108  27.312  0.00  0.00    +0.222 HD
ENDBRANCH  28  32
ENDBRANCH  27  28
ENDBRANCH   9  27
ENDBRANCH   7   8
ENDBRANCH   6   7
ENDBRANCH   2   6
ENDBRANCH   1   2
BRANCH   1  34
ATOM     34  P   UNL     1       7.655   4.287  23.945  0.00  0.00    +0.483 P 
ATOM     35  O   UNL     1       7.680   4.692  25.382  0.00  0.00    -0.227 OA
BRANCH  34  36
ATOM     36  O   UNL     1       7.228   2.742  23.847  0.00  0.00    -0.302 OA
ATOM     37  H   UNL     1       7.957   2.186  24.180  0.00  0.00    +0.222 HD
ENDBRANCH  34  36
BRANCH  34  38
ATOM     38  O   UNL     1       6.522   4.981  23.022  0.00  0.00    -0.286 OA
BRANCH  38  39
ATOM     39  C   UNL     1       5.436   4.142  22.621  0.00  0.00    +0.181 C 
BRANCH  39  41
ATOM     40  C   UNL     1       4.285   5.424  24.528  0.00  0.00    +0.016 C 
ATOM     41  C   UNL     1       4.101   4.417  23.372  0.00  0.00    +0.024 C 
ATOM     42  C   UNL     1       3.088   5.079  22.404  0.00  0.00    +0.016 C 
BRANCH  41  43
ATOM     43  C   UNL     1       3.510   3.065  23.904  0.00  0.00    +0.208 C 
BRANCH  43  44
ATOM     44  C   UNL     1       2.729   3.205  25.241  0.00  0.00    +0.242 C 
ATOM     45  N   UNL     1       3.348   2.633  26.337  0.00  0.00    -0.313 N 
ATOM     46  H   UNL     1       4.351   2.500  26.276  0.00  0.00    +0.149 HD
ATOM     47  O   UNL     1       1.623   3.721  25.333  0.00  0.00    -0.273 OA
BRANCH  45  48
ATOM     48  C   UNL     1       2.695   2.712  27.638  0.00  0.00    +0.113 C 
BRANCH  48  49
ATOM     49  C   UNL     1       1.988   1.408  27.993  0.00  0.00    +0.114 C 
BRANCH  49  50
ATOM     50  C   UNL     1       2.957   0.434  28.622  0.00  0.00    +0.215 C 
ATOM     51  N   UNL     1       3.302  -0.627  27.829  0.00  0.00    -0.314 N 
ATOM     52  H   UNL     1       2.722  -0.844  27.027  0.00  0.00    +0.149 HD
ATOM     53  O   UNL     1       3.401   0.590  29.756  0.00  0.00    -0.276 OA
BRANCH  51  54
ATOM     54  C   UNL     1       4.190  -1.670  28.306  0.00  0.00    +0.115 C 
BRANCH  54  55
ATOM     55  C   UNL     1       4.544  -2.714  27.241  0.00  0.00    +0.088 C 
BRANCH  55  56
ATOM     56  S   UNL     1       3.167  -2.914  26.043  0.00  0.00    -0.151 S 
BRANCH  56  57
ATOM     57  C   UNL     1       4.094  -3.496  24.586  0.00  0.00    +0.153 C 
BRANCH  57  58
ATOM     58  C   UNL     1       3.682  -4.868  24.085  0.00  0.00    +0.245 C 
ATOM     59  O   UNL     1       2.976  -5.049  23.090  0.00  0.00    -0.287 OA
BRANCH  58  60
ATOM     60  C   UNL     1       4.223  -6.020  24.914  0.00  0.00    +0.451 C 
ATOM     61  F   UNL     1       4.363  -7.161  24.187  0.00  0.00    -0.163 F 
ATOM     62  F   UNL     1       3.421  -6.323  25.969  0.00  0.00    -0.163 F 
ATOM     63  F   UNL     1       5.452  -5.755  25.439  0.00  0.00    -0.163 F 
ENDBRANCH  58  60
ENDBRANCH  57  58
ENDBRANCH  56  57
ENDBRANCH  55  56
ENDBRANCH  54  55
ENDBRANCH  51  54
ENDBRANCH  49  50
ENDBRANCH  48  49
ENDBRANCH  45  48
ENDBRANCH  43  44
BRANCH  43  64
ATOM     64  O   UNL     1       4.526   2.068  24.065  0.00  0.00    -0.382 OA
ATOM     65  H   UNL     1       4.176   1.224  23.726  0.00  0.00    +0.210 HD
ENDBRANCH  43  64
ENDBRANCH  41  43
ENDBRANCH  39  41
ENDBRANCH  38  39
ENDBRANCH  34  38
ENDBRANCH   1  34
TORSDOF 28
ENDMDL
MODEL 9
REMARK VINA RESULT:      -5.8      2.959      5.641
REMARK  Name = 
REMARK  30 active torsions:
REMARK  status: ('A' for Active; 'I' for Inactive)
REMARK    1  A    between atoms: C_1  and  C_2
REMARK    2  A    between atoms: C_2  and  C_3
REMARK    3  A    between atoms: C_2  and  C_4
REMARK    4  A    between atoms: C_2  and  C_40
REMARK    5  A    between atoms: C_4  and  O_5
REMARK    6  A    between atoms: O_5  and  P_6
REMARK    7  A    between atoms: P_6  and  O_7
REMARK    8  A    between atoms: P_6  and  O_9
REMARK    9  A    between atoms: O_9  and  P_10
REMARK   10  A    between atoms: P_10  and  O_11
REMARK   11  A    between atoms: P_10  and  O_13
REMARK   12  A    between atoms: O_13  and  C_14
REMARK   13  A    between atoms: C_14  and  C_15
REMARK   14  A    between atoms: C_18  and  N_30
REMARK   15  A    between atoms: C_20  and  O_22
REMARK   16  A    between atoms: C_23  and  O_25
REMARK   17  A    between atoms: O_25  and  P_26
REMARK   18  A    between atoms: P_26  and  O_27
REMARK   19  A    between atoms: P_26  and  O_28
REMARK   20  A    between atoms: C_40  and  O_42
REMARK   21  A    between atoms: C_40  and  C_43
REMARK   22  A    between atoms: N_45  and  C_46
REMARK   23  A    between atoms: C_46  and  C_47
REMARK   24  A    between atoms: C_47  and  C_48
REMARK   25  A    between atoms: N_50  and  C_51
REMARK   26  A    between atoms: C_51  and  C_52
REMARK   27  A    between atoms: C_52  and  S_53
REMARK   28  A    between atoms: S_53  and  C_54
REMARK   29  A    between atoms: C_54  and  C_55
REMARK   30  A    between atoms: C_55  and  C_57
REMARK                            x       y       z     vdW  Elec       q    Type
REMARK                         _______ _______ _______ _____ _____    ______ ____
ROOT
ATOM      1  O   UNL     1       7.939  -3.261  22.177  0.00  0.00    -0.186 OA
ENDROOT
BRANCH   1   2
ATOM      2  P   UNL     1       6.800  -4.193  22.777  0.00  0.00    +0.483 P 
ATOM      3  O   UNL     1       7.223  -5.238  23.754  0.00  0.00    -0.227 OA
BRANCH   2   4
ATOM      4  O   UNL     1       6.200  -4.923  21.477  0.00  0.00    -0.302 OA
ATOM      5  H   UNL     1       5.232  -4.801  21.464  0.00  0.00    +0.222 HD
ENDBRANCH   2   4
BRANCH   2   6
ATOM      6  O   UNL     1       5.529  -3.293  23.234  0.00  0.00    -0.284 OA
BRANCH   6   7
ATOM      7  C   UNL     1       4.363  -4.061  23.534  0.00  0.00    +0.206 C 
BRANCH   7   8
ATOM      8  C   UNL     1       3.834  -3.958  24.978  0.00  0.00    +0.179 C 
ATOM      9  C   UNL     1       4.755  -4.581  26.024  0.00  0.00    +0.194 C 
ATOM     10  C   UNL     1       5.342  -3.384  26.782  0.00  0.00    +0.196 C 
ATOM     11  C   UNL     1       4.799  -2.150  26.050  0.00  0.00    +0.253 C 
ATOM     12  O   UNL     1       3.625  -2.581  25.345  0.00  0.00    -0.346 OA
BRANCH  11  13
ATOM     13  N   UNL     1       4.471  -1.047  26.942  0.00  0.00    -0.286 N 
ATOM     14  C   UNL     1       5.386  -0.187  27.488  0.00  0.00    +0.167 A 
ATOM     15  N   UNL     1       6.726  -0.223  27.364  0.00  0.00    -0.216 NA
ATOM     16  C   UNL     1       7.290   0.809  28.033  0.00  0.00    +0.225 A 
ATOM     17  N   UNL     1       6.687   1.779  28.757  0.00  0.00    -0.219 NA
ATOM     18  C   UNL     1       5.337   1.774  28.840  0.00  0.00    +0.147 A 
ATOM     19  N   UNL     1       4.719   2.780  29.570  0.00  0.00    -0.341 N 
ATOM     20  H   UNL     1       3.774   2.552  29.861  0.00  0.00    +0.144 HD
ATOM     21  H   UNL     1       5.335   3.204  30.249  0.00  0.00    +0.144 HD
ATOM     22  C   UNL     1       4.633   0.743  28.191  0.00  0.00    +0.147 A 
ATOM     23  N   UNL     1       3.289   0.439  28.112  0.00  0.00    -0.231 NA
ATOM     24  C   UNL     1       3.230  -0.631  27.345  0.00  0.00    +0.203 A 
ENDBRANCH  11  13
BRANCH  10  25
ATOM     25  O   UNL     1       6.774  -3.418  26.747  0.00  0.00    -0.385 OA
ATOM     26  H   UNL     1       7.080  -3.699  27.635  0.00  0.00    +0.210 HD
ENDBRANCH  10  25
BRANCH   9  27
ATOM     27  O   UNL     1       4.015  -5.423  26.950  0.00  0.00    -0.278 OA
BRANCH  27  28
ATOM     28  P   UNL     1       4.917  -6.537  27.919  0.00  0.00    +0.473 P 
ATOM     29  O   UNL     1       5.726  -7.532  28.786  0.00  0.00    -0.228 OA
BRANCH  28  30
ATOM     30  O   UNL     1       4.961  -7.449  26.559  0.00  0.00    -0.303 OA
ATOM     31  H   UNL     1       5.426  -8.289  26.697  0.00  0.00    +0.222 HD
ENDBRANCH  28  30
BRANCH  28  32
ATOM     32  O   UNL     1       3.485  -7.144  28.415  0.00  0.00    -0.303 OA
ATOM     33  H   UNL     1       3.653  -7.558  29.283  0.00  0.00    +0.222 HD
ENDBRANCH  28  32
ENDBRANCH  27  28
ENDBRANCH   9  27
ENDBRANCH   7   8
ENDBRANCH   6   7
ENDBRANCH   2   6
ENDBRANCH   1   2
BRANCH   1  34
ATOM     34  P   UNL     1       8.982  -2.474  23.078  0.00  0.00    +0.483 P 
ATOM     35  O   UNL     1      10.178  -1.911  22.385  0.00  0.00    -0.227 OA
BRANCH  34  36
ATOM     36  O   UNL     1       9.464  -3.598  24.120  0.00  0.00    -0.302 OA
ATOM     37  H   UNL     1      10.110  -3.206  24.738  0.00  0.00    +0.222 HD
ENDBRANCH  34  36
BRANCH  34  38
ATOM     38  O   UNL     1       8.179  -1.468  24.058  0.00  0.00    -0.286 OA
BRANCH  38  39
ATOM     39  C   UNL     1       8.832  -0.236  24.369  0.00  0.00    +0.181 C 
BRANCH  39  41
ATOM     40  C   UNL     1       7.025   0.663  22.776  0.00  0.00    +0.016 C 
ATOM     41  C   UNL     1       8.324   0.985  23.548  0.00  0.00    +0.024 C 
ATOM     42  C   UNL     1       7.958   2.142  24.510  0.00  0.00    +0.016 C 
BRANCH  41  43
ATOM     43  C   UNL     1       9.449   1.459  22.562  0.00  0.00    +0.208 C 
BRANCH  43  44
ATOM     44  C   UNL     1      10.613   2.218  23.259  0.00  0.00    +0.242 C 
ATOM     45  N   UNL     1      10.846   3.493  22.778  0.00  0.00    -0.313 N 
ATOM     46  H   UNL     1      10.074   3.949  22.304  0.00  0.00    +0.149 HD
ATOM     47  O   UNL     1      11.326   1.726  24.124  0.00  0.00    -0.273 OA
BRANCH  45  48
ATOM     48  C   UNL     1      11.917   4.287  23.366  0.00  0.00    +0.113 C 
BRANCH  48  49
ATOM     49  C   UNL     1      11.469   5.718  23.648  0.00  0.00    +0.114 C 
BRANCH  49  50
ATOM     50  C   UNL     1       9.982   5.765  23.912  0.00  0.00    +0.215 C 
ATOM     51  N   UNL     1       9.250   6.425  22.962  0.00  0.00    -0.314 N 
ATOM     52  H   UNL     1       9.731   7.046  22.321  0.00  0.00    +0.149 HD
ATOM     53  O   UNL     1       9.474   5.244  24.901  0.00  0.00    -0.276 OA
BRANCH  51  54
ATOM     54  C   UNL     1       7.815   6.592  23.095  0.00  0.00    +0.115 C 
BRANCH  54  55
ATOM     55  C   UNL     1       6.999   5.587  22.273  0.00  0.00    +0.088 C 
BRANCH  55  56
ATOM     56  S   UNL     1       5.292   5.440  22.933  0.00  0.00    -0.151 S 
BRANCH  56  57
ATOM     57  C   UNL     1       5.026   3.649  22.730  0.00  0.00    +0.153 C 
BRANCH  57  58
ATOM     58  C   UNL     1       3.856   3.094  23.524  0.00  0.00    +0.245 C 
ATOM     59  O   UNL     1       2.707   3.018  23.085  0.00  0.00    -0.287 OA
BRANCH  58  60
ATOM     60  C   UNL     1       4.222   2.623  24.921  0.00  0.00    +0.451 C 
ATOM     61  F   UNL     1       3.141   2.548  25.743  0.00  0.00    -0.163 F 
ATOM     62  F   UNL     1       5.120   3.446  25.527  0.00  0.00    -0.163 F 
ATOM     63  F   UNL     1       4.785   1.382  24.925  0.00  0.00    -0.163 F 
ENDBRANCH  58  60
ENDBRANCH  57  58
ENDBRANCH  56  57
ENDBRANCH  55  56
ENDBRANCH  54  55
ENDBRANCH  51  54
ENDBRANCH  49  50
ENDBRANCH  48  49
ENDBRANCH  45  48
ENDBRANCH  43  44
BRANCH  43  64
ATOM     64  O   UNL     1       8.924   2.282  21.513  0.00  0.00    -0.382 OA
ATOM     65  H   UNL     1       9.485   3.075  21.444  0.00  0.00    +0.210 HD
ENDBRANCH  43  64
ENDBRANCH  41  43
ENDBRANCH  39  41
ENDBRANCH  38  39
ENDBRANCH  34  38
ENDBRANCH   1  34
TORSDOF 28
ENDMDL
