MODEL 1
REMARK VINA RESULT:      -6.8      0.000      0.000
REMARK  Name = 
REMARK  4 active torsions:
REMARK  status: ('A' for Active; 'I' for Inactive)
REMARK    1  A    between atoms: C_1  and  C_2
REMARK    2  A    between atoms: C_3  and  C_14
REMARK    3  A    between atoms: C_8  and  O_9
REMARK    4  A    between atoms: C_18  and  O_19
REMARK                            x       y       z     vdW  Elec       q    Type
REMARK                         _______ _______ _______ _____ _____    ______ ____
ROOT
ATOM      1  C   UNL     1       8.175  -2.331  26.380  0.00  0.00    +0.051 C 
ATOM      2  C   UNL     1       8.239  -1.514  25.120  0.00  0.00    +0.040 A 
ATOM      3  C   UNL     1       9.172  -0.352  25.232  0.00  0.00    +0.196 A 
ATOM      4  O   UNL     1       9.768  -0.100  26.273  0.00  0.00    -0.287 OA
ATOM      5  C   UNL     1       9.341   0.498  24.058  0.00  0.00    +0.068 A 
ATOM      6  C   UNL     1       8.641   0.182  22.906  0.00  0.00    +0.139 A 
ATOM      7  C   UNL     1       8.787   0.984  21.772  0.00  0.00    +0.050 A 
ATOM      8  C   UNL     1       9.622   2.108  21.807  0.00  0.00    +0.049 A 
ATOM      9  C   UNL     1      10.310   2.414  22.979  0.00  0.00    +0.118 A 
ATOM     10  O   UNL     1       7.790  -0.888  22.827  0.00  0.00    -0.454 OA
ATOM     11  C   UNL     1      10.182   1.614  24.105  0.00  0.00    +0.060 A 
ATOM     12  C   UNL     1       7.592  -1.699  23.949  0.00  0.00    +0.142 A 
ENDROOT
BRANCH  12  13
ATOM     13  C   UNL     1       6.575  -2.763  23.683  0.00  0.00    +0.020 A 
ATOM     14  C   UNL     1       6.809  -3.729  22.685  0.00  0.00    +0.030 A 
ATOM     15  C   UNL     1       5.843  -4.694  22.361  0.00  0.00    +0.061 A 
ATOM     16 BR   UNL     1       6.220  -5.911  20.954  0.00  0.00    -0.046 Br
ATOM     17  C   UNL     1       4.631  -4.736  23.048  0.00  0.00    +0.145 A 
ATOM     18  C   UNL     1       4.386  -3.792  24.044  0.00  0.00    +0.061 A 
ATOM     19 BR   UNL     1       2.766  -3.823  25.032  0.00  0.00    -0.046 Br
ATOM     20  C   UNL     1       5.331  -2.800  24.333  0.00  0.00    +0.030 A 
BRANCH  17  21
ATOM     21  O   UNL     1       3.700  -5.686  22.732  0.00  0.00    -0.505 OA
ATOM     22  H   UNL     1       3.026  -5.698  23.436  0.00  0.00    +0.292 HD
ENDBRANCH  17  21
ENDBRANCH  12  13
BRANCH   9  23
ATOM     23  O   UNL     1      11.124   3.502  23.068  0.00  0.00    -0.507 OA
ATOM     24  H   UNL     1      10.594   4.282  23.295  0.00  0.00    +0.292 HD
ENDBRANCH   9  23
TORSDOF 3
ENDMDL
MODEL 2
REMARK VINA RESULT:      -6.7      0.222      2.022
REMARK  Name = 
REMARK  4 active torsions:
REMARK  status: ('A' for Active; 'I' for Inactive)
REMARK    1  A    between atoms: C_1  and  C_2
REMARK    2  A    between atoms: C_3  and  C_14
REMARK    3  A    between atoms: C_8  and  O_9
REMARK    4  A    between atoms: C_18  and  O_19
REMARK                            x       y       z     vdW  Elec       q    Type
REMARK                         _______ _______ _______ _____ _____    ______ ____
ROOT
ATOM      1  C   UNL     1       7.847  -2.426  26.366  0.00  0.00    +0.051 C 
ATOM      2  C   UNL     1       8.055  -1.604  25.126  0.00  0.00    +0.040 A 
ATOM      3  C   UNL     1       8.995  -0.463  25.340  0.00  0.00    +0.196 A 
ATOM      4  O   UNL     1       9.487  -0.229  26.437  0.00  0.00    -0.287 OA
ATOM      5  C   UNL     1       9.298   0.390  24.196  0.00  0.00    +0.068 A 
ATOM      6  C   UNL     1       8.712   0.095  22.976  0.00  0.00    +0.139 A 
ATOM      7  C   UNL     1       8.988   0.900  21.869  0.00  0.00    +0.050 A 
ATOM      8  C   UNL     1       9.837   2.006  21.997  0.00  0.00    +0.049 A 
ATOM      9  C   UNL     1      10.410   2.292  23.235  0.00  0.00    +0.118 A 
ATOM     10  O   UNL     1       7.852  -0.957  22.804  0.00  0.00    -0.454 OA
ATOM     11  C   UNL     1      10.153   1.488  24.336  0.00  0.00    +0.060 A 
ATOM     12  C   UNL     1       7.525  -1.769  23.893  0.00  0.00    +0.142 A 
ENDROOT
BRANCH  12  13
ATOM     13  C   UNL     1       6.520  -2.811  23.519  0.00  0.00    +0.020 A 
ATOM     14  C   UNL     1       5.292  -2.885  24.206  0.00  0.00    +0.030 A 
ATOM     15  C   UNL     1       4.360  -3.897  23.929  0.00  0.00    +0.061 A 
ATOM     16 BR   UNL     1       2.764  -3.958  24.953  0.00  0.00    -0.046 Br
ATOM     17  C   UNL     1       4.620  -4.842  22.938  0.00  0.00    +0.145 A 
ATOM     18  C   UNL     1       5.827  -4.779  22.243  0.00  0.00    +0.061 A 
ATOM     19 BR   UNL     1       6.217  -6.021  20.863  0.00  0.00    -0.046 Br
ATOM     20  C   UNL     1       6.776  -3.798  22.554  0.00  0.00    +0.030 A 
BRANCH  17  21
ATOM     21  O   UNL     1       3.701  -5.819  22.668  0.00  0.00    -0.505 OA
ATOM     22  H   UNL     1       2.929  -5.401  22.244  0.00  0.00    +0.292 HD
ENDBRANCH  17  21
ENDBRANCH  12  13
BRANCH   9  23
ATOM     23  O   UNL     1      11.233   3.361  23.414  0.00  0.00    -0.507 OA
ATOM     24  H   UNL     1      10.995   3.815  24.238  0.00  0.00    +0.292 HD
ENDBRANCH   9  23
TORSDOF 3
ENDMDL
MODEL 3
REMARK VINA RESULT:      -6.7      4.021      6.835
REMARK  Name = 
REMARK  4 active torsions:
REMARK  status: ('A' for Active; 'I' for Inactive)
REMARK    1  A    between atoms: C_1  and  C_2
REMARK    2  A    between atoms: C_3  and  C_14
REMARK    3  A    between atoms: C_8  and  O_9
REMARK    4  A    between atoms: C_18  and  O_19
REMARK                            x       y       z     vdW  Elec       q    Type
REMARK                         _______ _______ _______ _____ _____    ______ ____
ROOT
ATOM      1  C   UNL     1       9.820   0.733  21.900  0.00  0.00    +0.051 C 
ATOM      2  C   UNL     1       9.297  -0.022  23.090  0.00  0.00    +0.040 A 
ATOM      3  C   UNL     1       9.800  -1.428  23.148  0.00  0.00    +0.196 A 
ATOM      4  O   UNL     1      10.523  -1.891  22.275  0.00  0.00    -0.287 OA
ATOM      5  C   UNL     1       9.383  -2.250  24.278  0.00  0.00    +0.068 A 
ATOM      6  C   UNL     1       8.557  -1.689  25.237  0.00  0.00    +0.139 A 
ATOM      7  C   UNL     1       8.144  -2.461  26.326  0.00  0.00    +0.050 A 
ATOM      8  C   UNL     1       8.550  -3.796  26.436  0.00  0.00    +0.049 A 
ATOM      9  C   UNL     1       9.374  -4.346  25.456  0.00  0.00    +0.118 A 
ATOM     10  O   UNL     1       8.107  -0.397  25.162  0.00  0.00    -0.454 OA
ATOM     11  C   UNL     1       9.800  -3.581  24.379  0.00  0.00    +0.060 A 
ATOM     12  C   UNL     1       8.472   0.400  24.073  0.00  0.00    +0.142 A 
ENDROOT
BRANCH  12  13
ATOM     13  C   UNL     1       7.823   1.746  24.136  0.00  0.00    +0.020 A 
ATOM     14  C   UNL     1       6.562   1.950  23.541  0.00  0.00    +0.030 A 
ATOM     15  C   UNL     1       5.963   3.218  23.518  0.00  0.00    +0.061 A 
ATOM     16 BR   UNL     1       4.295   3.412  22.631  0.00  0.00    -0.046 Br
ATOM     17  C   UNL     1       6.593   4.307  24.117  0.00  0.00    +0.145 A 
ATOM     18  C   UNL     1       7.837   4.121  24.717  0.00  0.00    +0.061 A 
ATOM     19 BR   UNL     1       8.725   5.562  25.574  0.00  0.00    -0.046 Br
ATOM     20  C   UNL     1       8.457   2.866  24.697  0.00  0.00    +0.030 A 
BRANCH  17  21
ATOM     21  O   UNL     1       5.996   5.538  24.098  0.00  0.00    -0.505 OA
ATOM     22  H   UNL     1       5.357   5.554  23.362  0.00  0.00    +0.292 HD
ENDBRANCH  17  21
ENDBRANCH  12  13
BRANCH   9  23
ATOM     23  O   UNL     1       9.787  -5.642  25.512  0.00  0.00    -0.507 OA
ATOM     24  H   UNL     1       9.053  -6.223  25.256  0.00  0.00    +0.292 HD
ENDBRANCH   9  23
TORSDOF 3
ENDMDL
MODEL 4
REMARK VINA RESULT:      -6.6      4.006      6.797
REMARK  Name = 
REMARK  4 active torsions:
REMARK  status: ('A' for Active; 'I' for Inactive)
REMARK    1  A    between atoms: C_1  and  C_2
REMARK    2  A    between atoms: C_3  and  C_14
REMARK    3  A    between atoms: C_8  and  O_9
REMARK    4  A    between atoms: C_18  and  O_19
REMARK                            x       y       z     vdW  Elec       q    Type
REMARK                         _______ _______ _______ _____ _____    ______ ____
ROOT
ATOM      1  C   UNL     1       9.816   0.718  21.838  0.00  0.00    +0.051 C 
ATOM      2  C   UNL     1       9.275  -0.028  23.025  0.00  0.00    +0.040 A 
ATOM      3  C   UNL     1       9.802  -1.423  23.119  0.00  0.00    +0.196 A 
ATOM      4  O   UNL     1      10.557  -1.887  22.273  0.00  0.00    -0.287 OA
ATOM      5  C   UNL     1       9.369  -2.236  24.250  0.00  0.00    +0.068 A 
ATOM      6  C   UNL     1       8.507  -1.675  25.178  0.00  0.00    +0.139 A 
ATOM      7  C   UNL     1       8.080  -2.438  26.267  0.00  0.00    +0.050 A 
ATOM      8  C   UNL     1       8.506  -3.763  26.410  0.00  0.00    +0.049 A 
ATOM      9  C   UNL     1       9.366  -4.313  25.461  0.00  0.00    +0.118 A 
ATOM     10  O   UNL     1       8.036  -0.393  25.070  0.00  0.00    -0.454 OA
ATOM     11  C   UNL     1       9.807  -3.557  24.384  0.00  0.00    +0.060 A 
ATOM     12  C   UNL     1       8.416   0.393  23.978  0.00  0.00    +0.142 A 
ENDROOT
BRANCH  12  13
ATOM     13  C   UNL     1       7.741   1.728  24.003  0.00  0.00    +0.020 A 
ATOM     14  C   UNL     1       8.387   2.835  24.588  0.00  0.00    +0.030 A 
ATOM     15  C   UNL     1       7.750   4.080  24.694  0.00  0.00    +0.061 A 
ATOM     16 BR   UNL     1       8.673   5.495  25.560  0.00  0.00    -0.046 Br
ATOM     17  C   UNL     1       6.462   4.258  24.191  0.00  0.00    +0.145 A 
ATOM     18  C   UNL     1       5.811   3.175  23.603  0.00  0.00    +0.061 A 
ATOM     19 BR   UNL     1       4.070   3.371  22.875  0.00  0.00    -0.046 Br
ATOM     20  C   UNL     1       6.429   1.920  23.542  0.00  0.00    +0.030 A 
BRANCH  17  21
ATOM     21  O   UNL     1       5.853   5.479  24.291  0.00  0.00    -0.505 OA
ATOM     22  H   UNL     1       4.918   5.334  24.523  0.00  0.00    +0.292 HD
ENDBRANCH  17  21
ENDBRANCH  12  13
BRANCH   9  23
ATOM     23  O   UNL     1       9.801  -5.600  25.548  0.00  0.00    -0.507 OA
ATOM     24  H   UNL     1       9.134  -6.133  26.009  0.00  0.00    +0.292 HD
ENDBRANCH   9  23
TORSDOF 3
ENDMDL
MODEL 5
REMARK VINA RESULT:      -6.6      2.188      2.972
REMARK  Name = 
REMARK  4 active torsions:
REMARK  status: ('A' for Active; 'I' for Inactive)
REMARK    1  A    between atoms: C_1  and  C_2
REMARK    2  A    between atoms: C_3  and  C_14
REMARK    3  A    between atoms: C_8  and  O_9
REMARK    4  A    between atoms: C_18  and  O_19
REMARK                            x       y       z     vdW  Elec       q    Type
REMARK                         _______ _______ _______ _____ _____    ______ ____
ROOT
ATOM      1  C   UNL     1       8.649  -4.374  24.175  0.00  0.00    +0.051 C 
ATOM      2  C   UNL     1       8.143  -3.004  23.819  0.00  0.00    +0.040 A 
ATOM      3  C   UNL     1       9.206  -2.130  23.236  0.00  0.00    +0.196 A 
ATOM      4  O   UNL     1      10.364  -2.511  23.119  0.00  0.00    -0.287 OA
ATOM      5  C   UNL     1       8.825  -0.784  22.823  0.00  0.00    +0.068 A 
ATOM      6  C   UNL     1       7.506  -0.390  22.981  0.00  0.00    +0.139 A 
ATOM      7  C   UNL     1       7.122   0.895  22.594  0.00  0.00    +0.050 A 
ATOM      8  C   UNL     1       8.066   1.784  22.066  0.00  0.00    +0.049 A 
ATOM      9  C   UNL     1       9.389   1.372  21.922  0.00  0.00    +0.118 A 
ATOM     10  O   UNL     1       6.549  -1.209  23.520  0.00  0.00    -0.454 OA
ATOM     11  C   UNL     1       9.777   0.092  22.291  0.00  0.00    +0.060 A 
ATOM     12  C   UNL     1       6.899  -2.493  23.949  0.00  0.00    +0.142 A 
ENDROOT
BRANCH  12  13
ATOM     13  C   UNL     1       5.737  -3.199  24.571  0.00  0.00    +0.020 A 
ATOM     14  C   UNL     1       5.607  -3.242  25.974  0.00  0.00    +0.030 A 
ATOM     15  C   UNL     1       4.570  -3.960  26.589  0.00  0.00    +0.061 A 
ATOM     16 BR   UNL     1       4.515  -4.018  28.485  0.00  0.00    -0.046 Br
ATOM     17  C   UNL     1       3.620  -4.627  25.818  0.00  0.00    +0.145 A 
ATOM     18  C   UNL     1       3.730  -4.589  24.428  0.00  0.00    +0.061 A 
ATOM     19 BR   UNL     1       2.447  -5.454  23.330  0.00  0.00    -0.046 Br
ATOM     20  C   UNL     1       4.793  -3.913  23.816  0.00  0.00    +0.030 A 
BRANCH  17  21
ATOM     21  O   UNL     1       2.608  -5.316  26.427  0.00  0.00    -0.505 OA
ATOM     22  H   UNL     1       1.834  -5.307  25.834  0.00  0.00    +0.292 HD
ENDBRANCH  17  21
ENDBRANCH  12  13
BRANCH   9  23
ATOM     23  O   UNL     1      10.347   2.202  21.425  0.00  0.00    -0.507 OA
ATOM     24  H   UNL     1       9.985   3.098  21.343  0.00  0.00    +0.292 HD
ENDBRANCH   9  23
TORSDOF 3
ENDMDL
MODEL 6
REMARK VINA RESULT:      -6.6      4.124      7.584
REMARK  Name = 
REMARK  4 active torsions:
REMARK  status: ('A' for Active; 'I' for Inactive)
REMARK    1  A    between atoms: C_1  and  C_2
REMARK    2  A    between atoms: C_3  and  C_14
REMARK    3  A    between atoms: C_8  and  O_9
REMARK    4  A    between atoms: C_18  and  O_19
REMARK                            x       y       z     vdW  Elec       q    Type
REMARK                         _______ _______ _______ _____ _____    ______ ____
ROOT
ATOM      1  C   UNL     1       9.303   0.608  21.288  0.00  0.00    +0.051 C 
ATOM      2  C   UNL     1       9.098   0.102  22.688  0.00  0.00    +0.040 A 
ATOM      3  C   UNL     1       8.840  -1.369  22.739  0.00  0.00    +0.196 A 
ATOM      4  O   UNL     1       8.766  -2.046  21.721  0.00  0.00    -0.287 OA
ATOM      5  C   UNL     1       8.656  -1.980  24.050  0.00  0.00    +0.068 A 
ATOM      6  C   UNL     1       8.738  -1.176  25.174  0.00  0.00    +0.139 A 
ATOM      7  C   UNL     1       8.563  -1.741  26.439  0.00  0.00    +0.050 A 
ATOM      8  C   UNL     1       8.289  -3.108  26.567  0.00  0.00    +0.049 A 
ATOM      9  C   UNL     1       8.200  -3.900  25.423  0.00  0.00    +0.118 A 
ATOM     10  O   UNL     1       8.975   0.172  25.103  0.00  0.00    -0.454 OA
ATOM     11  C   UNL     1       8.388  -3.348  24.164  0.00  0.00    +0.060 A 
ATOM     12  C   UNL     1       9.126   0.783  23.855  0.00  0.00    +0.142 A 
ENDROOT
BRANCH  12  13
ATOM     13  C   UNL     1       9.302   2.262  23.986  0.00  0.00    +0.020 A 
ATOM     14  C   UNL     1      10.492   2.874  23.545  0.00  0.00    +0.030 A 
ATOM     15  C   UNL     1      10.717   4.247  23.724  0.00  0.00    +0.061 A 
ATOM     16 BR   UNL     1      12.379   4.969  23.161  0.00  0.00    -0.046 Br
ATOM     17  C   UNL     1       9.745   5.049  24.320  0.00  0.00    +0.145 A 
ATOM     18  C   UNL     1       8.559   4.462  24.756  0.00  0.00    +0.061 A 
ATOM     19 BR   UNL     1       7.190   5.512  25.545  0.00  0.00    -0.046 Br
ATOM     20  C   UNL     1       8.355   3.083  24.621  0.00  0.00    +0.030 A 
BRANCH  17  21
ATOM     21  O   UNL     1       9.970   6.389  24.481  0.00  0.00    -0.505 OA
ATOM     22  H   UNL     1      10.145   6.775  23.603  0.00  0.00    +0.292 HD
ENDBRANCH  17  21
ENDBRANCH  12  13
BRANCH   9  23
ATOM     23  O   UNL     1       7.925  -5.231  25.493  0.00  0.00    -0.507 OA
ATOM     24  H   UNL     1       8.731  -5.713  25.738  0.00  0.00    +0.292 HD
ENDBRANCH   9  23
TORSDOF 3
ENDMDL
MODEL 7
REMARK VINA RESULT:      -6.6      2.290      3.357
REMARK  Name = 
REMARK  4 active torsions:
REMARK  status: ('A' for Active; 'I' for Inactive)
REMARK    1  A    between atoms: C_1  and  C_2
REMARK    2  A    between atoms: C_3  and  C_14
REMARK    3  A    between atoms: C_8  and  O_9
REMARK    4  A    between atoms: C_18  and  O_19
REMARK                            x       y       z     vdW  Elec       q    Type
REMARK                         _______ _______ _______ _____ _____    ______ ____
ROOT
ATOM      1  C   UNL     1      10.163  -1.396  22.631  0.00  0.00    +0.051 C 
ATOM      2  C   UNL     1       8.959  -0.500  22.718  0.00  0.00    +0.040 A 
ATOM      3  C   UNL     1       9.279   0.927  22.411  0.00  0.00    +0.196 A 
ATOM      4  O   UNL     1      10.421   1.294  22.164  0.00  0.00    -0.287 OA
ATOM      5  C   UNL     1       8.182   1.888  22.434  0.00  0.00    +0.068 A 
ATOM      6  C   UNL     1       6.907   1.431  22.728  0.00  0.00    +0.139 A 
ATOM      7  C   UNL     1       5.843   2.335  22.757  0.00  0.00    +0.050 A 
ATOM      8  C   UNL     1       6.067   3.695  22.508  0.00  0.00    +0.049 A 
ATOM      9  C   UNL     1       7.358   4.137  22.224  0.00  0.00    +0.118 A 
ATOM     10  O   UNL     1       6.638   0.118  23.007  0.00  0.00    -0.454 OA
ATOM     11  C   UNL     1       8.418   3.242  22.179  0.00  0.00    +0.060 A 
ATOM     12  C   UNL     1       7.680  -0.815  23.019  0.00  0.00    +0.142 A 
ENDROOT
BRANCH  12  13
ATOM     13  C   UNL     1       7.196  -2.173  23.416  0.00  0.00    +0.020 A 
ATOM     14  C   UNL     1       6.963  -2.469  24.774  0.00  0.00    +0.030 A 
ATOM     15  C   UNL     1       6.582  -3.755  25.186  0.00  0.00    +0.061 A 
ATOM     16 BR   UNL     1       6.357  -4.077  27.043  0.00  0.00    -0.046 Br
ATOM     17  C   UNL     1       6.395  -4.769  24.248  0.00  0.00    +0.145 A 
ATOM     18  C   UNL     1       6.615  -4.491  22.900  0.00  0.00    +0.061 A 
ATOM     19 BR   UNL     1       6.346  -5.826  21.579  0.00  0.00    -0.046 Br
ATOM     20  C   UNL     1       7.043  -3.221  22.495  0.00  0.00    +0.030 A 
BRANCH  17  21
ATOM     21  O   UNL     1       6.014  -6.017  24.659  0.00  0.00    -0.505 OA
ATOM     22  H   UNL     1       6.451  -6.204  25.509  0.00  0.00    +0.292 HD
ENDBRANCH  17  21
ENDBRANCH  12  13
BRANCH   9  23
ATOM     23  O   UNL     1       7.630   5.449  21.986  0.00  0.00    -0.507 OA
ATOM     24  H   UNL     1       7.648   5.605  21.029  0.00  0.00    +0.292 HD
ENDBRANCH   9  23
TORSDOF 3
ENDMDL
MODEL 8
REMARK VINA RESULT:      -6.5      2.167      2.618
REMARK  Name = 
REMARK  4 active torsions:
REMARK  status: ('A' for Active; 'I' for Inactive)
REMARK    1  A    between atoms: C_1  and  C_2
REMARK    2  A    between atoms: C_3  and  C_14
REMARK    3  A    between atoms: C_8  and  O_9
REMARK    4  A    between atoms: C_18  and  O_19
REMARK                            x       y       z     vdW  Elec       q    Type
REMARK                         _______ _______ _______ _____ _____    ______ ____
ROOT
ATOM      1  C   UNL     1       8.969  -4.429  24.472  0.00  0.00    +0.051 C 
ATOM      2  C   UNL     1       8.375  -3.112  24.059  0.00  0.00    +0.040 A 
ATOM      3  C   UNL     1       9.382  -2.190  23.449  0.00  0.00    +0.196 A 
ATOM      4  O   UNL     1      10.564  -2.497  23.355  0.00  0.00    -0.287 OA
ATOM      5  C   UNL     1       8.915  -0.890  22.981  0.00  0.00    +0.068 A 
ATOM      6  C   UNL     1       7.572  -0.581  23.116  0.00  0.00    +0.139 A 
ATOM      7  C   UNL     1       7.105   0.660  22.676  0.00  0.00    +0.050 A 
ATOM      8  C   UNL     1       7.992   1.589  22.119  0.00  0.00    +0.049 A 
ATOM      9  C   UNL     1       9.342   1.263  22.001  0.00  0.00    +0.118 A 
ATOM     10  O   UNL     1       6.667  -1.441  23.679  0.00  0.00    -0.454 OA
ATOM     11  C   UNL     1       9.811   0.027  22.422  0.00  0.00    +0.060 A 
ATOM     12  C   UNL     1       7.098  -2.681  24.160  0.00  0.00    +0.142 A 
ENDROOT
BRANCH  12  13
ATOM     13  C   UNL     1       5.981  -3.439  24.802  0.00  0.00    +0.020 A 
ATOM     14  C   UNL     1       5.018  -4.088  24.004  0.00  0.00    +0.030 A 
ATOM     15  C   UNL     1       3.916  -4.743  24.576  0.00  0.00    +0.061 A 
ATOM     16 BR   UNL     1       2.634  -5.528  23.418  0.00  0.00    -0.046 Br
ATOM     17  C   UNL     1       3.766  -4.792  25.960  0.00  0.00    +0.145 A 
ATOM     18  C   UNL     1       4.714  -4.162  26.766  0.00  0.00    +0.061 A 
ATOM     19 BR   UNL     1       4.575  -4.225  28.657  0.00  0.00    -0.046 Br
ATOM     20  C   UNL     1       5.786  -3.467  26.193  0.00  0.00    +0.030 A 
BRANCH  17  21
ATOM     21  O   UNL     1       2.694  -5.441  26.508  0.00  0.00    -0.505 OA
ATOM     22  H   UNL     1       2.263  -4.837  27.140  0.00  0.00    +0.292 HD
ENDBRANCH  17  21
ENDBRANCH  12  13
BRANCH   9  23
ATOM     23  O   UNL     1      10.246   2.135  21.478  0.00  0.00    -0.507 OA
ATOM     24  H   UNL     1      11.097   2.024  21.930  0.00  0.00    +0.292 HD
ENDBRANCH   9  23
TORSDOF 3
ENDMDL
MODEL 9
REMARK VINA RESULT:      -6.4      3.079      7.428
REMARK  Name = 
REMARK  4 active torsions:
REMARK  status: ('A' for Active; 'I' for Inactive)
REMARK    1  A    between atoms: C_1  and  C_2
REMARK    2  A    between atoms: C_3  and  C_14
REMARK    3  A    between atoms: C_8  and  O_9
REMARK    4  A    between atoms: C_18  and  O_19
REMARK                            x       y       z     vdW  Elec       q    Type
REMARK                         _______ _______ _______ _____ _____    ______ ____
ROOT
ATOM      1  C   UNL     1       8.054  -3.566  26.373  0.00  0.00    +0.051 C 
ATOM      2  C   UNL     1       6.848  -3.912  25.547  0.00  0.00    +0.040 A 
ATOM      3  C   UNL     1       6.313  -5.274  25.847  0.00  0.00    +0.196 A 
ATOM      4  O   UNL     1       6.857  -6.017  26.656  0.00  0.00    -0.287 OA
ATOM      5  C   UNL     1       5.122  -5.710  25.126  0.00  0.00    +0.068 A 
ATOM      6  C   UNL     1       4.546  -4.842  24.214  0.00  0.00    +0.139 A 
ATOM      7  C   UNL     1       3.406  -5.241  23.512  0.00  0.00    +0.050 A 
ATOM      8  C   UNL     1       2.862  -6.514  23.717  0.00  0.00    +0.049 A 
ATOM      9  C   UNL     1       3.462  -7.377  24.633  0.00  0.00    +0.118 A 
ATOM     10  O   UNL     1       5.054  -3.597  23.954  0.00  0.00    -0.454 OA
ATOM     11  C   UNL     1       4.586  -6.983  25.345  0.00  0.00    +0.060 A 
ATOM     12  C   UNL     1       6.211  -3.171  24.613  0.00  0.00    +0.142 A 
ENDROOT
BRANCH  12  13
ATOM     13  C   UNL     1       6.646  -1.820  24.140  0.00  0.00    +0.020 A 
ATOM     14  C   UNL     1       5.982  -0.665  24.597  0.00  0.00    +0.030 A 
ATOM     15  C   UNL     1       6.317   0.609  24.114  0.00  0.00    +0.061 A 
ATOM     16 BR   UNL     1       5.321   2.100  24.736  0.00  0.00    -0.046 Br
ATOM     17  C   UNL     1       7.344   0.763  23.184  0.00  0.00    +0.145 A 
ATOM     18  C   UNL     1       8.016  -0.369  22.726  0.00  0.00    +0.061 A 
ATOM     19 BR   UNL     1       9.443  -0.214  21.485  0.00  0.00    -0.046 Br
ATOM     20  C   UNL     1       7.649  -1.645  23.172  0.00  0.00    +0.030 A 
BRANCH  17  21
ATOM     21  O   UNL     1       7.670   2.010  22.726  0.00  0.00    -0.505 OA
ATOM     22  H   UNL     1       7.912   2.561  23.493  0.00  0.00    +0.292 HD
ENDBRANCH  17  21
ENDBRANCH  12  13
BRANCH   9  23
ATOM     23  O   UNL     1       2.979  -8.629  24.860  0.00  0.00    -0.507 OA
ATOM     24  H   UNL     1       3.503  -9.271  24.355  0.00  0.00    +0.292 HD
ENDBRANCH   9  23
TORSDOF 3
ENDMDL
