MODEL 1
REMARK VINA RESULT:      -6.6      0.000      0.000
REMARK  Name = 
REMARK  9 active torsions:
REMARK  status: ('A' for Active; 'I' for Inactive)
REMARK    1  A    between atoms: C_1  and  C_2
REMARK    2  A    between atoms: C_2  and  C_3
REMARK    3  A    between atoms: C_2  and  C_4
REMARK    4  A    between atoms: C_2  and  C_5
REMARK    5  A    between atoms: C_8  and  C_11
REMARK    6  A    between atoms: N_13  and  N_14
REMARK    7  A    between atoms: C_15  and  C_16
REMARK    8  A    between atoms: C_20  and  O_21
REMARK    9  A    between atoms: C_24  and  O_25
REMARK                            x       y       z     vdW  Elec       q    Type
REMARK                         _______ _______ _______ _____ _____    ______ ____
ROOT
ATOM      1  C   UNL     1       8.729   0.263  23.658  0.00  0.00    +0.263 C 
ATOM      2  N   UNL     1       8.444  -0.561  24.740  0.00  0.00    -0.203 N 
ATOM      3  H   UNL     1       8.359  -0.194  25.680  0.00  0.00    +0.178 HD
ATOM      4  O   UNL     1       8.698  -0.092  22.482  0.00  0.00    -0.268 OA
ENDROOT
BRANCH   1   8
ATOM      5  C   UNL     1       9.660   4.433  24.364  0.00  0.00    -0.042 A 
ATOM      6  C   UNL     1       8.549   3.834  24.995  0.00  0.00    +0.005 A 
ATOM      7  C   UNL     1       8.230   2.479  24.797  0.00  0.00    +0.013 A 
ATOM      8  C   UNL     1       9.027   1.689  23.967  0.00  0.00    +0.038 A 
ATOM      9  C   UNL     1      10.173   2.249  23.396  0.00  0.00    +0.013 A 
ATOM     10  C   UNL     1      10.484   3.598  23.592  0.00  0.00    +0.005 A 
BRANCH   5  12
ATOM     11  C   UNL     1       9.616   6.510  25.895  0.00  0.00    +0.015 C 
ATOM     12  C   UNL     1       9.914   5.948  24.485  0.00  0.00    -0.013 C 
ATOM     13  C   UNL     1      11.403   6.242  24.193  0.00  0.00    +0.015 C 
ATOM     14  C   UNL     1       9.044   6.734  23.483  0.00  0.00    +0.015 C 
ENDBRANCH   5  12
ENDBRANCH   1   8
BRANCH   2  15
ATOM     15  N   UNL     1       8.043  -1.839  24.486  0.00  0.00    -0.187 NA
ATOM     16  C   UNL     1       6.793  -2.120  24.663  0.00  0.00    +0.142 C 
BRANCH  16  17
ATOM     17  C   UNL     1       6.290  -3.482  24.368  0.00  0.00    +0.038 A 
ATOM     18  C   UNL     1       6.412  -4.033  23.089  0.00  0.00    +0.143 A 
ATOM     19  C   UNL     1       5.944  -5.331  22.837  0.00  0.00    +0.102 A 
ATOM     20 BR   UNL     1       6.117  -6.066  21.088  0.00  0.00    -0.043 Br
ATOM     21  C   UNL     1       5.359  -6.080  23.867  0.00  0.00    +0.148 A 
ATOM     22  C   UNL     1       5.240  -5.525  25.144  0.00  0.00    +0.061 A 
ATOM     23 BR   UNL     1       4.457  -6.512  26.560  0.00  0.00    -0.046 Br
ATOM     24  C   UNL     1       5.701  -4.234  25.397  0.00  0.00    +0.032 A 
BRANCH  18  25
ATOM     25  O   UNL     1       6.992  -3.290  22.092  0.00  0.00    -0.505 OA
ATOM     26  H   UNL     1       6.514  -2.438  22.041  0.00  0.00    +0.292 HD
ENDBRANCH  18  25
BRANCH  21  27
ATOM     27  O   UNL     1       4.911  -7.350  23.611  0.00  0.00    -0.504 OA
ATOM     28  H   UNL     1       5.314  -7.950  24.266  0.00  0.00    +0.292 HD
ENDBRANCH  21  27
ENDBRANCH  16  17
ENDBRANCH   2  15
TORSDOF 6
ENDMDL
MODEL 2
REMARK VINA RESULT:      -6.2      0.992      2.298
REMARK  Name = 
REMARK  9 active torsions:
REMARK  status: ('A' for Active; 'I' for Inactive)
REMARK    1  A    between atoms: C_1  and  C_2
REMARK    2  A    between atoms: C_2  and  C_3
REMARK    3  A    between atoms: C_2  and  C_4
REMARK    4  A    between atoms: C_2  and  C_5
REMARK    5  A    between atoms: C_8  and  C_11
REMARK    6  A    between atoms: N_13  and  N_14
REMARK    7  A    between atoms: C_15  and  C_16
REMARK    8  A    between atoms: C_20  and  O_21
REMARK    9  A    between atoms: C_24  and  O_25
REMARK                            x       y       z     vdW  Elec       q    Type
REMARK                         _______ _______ _______ _____ _____    ______ ____
ROOT
ATOM      1  C   UNL     1       8.553   0.270  23.761  0.00  0.00    +0.263 C 
ATOM      2  N   UNL     1       8.480  -0.597  24.846  0.00  0.00    -0.203 N 
ATOM      3  H   UNL     1       8.549  -0.262  25.799  0.00  0.00    +0.178 HD
ATOM      4  O   UNL     1       8.329  -0.050  22.595  0.00  0.00    -0.268 OA
ENDROOT
BRANCH   1   8
ATOM      5  C   UNL     1       9.501   4.438  24.452  0.00  0.00    -0.042 A 
ATOM      6  C   UNL     1       8.430   3.827  25.138  0.00  0.00    +0.005 A 
ATOM      7  C   UNL     1       8.107   2.473  24.946  0.00  0.00    +0.013 A 
ATOM      8  C   UNL     1       8.860   1.694  24.066  0.00  0.00    +0.038 A 
ATOM      9  C   UNL     1       9.970   2.265  23.437  0.00  0.00    +0.013 A 
ATOM     10  C   UNL     1      10.285   3.615  23.628  0.00  0.00    +0.005 A 
BRANCH   5  12
ATOM     11  C   UNL     1      11.242   6.342  24.399  0.00  0.00    +0.015 C 
ATOM     12  C   UNL     1       9.754   5.954  24.572  0.00  0.00    -0.013 C 
ATOM     13  C   UNL     1       8.968   6.693  23.466  0.00  0.00    +0.015 C 
ATOM     14  C   UNL     1       9.298   6.481  25.947  0.00  0.00    +0.015 C 
ENDBRANCH   5  12
ENDBRANCH   1   8
BRANCH   2  15
ATOM     15  N   UNL     1       8.076  -1.879  24.618  0.00  0.00    -0.187 NA
ATOM     16  C   UNL     1       6.826  -2.153  24.802  0.00  0.00    +0.142 C 
BRANCH  16  17
ATOM     17  C   UNL     1       6.320  -3.520  24.535  0.00  0.00    +0.038 A 
ATOM     18  C   UNL     1       5.726  -4.278  25.549  0.00  0.00    +0.143 A 
ATOM     19  C   UNL     1       5.239  -5.563  25.269  0.00  0.00    +0.102 A 
ATOM     20 BR   UNL     1       4.432  -6.582  26.662  0.00  0.00    -0.043 Br
ATOM     21  C   UNL     1       5.341  -6.088  23.974  0.00  0.00    +0.148 A 
ATOM     22  C   UNL     1       5.936  -5.327  22.965  0.00  0.00    +0.061 A 
ATOM     23 BR   UNL     1       6.087  -6.005  21.200  0.00  0.00    -0.046 Br
ATOM     24  C   UNL     1       6.424  -4.049  23.239  0.00  0.00    +0.032 A 
BRANCH  18  25
ATOM     25  O   UNL     1       5.627  -3.749  26.811  0.00  0.00    -0.505 OA
ATOM     26  H   UNL     1       5.811  -2.791  26.746  0.00  0.00    +0.292 HD
ENDBRANCH  18  25
BRANCH  21  27
ATOM     27  O   UNL     1       4.856  -7.343  23.711  0.00  0.00    -0.504 OA
ATOM     28  H   UNL     1       4.416  -7.671  24.517  0.00  0.00    +0.292 HD
ENDBRANCH  21  27
ENDBRANCH  16  17
ENDBRANCH   2  15
TORSDOF 6
ENDMDL
MODEL 3
REMARK VINA RESULT:      -6.2      1.467      1.671
REMARK  Name = 
REMARK  9 active torsions:
REMARK  status: ('A' for Active; 'I' for Inactive)
REMARK    1  A    between atoms: C_1  and  C_2
REMARK    2  A    between atoms: C_2  and  C_3
REMARK    3  A    between atoms: C_2  and  C_4
REMARK    4  A    between atoms: C_2  and  C_5
REMARK    5  A    between atoms: C_8  and  C_11
REMARK    6  A    between atoms: N_13  and  N_14
REMARK    7  A    between atoms: C_15  and  C_16
REMARK    8  A    between atoms: C_20  and  O_21
REMARK    9  A    between atoms: C_24  and  O_25
REMARK                            x       y       z     vdW  Elec       q    Type
REMARK                         _______ _______ _______ _____ _____    ______ ____
ROOT
ATOM      1  C   UNL     1       8.444   0.027  24.206  0.00  0.00    +0.263 C 
ATOM      2  N   UNL     1       8.601  -0.710  25.374  0.00  0.00    -0.203 N 
ATOM      3  H   UNL     1       8.906  -0.279  26.237  0.00  0.00    +0.178 HD
ATOM      4  O   UNL     1       7.938  -0.402  23.171  0.00  0.00    -0.268 OA
ENDROOT
BRANCH   1   8
ATOM      5  C   UNL     1       9.728   4.163  24.158  0.00  0.00    -0.042 A 
ATOM      6  C   UNL     1       8.618   3.770  24.934  0.00  0.00    +0.005 A 
ATOM      7  C   UNL     1       8.186   2.433  24.982  0.00  0.00    +0.013 A 
ATOM      8  C   UNL     1       8.867   1.454  24.257  0.00  0.00    +0.038 A 
ATOM      9  C   UNL     1      10.014   1.814  23.544  0.00  0.00    +0.013 A 
ATOM     10  C   UNL     1      10.437   3.147  23.496  0.00  0.00    +0.005 A 
BRANCH   5  12
ATOM     11  C   UNL     1      10.139   6.410  25.358  0.00  0.00    +0.015 C 
ATOM     12  C   UNL     1      10.103   5.650  24.010  0.00  0.00    -0.013 C 
ATOM     13  C   UNL     1      11.516   5.764  23.395  0.00  0.00    +0.015 C 
ATOM     14  C   UNL     1       9.100   6.383  23.096  0.00  0.00    +0.015 C 
ENDBRANCH   5  12
ENDBRANCH   1   8
BRANCH   2  15
ATOM     15  N   UNL     1       8.108  -1.981  25.402  0.00  0.00    -0.187 NA
ATOM     16  C   UNL     1       7.146  -2.230  26.229  0.00  0.00    +0.142 C 
BRANCH  16  17
ATOM     17  C   UNL     1       6.544  -3.584  26.280  0.00  0.00    +0.038 A 
ATOM     18  C   UNL     1       6.050  -4.195  25.123  0.00  0.00    +0.143 A 
ATOM     19  C   UNL     1       5.500  -5.484  25.192  0.00  0.00    +0.102 A 
ATOM     20 BR   UNL     1       4.830  -6.301  23.607  0.00  0.00    -0.043 Br
ATOM     21  C   UNL     1       5.450  -6.163  26.416  0.00  0.00    +0.148 A 
ATOM     22  C   UNL     1       5.945  -5.547  27.569  0.00  0.00    +0.061 A 
ATOM     23 BR   UNL     1       5.896  -6.439  29.242  0.00  0.00    -0.046 Br
ATOM     24  C   UNL     1       6.490  -4.265  27.506  0.00  0.00    +0.032 A 
BRANCH  18  25
ATOM     25  O   UNL     1       6.111  -3.520  23.930  0.00  0.00    -0.505 OA
ATOM     26  H   UNL     1       5.728  -4.100  23.242  0.00  0.00    +0.292 HD
ENDBRANCH  18  25
BRANCH  21  27
ATOM     27  O   UNL     1       4.916  -7.424  26.471  0.00  0.00    -0.504 OA
ATOM     28  H   UNL     1       5.465  -7.959  27.074  0.00  0.00    +0.292 HD
ENDBRANCH  21  27
ENDBRANCH  16  17
ENDBRANCH   2  15
TORSDOF 6
ENDMDL
MODEL 4
REMARK VINA RESULT:      -5.6      4.518     10.080
REMARK  Name = 
REMARK  9 active torsions:
REMARK  status: ('A' for Active; 'I' for Inactive)
REMARK    1  A    between atoms: C_1  and  C_2
REMARK    2  A    between atoms: C_2  and  C_3
REMARK    3  A    between atoms: C_2  and  C_4
REMARK    4  A    between atoms: C_2  and  C_5
REMARK    5  A    between atoms: C_8  and  C_11
REMARK    6  A    between atoms: N_13  and  N_14
REMARK    7  A    between atoms: C_15  and  C_16
REMARK    8  A    between atoms: C_20  and  O_21
REMARK    9  A    between atoms: C_24  and  O_25
REMARK                            x       y       z     vdW  Elec       q    Type
REMARK                         _______ _______ _______ _____ _____    ______ ____
ROOT
ATOM      1  C   UNL     1       8.144  -0.821  24.747  0.00  0.00    +0.263 C 
ATOM      2  N   UNL     1       7.575   0.385  24.353  0.00  0.00    -0.203 N 
ATOM      3  H   UNL     1       6.626   0.435  24.003  0.00  0.00    +0.178 HD
ATOM      4  O   UNL     1       9.229  -0.929  25.315  0.00  0.00    -0.268 OA
ENDROOT
BRANCH   1   8
ATOM      5  C   UNL     1       5.730  -4.311  23.882  0.00  0.00    -0.042 A 
ATOM      6  C   UNL     1       6.945  -4.441  24.586  0.00  0.00    +0.005 A 
ATOM      7  C   UNL     1       7.743  -3.326  24.895  0.00  0.00    +0.013 A 
ATOM      8  C   UNL     1       7.334  -2.048  24.511  0.00  0.00    +0.038 A 
ATOM      9  C   UNL     1       6.097  -1.894  23.880  0.00  0.00    +0.013 A 
ATOM     10  C   UNL     1       5.308  -3.008  23.571  0.00  0.00    +0.005 A 
BRANCH   5  12
ATOM     11  C   UNL     1       4.956  -6.699  24.475  0.00  0.00    +0.015 C 
ATOM     12  C   UNL     1       4.938  -5.555  23.434  0.00  0.00    -0.013 C 
ATOM     13  C   UNL     1       3.457  -5.170  23.219  0.00  0.00    +0.015 C 
ATOM     14  C   UNL     1       5.504  -6.123  22.117  0.00  0.00    +0.015 C 
ENDBRANCH   5  12
ENDBRANCH   1   8
BRANCH   2  15
ATOM     15  N   UNL     1       8.231   1.538  24.667  0.00  0.00    -0.187 NA
ATOM     16  C   UNL     1       8.717   2.235  23.692  0.00  0.00    +0.142 C 
BRANCH  16  17
ATOM     17  C   UNL     1       9.408   3.516  23.969  0.00  0.00    +0.038 A 
ATOM     18  C   UNL     1       8.841   4.470  24.820  0.00  0.00    +0.143 A 
ATOM     19  C   UNL     1       9.522   5.669  25.081  0.00  0.00    +0.102 A 
ATOM     20 BR   UNL     1       8.735   6.959  26.241  0.00  0.00    -0.043 Br
ATOM     21  C   UNL     1      10.772   5.909  24.496  0.00  0.00    +0.148 A 
ATOM     22  C   UNL     1      11.334   4.953  23.647  0.00  0.00    +0.061 A 
ATOM     23 BR   UNL     1      13.026   5.245  22.841  0.00  0.00    -0.046 Br
ATOM     24  C   UNL     1      10.659   3.761  23.382  0.00  0.00    +0.032 A 
BRANCH  18  25
ATOM     25  O   UNL     1       7.619   4.218  25.390  0.00  0.00    -0.505 OA
ATOM     26  H   UNL     1       7.250   5.073  25.690  0.00  0.00    +0.292 HD
ENDBRANCH  18  25
BRANCH  21  27
ATOM     27  O   UNL     1      11.431   7.082  24.763  0.00  0.00    -0.504 OA
ATOM     28  H   UNL     1      11.221   7.344  25.679  0.00  0.00    +0.292 HD
ENDBRANCH  21  27
ENDBRANCH  16  17
ENDBRANCH   2  15
TORSDOF 6
ENDMDL
MODEL 5
REMARK VINA RESULT:      -5.6      4.430      9.919
REMARK  Name = 
REMARK  9 active torsions:
REMARK  status: ('A' for Active; 'I' for Inactive)
REMARK    1  A    between atoms: C_1  and  C_2
REMARK    2  A    between atoms: C_2  and  C_3
REMARK    3  A    between atoms: C_2  and  C_4
REMARK    4  A    between atoms: C_2  and  C_5
REMARK    5  A    between atoms: C_8  and  C_11
REMARK    6  A    between atoms: N_13  and  N_14
REMARK    7  A    between atoms: C_15  and  C_16
REMARK    8  A    between atoms: C_20  and  O_21
REMARK    9  A    between atoms: C_24  and  O_25
REMARK                            x       y       z     vdW  Elec       q    Type
REMARK                         _______ _______ _______ _____ _____    ______ ____
ROOT
ATOM      1  C   UNL     1       8.200  -1.050  24.809  0.00  0.00    +0.263 C 
ATOM      2  N   UNL     1       7.607   0.187  24.582  0.00  0.00    -0.203 N 
ATOM      3  H   UNL     1       6.617   0.274  24.389  0.00  0.00    +0.178 HD
ATOM      4  O   UNL     1       9.357  -1.210  25.192  0.00  0.00    -0.268 OA
ENDROOT
BRANCH   1   8
ATOM      5  C   UNL     1       5.570  -4.427  24.152  0.00  0.00    -0.042 A 
ATOM      6  C   UNL     1       6.935  -4.632  24.442  0.00  0.00    +0.005 A 
ATOM      7  C   UNL     1       7.811  -3.557  24.675  0.00  0.00    +0.013 A 
ATOM      8  C   UNL     1       7.332  -2.247  24.632  0.00  0.00    +0.038 A 
ATOM      9  C   UNL     1       5.968  -2.031  24.420  0.00  0.00    +0.013 A 
ATOM     10  C   UNL     1       5.102  -3.104  24.185  0.00  0.00    +0.005 A 
BRANCH   5  12
ATOM     11  C   UNL     1       3.214  -5.178  23.413  0.00  0.00    +0.015 C 
ATOM     12  C   UNL     1       4.658  -5.608  23.766  0.00  0.00    -0.013 C 
ATOM     13  C   UNL     1       5.233  -6.312  22.516  0.00  0.00    +0.015 C 
ATOM     14  C   UNL     1       4.565  -6.630  24.916  0.00  0.00    +0.015 C 
ENDBRANCH   5  12
ENDBRANCH   1   8
BRANCH   2  15
ATOM     15  N   UNL     1       8.333   1.308  24.857  0.00  0.00    -0.187 NA
ATOM     16  C   UNL     1       8.312   2.263  23.986  0.00  0.00    +0.142 C 
BRANCH  16  17
ATOM     17  C   UNL     1       9.052   3.521  24.247  0.00  0.00    +0.038 A 
ATOM     18  C   UNL     1      10.258   3.794  23.595  0.00  0.00    +0.143 A 
ATOM     19  C   UNL     1      10.932   4.998  23.845  0.00  0.00    +0.102 A 
ATOM     20 BR   UNL     1      12.575   5.354  22.949  0.00  0.00    -0.043 Br
ATOM     21  C   UNL     1      10.396   5.931  24.742  0.00  0.00    +0.148 A 
ATOM     22  C   UNL     1       9.191   5.653  25.391  0.00  0.00    +0.061 A 
ATOM     23 BR   UNL     1       8.436   6.896  26.608  0.00  0.00    -0.046 Br
ATOM     24  C   UNL     1       8.519   4.456  25.148  0.00  0.00    +0.032 A 
BRANCH  18  25
ATOM     25  O   UNL     1      10.768   2.873  22.714  0.00  0.00    -0.505 OA
ATOM     26  H   UNL     1      11.289   2.227  23.231  0.00  0.00    +0.292 HD
ENDBRANCH  18  25
BRANCH  21  27
ATOM     27  O   UNL     1      11.061   7.108  24.974  0.00  0.00    -0.504 OA
ATOM     28  H   UNL     1      12.008   6.960  24.792  0.00  0.00    +0.292 HD
ENDBRANCH  21  27
ENDBRANCH  16  17
ENDBRANCH   2  15
TORSDOF 6
ENDMDL
MODEL 6
REMARK VINA RESULT:      -5.4      2.015      2.720
REMARK  Name = 
REMARK  9 active torsions:
REMARK  status: ('A' for Active; 'I' for Inactive)
REMARK    1  A    between atoms: C_1  and  C_2
REMARK    2  A    between atoms: C_2  and  C_3
REMARK    3  A    between atoms: C_2  and  C_4
REMARK    4  A    between atoms: C_2  and  C_5
REMARK    5  A    between atoms: C_8  and  C_11
REMARK    6  A    between atoms: N_13  and  N_14
REMARK    7  A    between atoms: C_15  and  C_16
REMARK    8  A    between atoms: C_20  and  O_21
REMARK    9  A    between atoms: C_24  and  O_25
REMARK                            x       y       z     vdW  Elec       q    Type
REMARK                         _______ _______ _______ _____ _____    ______ ____
ROOT
ATOM      1  C   UNL     1       6.606   0.618  25.112  0.00  0.00    +0.263 C 
ATOM      2  N   UNL     1       7.268  -0.509  25.586  0.00  0.00    -0.203 N 
ATOM      3  H   UNL     1       8.227  -0.464  25.909  0.00  0.00    +0.178 HD
ATOM      4  O   UNL     1       5.406   0.663  24.847  0.00  0.00    -0.268 OA
ENDROOT
BRANCH   1   8
ATOM      5  C   UNL     1       8.956   4.209  24.539  0.00  0.00    -0.042 A 
ATOM      6  C   UNL     1       7.992   4.144  25.567  0.00  0.00    +0.005 A 
ATOM      7  C   UNL     1       7.224   2.988  25.788  0.00  0.00    +0.013 A 
ATOM      8  C   UNL     1       7.414   1.862  24.985  0.00  0.00    +0.038 A 
ATOM      9  C   UNL     1       8.417   1.885  24.012  0.00  0.00    +0.013 A 
ATOM     10  C   UNL     1       9.176   3.040  23.794  0.00  0.00    +0.005 A 
BRANCH   5  12
ATOM     11  C   UNL     1       9.921   6.412  25.475  0.00  0.00    +0.015 C 
ATOM     12  C   UNL     1       9.691   5.528  24.227  0.00  0.00    -0.013 C 
ATOM     13  C   UNL     1      11.085   5.211  23.641  0.00  0.00    +0.015 C 
ATOM     14  C   UNL     1       8.899   6.370  23.205  0.00  0.00    +0.015 C 
ENDBRANCH   5  12
ENDBRANCH   1   8
BRANCH   2  15
ATOM     15  N   UNL     1       6.533  -1.629  25.836  0.00  0.00    -0.187 NA
ATOM     16  C   UNL     1       6.737  -2.659  25.081  0.00  0.00    +0.142 C 
BRANCH  16  17
ATOM     17  C   UNL     1       5.994  -3.917  25.327  0.00  0.00    +0.038 A 
ATOM     18  C   UNL     1       6.145  -4.619  26.527  0.00  0.00    +0.143 A 
ATOM     19  C   UNL     1       5.419  -5.800  26.744  0.00  0.00    +0.102 A 
ATOM     20 BR   UNL     1       5.638  -6.744  28.384  0.00  0.00    -0.043 Br
ATOM     21  C   UNL     1       4.537  -6.273  25.764  0.00  0.00    +0.148 A 
ATOM     22  C   UNL     1       4.390  -5.568  24.567  0.00  0.00    +0.061 A 
ATOM     23 BR   UNL     1       3.202  -6.180  23.221  0.00  0.00    -0.046 Br
ATOM     24  C   UNL     1       5.112  -4.396  24.345  0.00  0.00    +0.032 A 
BRANCH  18  25
ATOM     25  O   UNL     1       7.008  -4.140  27.480  0.00  0.00    -0.505 OA
ATOM     26  H   UNL     1       7.708  -4.810  27.610  0.00  0.00    +0.292 HD
ENDBRANCH  18  25
BRANCH  21  27
ATOM     27  O   UNL     1       3.828  -7.425  25.990  0.00  0.00    -0.504 OA
ATOM     28  H   UNL     1       2.968  -7.343  25.538  0.00  0.00    +0.292 HD
ENDBRANCH  21  27
ENDBRANCH  16  17
ENDBRANCH   2  15
TORSDOF 6
ENDMDL
MODEL 7
REMARK VINA RESULT:      -5.0      4.306     10.017
REMARK  Name = 
REMARK  9 active torsions:
REMARK  status: ('A' for Active; 'I' for Inactive)
REMARK    1  A    between atoms: C_1  and  C_2
REMARK    2  A    between atoms: C_2  and  C_3
REMARK    3  A    between atoms: C_2  and  C_4
REMARK    4  A    between atoms: C_2  and  C_5
REMARK    5  A    between atoms: C_8  and  C_11
REMARK    6  A    between atoms: N_13  and  N_14
REMARK    7  A    between atoms: C_15  and  C_16
REMARK    8  A    between atoms: C_20  and  O_21
REMARK    9  A    between atoms: C_24  and  O_25
REMARK                            x       y       z     vdW  Elec       q    Type
REMARK                         _______ _______ _______ _____ _____    ______ ____
ROOT
ATOM      1  C   UNL     1       6.467  -1.592  23.966  0.00  0.00    +0.263 C 
ATOM      2  N   UNL     1       5.902  -0.325  24.061  0.00  0.00    -0.203 N 
ATOM      3  H   UNL     1       4.914  -0.196  24.238  0.00  0.00    +0.178 HD
ATOM      4  O   UNL     1       7.674  -1.816  23.903  0.00  0.00    -0.268 OA
ENDROOT
BRANCH   1   8
ATOM      5  C   UNL     1       3.590  -4.822  24.182  0.00  0.00    -0.042 A 
ATOM      6  C   UNL     1       4.499  -4.747  23.106  0.00  0.00    +0.005 A 
ATOM      7  C   UNL     1       5.455  -3.719  23.015  0.00  0.00    +0.013 A 
ATOM      8  C   UNL     1       5.527  -2.745  24.012  0.00  0.00    +0.038 A 
ATOM      9  C   UNL     1       4.684  -2.848  25.122  0.00  0.00    +0.013 A 
ATOM     10  C   UNL     1       3.732  -3.871  25.206  0.00  0.00    +0.005 A 
BRANCH   5  12
ATOM     11  C   UNL     1       1.571  -5.802  25.455  0.00  0.00    +0.015 C 
ATOM     12  C   UNL     1       2.465  -5.874  24.194  0.00  0.00    -0.013 C 
ATOM     13  C   UNL     1       1.539  -5.647  22.978  0.00  0.00    +0.015 C 
ATOM     14  C   UNL     1       3.044  -7.301  24.122  0.00  0.00    +0.015 C 
ENDBRANCH   5  12
ENDBRANCH   1   8
BRANCH   2  15
ATOM     15  N   UNL     1       6.740   0.747  24.150  0.00  0.00    -0.187 NA
ATOM     16  C   UNL     1       6.488   1.768  23.399  0.00  0.00    +0.142 C 
BRANCH  16  17
ATOM     17  C   UNL     1       7.341   2.977  23.478  0.00  0.00    +0.038 A 
ATOM     18  C   UNL     1       8.735   2.879  23.417  0.00  0.00    +0.143 A 
ATOM     19  C   UNL     1       9.522   4.038  23.477  0.00  0.00    +0.102 A 
ATOM     20 BR   UNL     1      11.419   3.887  23.393  0.00  0.00    -0.043 Br
ATOM     21  C   UNL     1       8.915   5.295  23.593  0.00  0.00    +0.148 A 
ATOM     22  C   UNL     1       7.522   5.388  23.654  0.00  0.00    +0.061 A 
ATOM     23 BR   UNL     1       6.668   7.074  23.807  0.00  0.00    -0.046 Br
ATOM     24  C   UNL     1       6.736   4.238  23.597  0.00  0.00    +0.032 A 
BRANCH  18  25
ATOM     25  O   UNL     1       9.315   1.641  23.298  0.00  0.00    -0.505 OA
ATOM     26  H   UNL     1      10.112   1.740  22.741  0.00  0.00    +0.292 HD
ENDBRANCH  18  25
BRANCH  21  27
ATOM     27  O   UNL     1       9.694   6.422  23.645  0.00  0.00    -0.504 OA
ATOM     28  H   UNL     1       9.188   7.157  23.252  0.00  0.00    +0.292 HD
ENDBRANCH  21  27
ENDBRANCH  16  17
ENDBRANCH   2  15
TORSDOF 6
ENDMDL
MODEL 8
REMARK VINA RESULT:      -5.0      4.395      9.943
REMARK  Name = 
REMARK  9 active torsions:
REMARK  status: ('A' for Active; 'I' for Inactive)
REMARK    1  A    between atoms: C_1  and  C_2
REMARK    2  A    between atoms: C_2  and  C_3
REMARK    3  A    between atoms: C_2  and  C_4
REMARK    4  A    between atoms: C_2  and  C_5
REMARK    5  A    between atoms: C_8  and  C_11
REMARK    6  A    between atoms: N_13  and  N_14
REMARK    7  A    between atoms: C_15  and  C_16
REMARK    8  A    between atoms: C_20  and  O_21
REMARK    9  A    between atoms: C_24  and  O_25
REMARK                            x       y       z     vdW  Elec       q    Type
REMARK                         _______ _______ _______ _____ _____    ______ ____
ROOT
ATOM      1  C   UNL     1       5.674  -0.867  25.053  0.00  0.00    +0.263 C 
ATOM      2  N   UNL     1       6.879  -0.671  24.388  0.00  0.00    -0.203 N 
ATOM      3  H   UNL     1       7.424  -1.449  24.037  0.00  0.00    +0.178 HD
ATOM      4  O   UNL     1       4.897   0.032  25.370  0.00  0.00    -0.268 OA
ENDROOT
BRANCH   1   8
ATOM      5  C   UNL     1       4.529  -4.919  26.063  0.00  0.00    -0.042 A 
ATOM      6  C   UNL     1       4.161  -4.363  24.819  0.00  0.00    +0.005 A 
ATOM      7  C   UNL     1       4.531  -3.056  24.456  0.00  0.00    +0.013 A 
ATOM      8  C   UNL     1       5.289  -2.277  25.332  0.00  0.00    +0.038 A 
ATOM      9  C   UNL     1       5.725  -2.840  26.535  0.00  0.00    +0.013 A 
ATOM     10  C   UNL     1       5.351  -4.140  26.893  0.00  0.00    +0.005 A 
BRANCH   5  12
ATOM     11  C   UNL     1       3.994  -7.342  25.355  0.00  0.00    +0.015 C 
ATOM     12  C   UNL     1       4.001  -6.300  26.498  0.00  0.00    -0.013 C 
ATOM     13  C   UNL     1       4.908  -6.867  27.613  0.00  0.00    +0.015 C 
ATOM     14  C   UNL     1       2.558  -6.194  27.033  0.00  0.00    +0.015 C 
ENDBRANCH   5  12
ENDBRANCH   1   8
BRANCH   2  15
ATOM     15  N   UNL     1       7.202   0.596  24.003  0.00  0.00    -0.187 NA
ATOM     16  C   UNL     1       8.121   1.209  24.675  0.00  0.00    +0.142 C 
BRANCH  16  17
ATOM     17  C   UNL     1       8.541   2.575  24.281  0.00  0.00    +0.038 A 
ATOM     18  C   UNL     1       9.880   2.862  23.995  0.00  0.00    +0.143 A 
ATOM     19  C   UNL     1      10.251   4.158  23.607  0.00  0.00    +0.102 A 
ATOM     20 BR   UNL     1      12.079   4.531  23.222  0.00  0.00    -0.043 Br
ATOM     21  C   UNL     1       9.283   5.164  23.500  0.00  0.00    +0.148 A 
ATOM     22  C   UNL     1       7.947   4.873  23.787  0.00  0.00    +0.061 A 
ATOM     23 BR   UNL     1       6.611   6.211  23.649  0.00  0.00    -0.046 Br
ATOM     24  C   UNL     1       7.574   3.587  24.175  0.00  0.00    +0.032 A 
BRANCH  18  25
ATOM     25  O   UNL     1      10.816   1.864  24.098  0.00  0.00    -0.505 OA
ATOM     26  H   UNL     1      11.166   1.880  25.011  0.00  0.00    +0.292 HD
ENDBRANCH  18  25
BRANCH  21  27
ATOM     27  O   UNL     1       9.657   6.426  23.115  0.00  0.00    -0.504 OA
ATOM     28  H   UNL     1      10.095   6.856  23.873  0.00  0.00    +0.292 HD
ENDBRANCH  21  27
ENDBRANCH  16  17
ENDBRANCH   2  15
TORSDOF 6
ENDMDL
MODEL 9
REMARK VINA RESULT:      -4.9      4.450     10.041
REMARK  Name = 
REMARK  9 active torsions:
REMARK  status: ('A' for Active; 'I' for Inactive)
REMARK    1  A    between atoms: C_1  and  C_2
REMARK    2  A    between atoms: C_2  and  C_3
REMARK    3  A    between atoms: C_2  and  C_4
REMARK    4  A    between atoms: C_2  and  C_5
REMARK    5  A    between atoms: C_8  and  C_11
REMARK    6  A    between atoms: N_13  and  N_14
REMARK    7  A    between atoms: C_15  and  C_16
REMARK    8  A    between atoms: C_20  and  O_21
REMARK    9  A    between atoms: C_24  and  O_25
REMARK                            x       y       z     vdW  Elec       q    Type
REMARK                         _______ _______ _______ _____ _____    ______ ____
ROOT
ATOM      1  C   UNL     1       5.740  -0.804  25.022  0.00  0.00    +0.263 C 
ATOM      2  N   UNL     1       6.970  -0.587  24.409  0.00  0.00    -0.203 N 
ATOM      3  H   UNL     1       7.546  -1.355  24.088  0.00  0.00    +0.178 HD
ATOM      4  O   UNL     1       4.932   0.079  25.297  0.00  0.00    -0.268 OA
ENDROOT
BRANCH   1   8
ATOM      5  C   UNL     1       4.642  -4.875  26.010  0.00  0.00    -0.042 A 
ATOM      6  C   UNL     1       4.292  -4.326  24.758  0.00  0.00    +0.005 A 
ATOM      7  C   UNL     1       4.648  -3.013  24.402  0.00  0.00    +0.013 A 
ATOM      8  C   UNL     1       5.373  -2.221  25.294  0.00  0.00    +0.038 A 
ATOM      9  C   UNL     1       5.792  -2.776  26.506  0.00  0.00    +0.013 A 
ATOM     10  C   UNL     1       5.432  -4.082  26.858  0.00  0.00    +0.005 A 
BRANCH   5  12
ATOM     11  C   UNL     1       4.131  -7.298  25.284  0.00  0.00    +0.015 C 
ATOM     12  C   UNL     1       4.127  -6.264  26.435  0.00  0.00    -0.013 C 
ATOM     13  C   UNL     1       5.040  -6.830  27.546  0.00  0.00    +0.015 C 
ATOM     14  C   UNL     1       2.684  -6.177  26.970  0.00  0.00    +0.015 C 
ENDBRANCH   5  12
ENDBRANCH   1   8
BRANCH   2  15
ATOM     15  N   UNL     1       7.283   0.684  24.030  0.00  0.00    -0.187 NA
ATOM     16  C   UNL     1       8.060   1.366  24.806  0.00  0.00    +0.142 C 
BRANCH  16  17
ATOM     17  C   UNL     1       8.465   2.740  24.429  0.00  0.00    +0.038 A 
ATOM     18  C   UNL     1       7.543   3.792  24.442  0.00  0.00    +0.143 A 
ATOM     19  C   UNL     1       7.953   5.088  24.097  0.00  0.00    +0.102 A 
ATOM     20 BR   UNL     1       6.684   6.508  24.119  0.00  0.00    -0.043 Br
ATOM     21  C   UNL     1       9.287   5.333  23.745  0.00  0.00    +0.148 A 
ATOM     22  C   UNL     1      10.204   4.279  23.733  0.00  0.00    +0.061 A 
ATOM     23 BR   UNL     1      12.018   4.577  23.265  0.00  0.00    -0.046 Br
ATOM     24  C   UNL     1       9.800   2.989  24.073  0.00  0.00    +0.032 A 
BRANCH  18  25
ATOM     25  O   UNL     1       6.241   3.537  24.794  0.00  0.00    -0.505 OA
ATOM     26  H   UNL     1       5.751   3.319  23.977  0.00  0.00    +0.292 HD
ENDBRANCH  18  25
BRANCH  21  27
ATOM     27  O   UNL     1       9.678   6.605  23.416  0.00  0.00    -0.504 OA
ATOM     28  H   UNL     1       9.351   6.798  22.517  0.00  0.00    +0.292 HD
ENDBRANCH  21  27
ENDBRANCH  16  17
ENDBRANCH   2  15
TORSDOF 6
ENDMDL
