MODEL 1
REMARK VINA RESULT:      -8.8      0.000      0.000
REMARK  Name = 
REMARK  10 active torsions:
REMARK  status: ('A' for Active; 'I' for Inactive)
REMARK    1  A    between atoms: C_2  and  C_3
REMARK    2  A    between atoms: C_2  and  N_4
REMARK    3  A    between atoms: C_2  and  C_30
REMARK    4  A    between atoms: C_7  and  C_8
REMARK    5  A    between atoms: C_7  and  C_11
REMARK    6  A    between atoms: C_14  and  O_15
REMARK    7  A    between atoms: O_15  and  C_16
REMARK    8  A    between atoms: C_16  and  C_17
REMARK    9  A    between atoms: C_19  and  C_20
REMARK   10  A    between atoms: N_32  and  O_33
REMARK                            x       y       z     vdW  Elec       q    Type
REMARK                         _______ _______ _______ _____ _____    ______ ____
ROOT
ATOM      1  C   UNL     1       9.331   0.146  23.039  0.00  0.00    -0.032 A 
ATOM      2  C   UNL     1       9.946  -0.872  22.279  0.00  0.00    +0.008 A 
ATOM      3  C   UNL     1      10.120  -2.161  22.800  0.00  0.00    +0.046 A 
ATOM      4  C   UNL     1       9.669  -2.464  24.081  0.00  0.00    +0.121 A 
ATOM      5  C   UNL     1       9.094  -1.456  24.856  0.00  0.00    +0.046 A 
ATOM      6  C   UNL     1       8.912  -0.173  24.335  0.00  0.00    +0.008 A 
ENDROOT
BRANCH   1  10
ATOM      7  N   UNL     1       9.344   3.337  23.980  0.00  0.00    -0.289 N 
ATOM      8  C   UNL     1       8.394   2.539  23.355  0.00  0.00    +0.226 C 
ATOM      9  O   UNL     1       7.184   2.677  23.473  0.00  0.00    -0.275 OA
ATOM     10  C   UNL     1       9.117   1.538  22.439  0.00  0.00    +0.071 C 
ATOM     11  C   UNL     1       8.319   1.446  21.133  0.00  0.00    +0.026 C 
ATOM     12  C   UNL     1      10.456   2.286  22.235  0.00  0.00    +0.039 C 
ATOM     13  C   UNL     1      10.679   2.993  23.559  0.00  0.00    +0.110 C 
BRANCH   7  14
ATOM     14  C   UNL     1       9.040   4.615  24.627  0.00  0.00    +0.161 C 
ATOM     15  C   UNL     1       7.873   4.570  25.608  0.00  0.00    +0.038 C 
BRANCH  14  16
ATOM     16  C   UNL     1       8.863   5.695  23.542  0.00  0.00    +0.256 C 
ATOM     17  N   UNL     1       7.943   5.402  22.557  0.00  0.00    -0.196 N 
ATOM     18  H   UNL     1       7.743   4.427  22.321  0.00  0.00    +0.182 HD
ATOM     19  O   UNL     1       9.559   6.711  23.492  0.00  0.00    -0.272 OA
BRANCH  17  20
ATOM     20  O   UNL     1       7.890   6.327  21.485  0.00  0.00    -0.295 OA
ATOM     21  H   UNL     1       7.944   7.192  21.947  0.00  0.00    +0.241 HD
ENDBRANCH  17  20
ENDBRANCH  14  16
ENDBRANCH   7  14
ENDBRANCH   1  10
BRANCH   4  22
ATOM     22  O   UNL     1       9.818  -3.765  24.485  0.00  0.00    -0.487 OA
BRANCH  22  23
ATOM     23  C   UNL     1       8.866  -4.186  25.467  0.00  0.00    +0.265 C 
BRANCH  23  24
ATOM     24  C   UNL     1       7.634  -4.793  24.834  0.00  0.00    +0.000 A 
ATOM     25  C   UNL     1       6.604  -5.399  25.593  0.00  0.00    +0.007 A 
ATOM     26  C   UNL     1       5.552  -6.017  24.880  0.00  0.00    +0.072 A 
ATOM     27  C   UNL     1       4.528  -6.626  25.594  0.00  0.00    +0.028 A 
ATOM     28  C   UNL     1       4.509  -6.656  26.990  0.00  0.00    +0.002 A 
ATOM     29  C   UNL     1       5.543  -6.062  27.699  0.00  0.00    +0.001 A 
ATOM     30  N   UNL     1       5.509  -6.069  23.536  0.00  0.00    -0.252 NA
ATOM     31  C   UNL     1       6.510  -5.505  22.829  0.00  0.00    +0.039 A 
ATOM     32  C   UNL     1       6.443  -5.642  21.338  0.00  0.00    +0.065 C 
ATOM     33  C   UNL     1       6.581  -5.441  27.009  0.00  0.00    +0.010 A 
ATOM     34  C   UNL     1       7.574  -4.853  23.436  0.00  0.00    +0.030 A 
ENDBRANCH  23  24
ENDBRANCH  22  23
ENDBRANCH   4  22
TORSDOF 7
ENDMDL
MODEL 2
REMARK VINA RESULT:      -8.7      2.229      9.360
REMARK  Name = 
REMARK  10 active torsions:
REMARK  status: ('A' for Active; 'I' for Inactive)
REMARK    1  A    between atoms: C_2  and  C_3
REMARK    2  A    between atoms: C_2  and  N_4
REMARK    3  A    between atoms: C_2  and  C_30
REMARK    4  A    between atoms: C_7  and  C_8
REMARK    5  A    between atoms: C_7  and  C_11
REMARK    6  A    between atoms: C_14  and  O_15
REMARK    7  A    between atoms: O_15  and  C_16
REMARK    8  A    between atoms: C_16  and  C_17
REMARK    9  A    between atoms: C_19  and  C_20
REMARK   10  A    between atoms: N_32  and  O_33
REMARK                            x       y       z     vdW  Elec       q    Type
REMARK                         _______ _______ _______ _____ _____    ______ ____
ROOT
ATOM      1  C   UNL     1       7.159  -2.195  22.643  0.00  0.00    -0.032 A 
ATOM      2  C   UNL     1       8.475  -2.276  22.142  0.00  0.00    +0.008 A 
ATOM      3  C   UNL     1       9.304  -1.148  22.093  0.00  0.00    +0.046 A 
ATOM      4  C   UNL     1       8.841   0.080  22.558  0.00  0.00    +0.121 A 
ATOM      5  C   UNL     1       7.529   0.182  23.020  0.00  0.00    +0.046 A 
ATOM      6  C   UNL     1       6.705  -0.944  23.077  0.00  0.00    +0.008 A 
ENDROOT
BRANCH   1  10
ATOM      7  N   UNL     1       6.349  -4.584  24.812  0.00  0.00    -0.289 N 
ATOM      8  C   UNL     1       6.880  -4.612  23.528  0.00  0.00    +0.226 C 
ATOM      9  O   UNL     1       7.639  -5.474  23.109  0.00  0.00    -0.275 OA
ATOM     10  C   UNL     1       6.281  -3.447  22.722  0.00  0.00    +0.071 C 
ATOM     11  C   UNL     1       5.962  -3.971  21.318  0.00  0.00    +0.026 C 
ATOM     12  C   UNL     1       4.994  -3.193  23.541  0.00  0.00    +0.039 C 
ATOM     13  C   UNL     1       5.406  -3.504  24.967  0.00  0.00    +0.110 C 
BRANCH   7  14
ATOM     14  C   UNL     1       6.390  -5.717  25.739  0.00  0.00    +0.161 C 
ATOM     15  C   UNL     1       5.060  -6.033  26.417  0.00  0.00    +0.038 C 
BRANCH  14  16
ATOM     16  C   UNL     1       7.532  -5.493  26.749  0.00  0.00    +0.256 C 
ATOM     17  N   UNL     1       8.721  -5.045  26.213  0.00  0.00    -0.196 N 
ATOM     18  H   UNL     1       8.957  -5.265  25.242  0.00  0.00    +0.182 HD
ATOM     19  O   UNL     1       7.433  -5.785  27.943  0.00  0.00    -0.272 OA
BRANCH  17  20
ATOM     20  O   UNL     1       9.808  -4.982  27.119  0.00  0.00    -0.295 OA
ATOM     21  H   UNL     1       9.717  -4.082  27.501  0.00  0.00    +0.241 HD
ENDBRANCH  17  20
ENDBRANCH  14  16
ENDBRANCH   7  14
ENDBRANCH   1  10
BRANCH   4  22
ATOM     22  O   UNL     1       9.740   1.115  22.536  0.00  0.00    -0.487 OA
BRANCH  22  23
ATOM     23  C   UNL     1      10.077   1.625  23.830  0.00  0.00    +0.265 C 
BRANCH  23  24
ATOM     24  C   UNL     1      10.304   3.120  23.805  0.00  0.00    +0.000 A 
ATOM     25  C   UNL     1       9.272   4.054  24.062  0.00  0.00    +0.007 A 
ATOM     26  C   UNL     1       9.586   5.424  23.913  0.00  0.00    +0.072 A 
ATOM     27  C   UNL     1       8.596   6.367  24.154  0.00  0.00    +0.028 A 
ATOM     28  C   UNL     1       7.299   6.008  24.529  0.00  0.00    +0.002 A 
ATOM     29  C   UNL     1       6.978   4.665  24.667  0.00  0.00    +0.001 A 
ATOM     30  N   UNL     1      10.797   5.859  23.519  0.00  0.00    -0.252 NA
ATOM     31  C   UNL     1      11.762   4.953  23.256  0.00  0.00    +0.039 A 
ATOM     32  C   UNL     1      13.073   5.489  22.765  0.00  0.00    +0.065 C 
ATOM     33  C   UNL     1       7.953   3.698  24.436  0.00  0.00    +0.010 A 
ATOM     34  C   UNL     1      11.559   3.589  23.398  0.00  0.00    +0.030 A 
ENDBRANCH  23  24
ENDBRANCH  22  23
ENDBRANCH   4  22
TORSDOF 7
ENDMDL
MODEL 3
REMARK VINA RESULT:      -8.7      2.572      9.751
REMARK  Name = 
REMARK  10 active torsions:
REMARK  status: ('A' for Active; 'I' for Inactive)
REMARK    1  A    between atoms: C_2  and  C_3
REMARK    2  A    between atoms: C_2  and  N_4
REMARK    3  A    between atoms: C_2  and  C_30
REMARK    4  A    between atoms: C_7  and  C_8
REMARK    5  A    between atoms: C_7  and  C_11
REMARK    6  A    between atoms: C_14  and  O_15
REMARK    7  A    between atoms: O_15  and  C_16
REMARK    8  A    between atoms: C_16  and  C_17
REMARK    9  A    between atoms: C_19  and  C_20
REMARK   10  A    between atoms: N_32  and  O_33
REMARK                            x       y       z     vdW  Elec       q    Type
REMARK                         _______ _______ _______ _____ _____    ______ ____
ROOT
ATOM      1  C   UNL     1       8.878  -2.925  24.789  0.00  0.00    -0.032 A 
ATOM      2  C   UNL     1       9.640  -2.666  23.630  0.00  0.00    +0.008 A 
ATOM      3  C   UNL     1      10.204  -1.405  23.399  0.00  0.00    +0.046 A 
ATOM      4  C   UNL     1      10.033  -0.383  24.328  0.00  0.00    +0.121 A 
ATOM      5  C   UNL     1       9.250  -0.614  25.458  0.00  0.00    +0.046 A 
ATOM      6  C   UNL     1       8.694  -1.874  25.694  0.00  0.00    +0.008 A 
ENDROOT
BRANCH   1  10
ATOM      7  N   UNL     1       6.040  -4.349  25.785  0.00  0.00    -0.289 N 
ATOM      8  C   UNL     1       7.349  -4.424  26.244  0.00  0.00    +0.226 C 
ATOM      9  O   UNL     1       7.667  -4.618  27.410  0.00  0.00    -0.275 OA
ATOM     10  C   UNL     1       8.301  -4.320  25.041  0.00  0.00    +0.071 C 
ATOM     11  C   UNL     1       9.426  -5.339  25.252  0.00  0.00    +0.026 C 
ATOM     12  C   UNL     1       7.343  -4.757  23.908  0.00  0.00    +0.039 C 
ATOM     13  C   UNL     1       5.994  -4.221  24.349  0.00  0.00    +0.110 C 
BRANCH   7  14
ATOM     14  C   UNL     1       4.874  -4.768  26.564  0.00  0.00    +0.161 C 
ATOM     15  C   UNL     1       4.561  -3.884  27.767  0.00  0.00    +0.038 C 
BRANCH  14  16
ATOM     16  C   UNL     1       5.036  -6.253  26.945  0.00  0.00    +0.256 C 
ATOM     17  N   UNL     1       5.347  -6.498  28.266  0.00  0.00    -0.196 N 
ATOM     18  H   UNL     1       5.848  -5.791  28.810  0.00  0.00    +0.182 HD
ATOM     19  O   UNL     1       4.989  -7.163  26.114  0.00  0.00    -0.272 OA
BRANCH  17  20
ATOM     20  O   UNL     1       5.639  -7.848  28.578  0.00  0.00    -0.295 OA
ATOM     21  H   UNL     1       6.306  -8.085  27.898  0.00  0.00    +0.241 HD
ENDBRANCH  17  20
ENDBRANCH  14  16
ENDBRANCH   7  14
ENDBRANCH   1  10
BRANCH   4  22
ATOM     22  O   UNL     1      10.675   0.798  24.055  0.00  0.00    -0.487 OA
BRANCH  22  23
ATOM     23  C   UNL     1      10.060   1.572  23.021  0.00  0.00    +0.265 C 
BRANCH  23  24
ATOM     24  C   UNL     1       9.550   2.899  23.537  0.00  0.00    +0.000 A 
ATOM     25  C   UNL     1      10.387   4.028  23.702  0.00  0.00    +0.007 A 
ATOM     26  C   UNL     1       9.813   5.181  24.285  0.00  0.00    +0.072 A 
ATOM     27  C   UNL     1      10.608   6.305  24.465  0.00  0.00    +0.028 A 
ATOM     28  C   UNL     1      11.956   6.332  24.099  0.00  0.00    +0.002 A 
ATOM     29  C   UNL     1      12.532   5.201  23.537  0.00  0.00    +0.001 A 
ATOM     30  N   UNL     1       8.535   5.232  24.702  0.00  0.00    -0.252 NA
ATOM     31  C   UNL     1       7.757   4.138  24.557  0.00  0.00    +0.039 A 
ATOM     32  C   UNL     1       6.360   4.230  25.091  0.00  0.00    +0.065 C 
ATOM     33  C   UNL     1      11.756   4.061  23.340  0.00  0.00    +0.010 A 
ATOM     34  C   UNL     1       8.221   2.968  23.974  0.00  0.00    +0.030 A 
ENDBRANCH  23  24
ENDBRANCH  22  23
ENDBRANCH   4  22
TORSDOF 7
ENDMDL
MODEL 4
REMARK VINA RESULT:      -8.7      2.584      9.888
REMARK  Name = 
REMARK  10 active torsions:
REMARK  status: ('A' for Active; 'I' for Inactive)
REMARK    1  A    between atoms: C_2  and  C_3
REMARK    2  A    between atoms: C_2  and  N_4
REMARK    3  A    between atoms: C_2  and  C_30
REMARK    4  A    between atoms: C_7  and  C_8
REMARK    5  A    between atoms: C_7  and  C_11
REMARK    6  A    between atoms: C_14  and  O_15
REMARK    7  A    between atoms: O_15  and  C_16
REMARK    8  A    between atoms: C_16  and  C_17
REMARK    9  A    between atoms: C_19  and  C_20
REMARK   10  A    between atoms: N_32  and  O_33
REMARK                            x       y       z     vdW  Elec       q    Type
REMARK                         _______ _______ _______ _____ _____    ______ ____
ROOT
ATOM      1  C   UNL     1       8.861  -2.825  24.971  0.00  0.00    -0.032 A 
ATOM      2  C   UNL     1       8.669  -1.877  25.999  0.00  0.00    +0.008 A 
ATOM      3  C   UNL     1       9.177  -0.577  25.891  0.00  0.00    +0.046 A 
ATOM      4  C   UNL     1       9.872  -0.191  24.748  0.00  0.00    +0.121 A 
ATOM      5  C   UNL     1      10.102  -1.129  23.743  0.00  0.00    +0.046 A 
ATOM      6  C   UNL     1       9.589  -2.424  23.845  0.00  0.00    +0.008 A 
ENDROOT
BRANCH   1  10
ATOM      7  N   UNL     1       5.996  -4.298  25.802  0.00  0.00    -0.289 N 
ATOM      8  C   UNL     1       7.298  -4.429  26.269  0.00  0.00    +0.226 C 
ATOM      9  O   UNL     1       7.597  -4.728  27.417  0.00  0.00    -0.275 OA
ATOM     10  C   UNL     1       8.266  -4.230  25.092  0.00  0.00    +0.071 C 
ATOM     11  C   UNL     1       9.378  -5.277  25.225  0.00  0.00    +0.026 C 
ATOM     12  C   UNL     1       7.319  -4.554  23.913  0.00  0.00    +0.039 C 
ATOM     13  C   UNL     1       5.970  -4.043  24.383  0.00  0.00    +0.110 C 
BRANCH   7  14
ATOM     14  C   UNL     1       4.815  -4.771  26.527  0.00  0.00    +0.161 C 
ATOM     15  C   UNL     1       4.429  -3.925  27.737  0.00  0.00    +0.038 C 
BRANCH  14  16
ATOM     16  C   UNL     1       5.009  -6.258  26.880  0.00  0.00    +0.256 C 
ATOM     17  N   UNL     1       5.255  -6.527  28.210  0.00  0.00    -0.196 N 
ATOM     18  H   UNL     1       5.700  -5.818  28.798  0.00  0.00    +0.182 HD
ATOM     19  O   UNL     1       5.040  -7.148  26.026  0.00  0.00    -0.272 OA
BRANCH  17  20
ATOM     20  O   UNL     1       5.578  -7.874  28.505  0.00  0.00    -0.295 OA
ATOM     21  H   UNL     1       6.559  -7.858  28.531  0.00  0.00    +0.241 HD
ENDBRANCH  17  20
ENDBRANCH  14  16
ENDBRANCH   7  14
ENDBRANCH   1  10
BRANCH   4  22
ATOM     22  O   UNL     1      10.276   1.119  24.697  0.00  0.00    -0.487 OA
BRANCH  22  23
ATOM     23  C   UNL     1       9.618   1.894  23.690  0.00  0.00    +0.265 C 
BRANCH  23  24
ATOM     24  C   UNL     1      10.074   3.336  23.702  0.00  0.00    +0.000 A 
ATOM     25  C   UNL     1       9.180   4.419  23.878  0.00  0.00    +0.007 A 
ATOM     26  C   UNL     1       9.713   5.724  23.772  0.00  0.00    +0.072 A 
ATOM     27  C   UNL     1       8.863   6.809  23.935  0.00  0.00    +0.028 A 
ATOM     28  C   UNL     1       7.498   6.655  24.191  0.00  0.00    +0.002 A 
ATOM     29  C   UNL     1       6.962   5.378  24.285  0.00  0.00    +0.001 A 
ATOM     30  N   UNL     1      11.006   5.965  23.491  0.00  0.00    -0.252 NA
ATOM     31  C   UNL     1      11.840   4.921  23.304  0.00  0.00    +0.039 A 
ATOM     32  C   UNL     1      13.256   5.246  22.935  0.00  0.00    +0.065 C 
ATOM     33  C   UNL     1       7.793   4.271  24.130  0.00  0.00    +0.010 A 
ATOM     34  C   UNL     1      11.417   3.604  23.412  0.00  0.00    +0.030 A 
ENDBRANCH  23  24
ENDBRANCH  22  23
ENDBRANCH   4  22
TORSDOF 7
ENDMDL
MODEL 5
REMARK VINA RESULT:      -8.6      1.698      3.003
REMARK  Name = 
REMARK  10 active torsions:
REMARK  status: ('A' for Active; 'I' for Inactive)
REMARK    1  A    between atoms: C_2  and  C_3
REMARK    2  A    between atoms: C_2  and  N_4
REMARK    3  A    between atoms: C_2  and  C_30
REMARK    4  A    between atoms: C_7  and  C_8
REMARK    5  A    between atoms: C_7  and  C_11
REMARK    6  A    between atoms: C_14  and  O_15
REMARK    7  A    between atoms: O_15  and  C_16
REMARK    8  A    between atoms: C_16  and  C_17
REMARK    9  A    between atoms: C_19  and  C_20
REMARK   10  A    between atoms: N_32  and  O_33
REMARK                            x       y       z     vdW  Elec       q    Type
REMARK                         _______ _______ _______ _____ _____    ______ ____
ROOT
ATOM      1  C   UNL     1       8.847   0.887  23.916  0.00  0.00    -0.032 A 
ATOM      2  C   UNL     1       9.538  -0.316  23.660  0.00  0.00    +0.008 A 
ATOM      3  C   UNL     1       9.446  -1.406  24.534  0.00  0.00    +0.046 A 
ATOM      4  C   UNL     1       8.649  -1.323  25.672  0.00  0.00    +0.121 A 
ATOM      5  C   UNL     1       7.991  -0.127  25.957  0.00  0.00    +0.046 A 
ATOM      6  C   UNL     1       8.076   0.958  25.082  0.00  0.00    +0.008 A 
ENDROOT
BRANCH   1  10
ATOM      7  N   UNL     1      10.062   3.980  23.752  0.00  0.00    -0.289 N 
ATOM      8  C   UNL     1       8.792   3.450  23.558  0.00  0.00    +0.226 C 
ATOM      9  O   UNL     1       7.749   4.046  23.787  0.00  0.00    -0.275 OA
ATOM     10  C   UNL     1       8.932   2.054  22.929  0.00  0.00    +0.071 C 
ATOM     11  C   UNL     1       7.854   1.924  21.847  0.00  0.00    +0.026 C 
ATOM     12  C   UNL     1      10.344   2.182  22.312  0.00  0.00    +0.039 C 
ATOM     13  C   UNL     1      11.085   3.075  23.289  0.00  0.00    +0.110 C 
BRANCH   7  14
ATOM     14  C   UNL     1      10.330   5.401  23.981  0.00  0.00    +0.161 C 
ATOM     15  C   UNL     1       9.426   6.353  23.202  0.00  0.00    +0.038 C 
BRANCH  14  16
ATOM     16  C   UNL     1      11.827   5.673  23.738  0.00  0.00    +0.256 C 
ATOM     17  N   UNL     1      12.255   5.526  22.435  0.00  0.00    -0.196 N 
ATOM     18  H   UNL     1      11.760   4.887  21.807  0.00  0.00    +0.182 HD
ATOM     19  O   UNL     1      12.619   5.911  24.653  0.00  0.00    -0.272 OA
BRANCH  17  20
ATOM     20  O   UNL     1      13.654   5.631  22.243  0.00  0.00    -0.295 OA
ATOM     21  H   UNL     1      13.719   6.240  21.475  0.00  0.00    +0.241 HD
ENDBRANCH  17  20
ENDBRANCH  14  16
ENDBRANCH   7  14
ENDBRANCH   1  10
BRANCH   4  22
ATOM     22  O   UNL     1       8.563  -2.459  26.436  0.00  0.00    -0.487 OA
BRANCH  22  23
ATOM     23  C   UNL     1       8.884  -3.663  25.733  0.00  0.00    +0.265 C 
BRANCH  23  24
ATOM     24  C   UNL     1       7.694  -4.591  25.630  0.00  0.00    +0.000 A 
ATOM     25  C   UNL     1       7.096  -4.933  24.393  0.00  0.00    +0.007 A 
ATOM     26  C   UNL     1       5.930  -5.730  24.437  0.00  0.00    +0.072 A 
ATOM     27  C   UNL     1       5.315  -6.081  23.242  0.00  0.00    +0.028 A 
ATOM     28  C   UNL     1       5.805  -5.664  22.001  0.00  0.00    +0.002 A 
ATOM     29  C   UNL     1       6.942  -4.871  21.949  0.00  0.00    +0.001 A 
ATOM     30  N   UNL     1       5.369  -6.145  25.586  0.00  0.00    -0.252 NA
ATOM     31  C   UNL     1       5.940  -5.791  26.757  0.00  0.00    +0.039 A 
ATOM     32  C   UNL     1       5.241  -6.230  28.008  0.00  0.00    +0.065 C 
ATOM     33  C   UNL     1       7.581  -4.508  23.132  0.00  0.00    +0.010 A 
ATOM     34  C   UNL     1       7.099  -5.032  26.818  0.00  0.00    +0.030 A 
ENDBRANCH  23  24
ENDBRANCH  22  23
ENDBRANCH   4  22
TORSDOF 7
ENDMDL
MODEL 6
REMARK VINA RESULT:      -8.6      1.228      1.559
REMARK  Name = 
REMARK  10 active torsions:
REMARK  status: ('A' for Active; 'I' for Inactive)
REMARK    1  A    between atoms: C_2  and  C_3
REMARK    2  A    between atoms: C_2  and  N_4
REMARK    3  A    between atoms: C_2  and  C_30
REMARK    4  A    between atoms: C_7  and  C_8
REMARK    5  A    between atoms: C_7  and  C_11
REMARK    6  A    between atoms: C_14  and  O_15
REMARK    7  A    between atoms: O_15  and  C_16
REMARK    8  A    between atoms: C_16  and  C_17
REMARK    9  A    between atoms: C_19  and  C_20
REMARK   10  A    between atoms: N_32  and  O_33
REMARK                            x       y       z     vdW  Elec       q    Type
REMARK                         _______ _______ _______ _____ _____    ______ ____
ROOT
ATOM      1  C   UNL     1       9.558   0.321  23.537  0.00  0.00    -0.032 A 
ATOM      2  C   UNL     1      10.072  -0.596  22.596  0.00  0.00    +0.008 A 
ATOM      3  C   UNL     1      10.142  -1.966  22.881  0.00  0.00    +0.046 A 
ATOM      4  C   UNL     1       9.684  -2.449  24.104  0.00  0.00    +0.121 A 
ATOM      5  C   UNL     1       9.209  -1.548  25.057  0.00  0.00    +0.046 A 
ATOM      6  C   UNL     1       9.131  -0.183  24.771  0.00  0.00    +0.008 A 
ENDROOT
BRANCH   1  10
ATOM      7  N   UNL     1       7.354   2.809  23.688  0.00  0.00    -0.289 N 
ATOM      8  C   UNL     1       8.091   2.259  22.646  0.00  0.00    +0.226 C 
ATOM      9  O   UNL     1       7.723   2.220  21.480  0.00  0.00    -0.275 OA
ATOM     10  C   UNL     1       9.456   1.809  23.192  0.00  0.00    +0.071 C 
ATOM     11  C   UNL     1      10.519   2.197  22.158  0.00  0.00    +0.026 C 
ATOM     12  C   UNL     1       9.541   2.697  24.455  0.00  0.00    +0.039 C 
ATOM     13  C   UNL     1       8.101   2.801  24.922  0.00  0.00    +0.110 C 
BRANCH   7  14
ATOM     14  C   UNL     1       6.179   3.662  23.499  0.00  0.00    +0.161 C 
ATOM     15  C   UNL     1       5.115   3.084  22.571  0.00  0.00    +0.038 C 
BRANCH  14  16
ATOM     16  C   UNL     1       6.646   5.065  23.064  0.00  0.00    +0.256 C 
ATOM     17  N   UNL     1       7.124   5.160  21.774  0.00  0.00    -0.196 N 
ATOM     18  H   UNL     1       7.538   4.340  21.323  0.00  0.00    +0.182 HD
ATOM     19  O   UNL     1       6.687   6.024  23.839  0.00  0.00    -0.272 OA
BRANCH  17  20
ATOM     20  O   UNL     1       7.687   6.413  21.429  0.00  0.00    -0.295 OA
ATOM     21  H   UNL     1       8.570   6.376  21.857  0.00  0.00    +0.241 HD
ENDBRANCH  17  20
ENDBRANCH  14  16
ENDBRANCH   7  14
ENDBRANCH   1  10
BRANCH   4  22
ATOM     22  O   UNL     1       9.727  -3.809  24.273  0.00  0.00    -0.487 OA
BRANCH  22  23
ATOM     23  C   UNL     1       8.825  -4.303  25.268  0.00  0.00    +0.265 C 
BRANCH  23  24
ATOM     24  C   UNL     1       7.579  -4.900  24.652  0.00  0.00    +0.000 A 
ATOM     25  C   UNL     1       6.546  -5.480  25.426  0.00  0.00    +0.007 A 
ATOM     26  C   UNL     1       5.479  -6.092  24.729  0.00  0.00    +0.072 A 
ATOM     27  C   UNL     1       4.451  -6.674  25.458  0.00  0.00    +0.028 A 
ATOM     28  C   UNL     1       4.441  -6.684  26.855  0.00  0.00    +0.002 A 
ATOM     29  C   UNL     1       5.489  -6.096  27.549  0.00  0.00    +0.001 A 
ATOM     30  N   UNL     1       5.426  -6.162  23.387  0.00  0.00    -0.252 NA
ATOM     31  C   UNL     1       6.431  -5.623  22.665  0.00  0.00    +0.039 A 
ATOM     32  C   UNL     1       6.351  -5.781  21.176  0.00  0.00    +0.065 C 
ATOM     33  C   UNL     1       6.531  -5.501  26.842  0.00  0.00    +0.010 A 
ATOM     34  C   UNL     1       7.508  -4.980  23.255  0.00  0.00    +0.030 A 
ENDBRANCH  23  24
ENDBRANCH  22  23
ENDBRANCH   4  22
TORSDOF 7
ENDMDL
MODEL 7
REMARK VINA RESULT:      -8.6      2.186      3.489
REMARK  Name = 
REMARK  10 active torsions:
REMARK  status: ('A' for Active; 'I' for Inactive)
REMARK    1  A    between atoms: C_2  and  C_3
REMARK    2  A    between atoms: C_2  and  N_4
REMARK    3  A    between atoms: C_2  and  C_30
REMARK    4  A    between atoms: C_7  and  C_8
REMARK    5  A    between atoms: C_7  and  C_11
REMARK    6  A    between atoms: C_14  and  O_15
REMARK    7  A    between atoms: O_15  and  C_16
REMARK    8  A    between atoms: C_16  and  C_17
REMARK    9  A    between atoms: C_19  and  C_20
REMARK   10  A    between atoms: N_32  and  O_33
REMARK                            x       y       z     vdW  Elec       q    Type
REMARK                         _______ _______ _______ _____ _____    ______ ____
ROOT
ATOM      1  C   UNL     1       8.247  -1.241  24.434  0.00  0.00    -0.032 A 
ATOM      2  C   UNL     1       8.411  -2.008  25.607  0.00  0.00    +0.008 A 
ATOM      3  C   UNL     1       7.307  -2.524  26.297  0.00  0.00    +0.046 A 
ATOM      4  C   UNL     1       6.019  -2.299  25.822  0.00  0.00    +0.121 A 
ATOM      5  C   UNL     1       5.841  -1.511  24.685  0.00  0.00    +0.046 A 
ATOM      6  C   UNL     1       6.941  -1.003  23.991  0.00  0.00    +0.008 A 
ENDROOT
BRANCH   1  10
ATOM      7  N   UNL     1       9.588   1.652  23.485  0.00  0.00    -0.289 N 
ATOM      8  C   UNL     1       9.206   0.512  22.788  0.00  0.00    +0.226 C 
ATOM      9  O   UNL     1       8.801   0.506  21.634  0.00  0.00    -0.275 OA
ATOM     10  C   UNL     1       9.468  -0.717  23.674  0.00  0.00    +0.071 C 
ATOM     11  C   UNL     1      10.058  -1.814  22.781  0.00  0.00    +0.026 C 
ATOM     12  C   UNL     1      10.531  -0.131  24.632  0.00  0.00    +0.039 C 
ATOM     13  C   UNL     1      10.119   1.321  24.784  0.00  0.00    +0.110 C 
BRANCH   7  14
ATOM     14  C   UNL     1       9.831   2.952  22.856  0.00  0.00    +0.161 C 
ATOM     15  C   UNL     1      11.060   3.691  23.376  0.00  0.00    +0.038 C 
BRANCH  14  16
ATOM     16  C   UNL     1       8.547   3.799  22.949  0.00  0.00    +0.256 C 
ATOM     17  N   UNL     1       7.630   3.602  21.938  0.00  0.00    -0.196 N 
ATOM     18  H   UNL     1       7.947   3.285  21.018  0.00  0.00    +0.182 HD
ATOM     19  O   UNL     1       8.381   4.667  23.809  0.00  0.00    -0.272 OA
BRANCH  17  20
ATOM     20  O   UNL     1       6.522   4.485  21.946  0.00  0.00    -0.295 OA
ATOM     21  H   UNL     1       6.942   5.354  22.125  0.00  0.00    +0.241 HD
ENDBRANCH  17  20
ENDBRANCH  14  16
ENDBRANCH   7  14
ENDBRANCH   1  10
BRANCH   4  22
ATOM     22  O   UNL     1       5.001  -2.897  26.520  0.00  0.00    -0.487 OA
BRANCH  22  23
ATOM     23  C   UNL     1       5.013  -4.326  26.461  0.00  0.00    +0.265 C 
BRANCH  23  24
ATOM     24  C   UNL     1       4.546  -4.839  25.117  0.00  0.00    +0.000 A 
ATOM     25  C   UNL     1       5.442  -5.173  24.073  0.00  0.00    +0.007 A 
ATOM     26  C   UNL     1       4.879  -5.547  22.832  0.00  0.00    +0.072 A 
ATOM     27  C   UNL     1       5.729  -5.877  21.785  0.00  0.00    +0.028 A 
ATOM     28  C   UNL     1       7.120  -5.841  21.914  0.00  0.00    +0.002 A 
ATOM     29  C   UNL     1       7.682  -5.464  23.126  0.00  0.00    +0.001 A 
ATOM     30  N   UNL     1       3.553  -5.573  22.606  0.00  0.00    -0.252 NA
ATOM     31  C   UNL     1       2.714  -5.230  23.606  0.00  0.00    +0.039 A 
ATOM     32  C   UNL     1       1.251  -5.218  23.284  0.00  0.00    +0.065 C 
ATOM     33  C   UNL     1       6.852  -5.132  24.194  0.00  0.00    +0.010 A 
ATOM     34  C   UNL     1       3.168  -4.872  24.867  0.00  0.00    +0.030 A 
ENDBRANCH  23  24
ENDBRANCH  22  23
ENDBRANCH   4  22
TORSDOF 7
ENDMDL
MODEL 8
REMARK VINA RESULT:      -8.6      3.179      8.719
REMARK  Name = 
REMARK  10 active torsions:
REMARK  status: ('A' for Active; 'I' for Inactive)
REMARK    1  A    between atoms: C_2  and  C_3
REMARK    2  A    between atoms: C_2  and  N_4
REMARK    3  A    between atoms: C_2  and  C_30
REMARK    4  A    between atoms: C_7  and  C_8
REMARK    5  A    between atoms: C_7  and  C_11
REMARK    6  A    between atoms: C_14  and  O_15
REMARK    7  A    between atoms: O_15  and  C_16
REMARK    8  A    between atoms: C_16  and  C_17
REMARK    9  A    between atoms: C_19  and  C_20
REMARK   10  A    between atoms: N_32  and  O_33
REMARK                            x       y       z     vdW  Elec       q    Type
REMARK                         _______ _______ _______ _____ _____    ______ ____
ROOT
ATOM      1  C   UNL     1       5.459  -4.293  23.745  0.00  0.00    -0.032 A 
ATOM      2  C   UNL     1       6.728  -4.788  24.114  0.00  0.00    +0.008 A 
ATOM      3  C   UNL     1       7.905  -4.182  23.656  0.00  0.00    +0.046 A 
ATOM      4  C   UNL     1       7.839  -3.061  22.834  0.00  0.00    +0.121 A 
ATOM      5  C   UNL     1       6.591  -2.585  22.431  0.00  0.00    +0.046 A 
ATOM      6  C   UNL     1       5.417  -3.183  22.894  0.00  0.00    +0.008 A 
ENDROOT
BRANCH   1  10
ATOM      7  N   UNL     1       4.109  -5.180  26.654  0.00  0.00    -0.289 N 
ATOM      8  C   UNL     1       4.394  -5.882  25.490  0.00  0.00    +0.226 C 
ATOM      9  O   UNL     1       4.686  -7.069  25.448  0.00  0.00    -0.275 OA
ATOM     10  C   UNL     1       4.186  -4.947  24.287  0.00  0.00    +0.071 C 
ATOM     11  C   UNL     1       3.485  -5.755  23.188  0.00  0.00    +0.026 C 
ATOM     12  C   UNL     1       3.234  -3.907  24.922  0.00  0.00    +0.039 C 
ATOM     13  C   UNL     1       3.696  -3.829  26.365  0.00  0.00    +0.110 C 
BRANCH   7  14
ATOM     14  C   UNL     1       3.841  -5.813  27.947  0.00  0.00    +0.161 C 
ATOM     15  C   UNL     1       2.870  -5.048  28.841  0.00  0.00    +0.038 C 
BRANCH  14  16
ATOM     16  C   UNL     1       5.182  -6.109  28.645  0.00  0.00    +0.256 C 
ATOM     17  N   UNL     1       5.640  -7.405  28.530  0.00  0.00    -0.196 N 
ATOM     18  H   UNL     1       4.973  -8.170  28.396  0.00  0.00    +0.182 HD
ATOM     19  O   UNL     1       5.768  -5.279  29.345  0.00  0.00    -0.272 OA
BRANCH  17  20
ATOM     20  O   UNL     1       6.793  -7.710  29.293  0.00  0.00    -0.295 OA
ATOM     21  H   UNL     1       6.877  -8.681  29.175  0.00  0.00    +0.241 HD
ENDBRANCH  17  20
ENDBRANCH  14  16
ENDBRANCH   7  14
ENDBRANCH   1  10
BRANCH   4  22
ATOM     22  O   UNL     1       9.037  -2.491  22.487  0.00  0.00    -0.487 OA
BRANCH  22  23
ATOM     23  C   UNL     1       9.869  -2.156  23.602  0.00  0.00    +0.265 C 
BRANCH  23  24
ATOM     24  C   UNL     1       9.592  -0.760  24.113  0.00  0.00    +0.000 A 
ATOM     25  C   UNL     1       8.630  -0.490  25.116  0.00  0.00    +0.007 A 
ATOM     26  C   UNL     1       8.394   0.866  25.438  0.00  0.00    +0.072 A 
ATOM     27  C   UNL     1       7.453   1.167  26.414  0.00  0.00    +0.028 A 
ATOM     28  C   UNL     1       6.728   0.176  27.081  0.00  0.00    +0.002 A 
ATOM     29  C   UNL     1       6.945  -1.157  26.763  0.00  0.00    +0.001 A 
ATOM     30  N   UNL     1       9.019   1.885  24.821  0.00  0.00    -0.252 NA
ATOM     31  C   UNL     1       9.916   1.610  23.852  0.00  0.00    +0.039 A 
ATOM     32  C   UNL     1      10.539   2.783  23.157  0.00  0.00    +0.065 C 
ATOM     33  C   UNL     1       7.885  -1.487  25.791  0.00  0.00    +0.010 A 
ATOM     34  C   UNL     1      10.235   0.312  23.481  0.00  0.00    +0.030 A 
ENDBRANCH  23  24
ENDBRANCH  22  23
ENDBRANCH   4  22
TORSDOF 7
ENDMDL
MODEL 9
REMARK VINA RESULT:      -8.6      1.222      1.848
REMARK  Name = 
REMARK  10 active torsions:
REMARK  status: ('A' for Active; 'I' for Inactive)
REMARK    1  A    between atoms: C_2  and  C_3
REMARK    2  A    between atoms: C_2  and  N_4
REMARK    3  A    between atoms: C_2  and  C_30
REMARK    4  A    between atoms: C_7  and  C_8
REMARK    5  A    between atoms: C_7  and  C_11
REMARK    6  A    between atoms: C_14  and  O_15
REMARK    7  A    between atoms: O_15  and  C_16
REMARK    8  A    between atoms: C_16  and  C_17
REMARK    9  A    between atoms: C_19  and  C_20
REMARK   10  A    between atoms: N_32  and  O_33
REMARK                            x       y       z     vdW  Elec       q    Type
REMARK                         _______ _______ _______ _____ _____    ______ ____
ROOT
ATOM      1  C   UNL     1       8.894   0.381  23.334  0.00  0.00    -0.032 A 
ATOM      2  C   UNL     1       7.858   0.189  24.274  0.00  0.00    +0.008 A 
ATOM      3  C   UNL     1       7.821  -0.949  25.089  0.00  0.00    +0.046 A 
ATOM      4  C   UNL     1       8.824  -1.909  24.996  0.00  0.00    +0.121 A 
ATOM      5  C   UNL     1       9.831  -1.750  24.045  0.00  0.00    +0.046 A 
ATOM      6  C   UNL     1       9.876  -0.612  23.237  0.00  0.00    +0.008 A 
ENDROOT
BRANCH   1  10
ATOM      7  N   UNL     1       9.242   3.670  23.698  0.00  0.00    -0.289 N 
ATOM      8  C   UNL     1       8.264   2.882  23.104  0.00  0.00    +0.226 C 
ATOM      9  O   UNL     1       7.079   3.178  23.037  0.00  0.00    -0.275 OA
ATOM     10  C   UNL     1       8.938   1.649  22.478  0.00  0.00    +0.071 C 
ATOM     11  C   UNL     1       8.279   1.404  21.116  0.00  0.00    +0.026 C 
ATOM     12  C   UNL     1      10.380   2.186  22.323  0.00  0.00    +0.039 C 
ATOM     13  C   UNL     1      10.555   3.101  23.521  0.00  0.00    +0.110 C 
BRANCH   7  14
ATOM     14  C   UNL     1       9.049   5.074  24.068  0.00  0.00    +0.161 C 
ATOM     15  C   UNL     1      10.188   6.002  23.657  0.00  0.00    +0.038 C 
BRANCH  14  16
ATOM     16  C   UNL     1       8.730   5.155  25.573  0.00  0.00    +0.256 C 
ATOM     17  N   UNL     1       7.833   4.219  26.042  0.00  0.00    -0.196 N 
ATOM     18  H   UNL     1       7.132   3.824  25.410  0.00  0.00    +0.182 HD
ATOM     19  O   UNL     1       9.166   6.051  26.300  0.00  0.00    -0.272 OA
BRANCH  17  20
ATOM     20  O   UNL     1       7.432   4.388  27.390  0.00  0.00    -0.295 OA
ATOM     21  H   UNL     1       8.188   4.880  27.778  0.00  0.00    +0.241 HD
ENDBRANCH  17  20
ENDBRANCH  14  16
ENDBRANCH   7  14
ENDBRANCH   1  10
BRANCH   4  22
ATOM     22  O   UNL     1       8.745  -2.956  25.878  0.00  0.00    -0.487 OA
BRANCH  22  23
ATOM     23  C   UNL     1       8.975  -4.238  25.285  0.00  0.00    +0.265 C 
BRANCH  23  24
ATOM     24  C   UNL     1       7.708  -4.827  24.706  0.00  0.00    +0.000 A 
ATOM     25  C   UNL     1       6.699  -5.409  25.510  0.00  0.00    +0.007 A 
ATOM     26  C   UNL     1       5.608  -6.013  24.844  0.00  0.00    +0.072 A 
ATOM     27  C   UNL     1       4.602  -6.597  25.603  0.00  0.00    +0.028 A 
ATOM     28  C   UNL     1       4.638  -6.618  26.999  0.00  0.00    +0.002 A 
ATOM     29  C   UNL     1       5.711  -6.038  27.662  0.00  0.00    +0.001 A 
ATOM     30  N   UNL     1       5.510  -6.073  23.504  0.00  0.00    -0.252 NA
ATOM     31  C   UNL     1       6.492  -5.532  22.752  0.00  0.00    +0.039 A 
ATOM     32  C   UNL     1       6.362  -5.678  21.267  0.00  0.00    +0.065 C 
ATOM     33  C   UNL     1       6.731  -5.441  26.926  0.00  0.00    +0.010 A 
ATOM     34  C   UNL     1       7.591  -4.896  23.312  0.00  0.00    +0.030 A 
ENDBRANCH  23  24
ENDBRANCH  22  23
ENDBRANCH   4  22
TORSDOF 7
ENDMDL
