MODEL 1
REMARK VINA RESULT:      -6.6      0.000      0.000
REMARK  Name = 
REMARK  8 active torsions:
REMARK  status: ('A' for Active; 'I' for Inactive)
REMARK    1  A    between atoms: C_2  and  S_3
REMARK    2  A    between atoms: C_2  and  N_4
REMARK    3  A    between atoms: C_2  and  C_19
REMARK    4  A    between atoms: N_4  and  C_5
REMARK    5  A    between atoms: C_7  and  C_15
REMARK    6  A    between atoms: C_9  and  C_11
REMARK    7  A    between atoms: C_19  and  C_21
REMARK    8  A    between atoms: C_19  and  C_23
REMARK                            x       y       z     vdW  Elec       q    Type
REMARK                         _______ _______ _______ _____ _____    ______ ____
ROOT
ATOM      1  C   UNL     1       7.715  -2.320  23.182  0.00  0.00    +0.029 A 
ATOM      2  C   UNL     1       8.353  -2.835  24.317  0.00  0.00    +0.035 A 
ATOM      3  C   UNL     1       8.299  -4.204  24.631  0.00  0.00    +0.057 A 
ATOM      4  C   UNL     1       7.604  -5.070  23.776  0.00  0.00    +0.024 A 
ATOM      5  C   UNL     1       6.990  -4.586  22.614  0.00  0.00    +0.057 A 
ATOM      6  C   UNL     1       7.075  -3.216  22.320  0.00  0.00    +0.035 A 
ENDROOT
BRANCH   3   7
ATOM      7  C   UNL     1       8.978  -4.711  25.882  0.00  0.00    +0.417 C 
ATOM      8  F   UNL     1       8.285  -5.724  26.471  0.00  0.00    -0.166 F 
ATOM      9  F   UNL     1       9.111  -3.743  26.830  0.00  0.00    -0.166 F 
ATOM     10  F   UNL     1      10.231  -5.195  25.660  0.00  0.00    -0.166 F 
ENDBRANCH   3   7
BRANCH   5  11
ATOM     11  C   UNL     1       6.236  -5.523  21.700  0.00  0.00    +0.417 C 
ATOM     12  F   UNL     1       4.954  -5.719  22.113  0.00  0.00    -0.166 F 
ATOM     13  F   UNL     1       6.804  -6.756  21.629  0.00  0.00    -0.166 F 
ATOM     14  F   UNL     1       6.146  -5.072  20.418  0.00  0.00    -0.166 F 
ENDBRANCH   5  11
BRANCH   1  15
ATOM     15  N   UNL     1       7.772  -0.952  22.929  0.00  0.00    -0.331 N 
ATOM     16  H   UNL     1       8.365  -0.695  22.142  0.00  0.00    +0.147 HD
BRANCH  15  17
ATOM     17  C   UNL     1       7.842   0.009  24.042  0.00  0.00    +0.151 C 
BRANCH  17  18
ATOM     18  S   UNL     1       6.092   0.380  24.483  0.00  0.00    -0.154 S 
ATOM     19  H   UNL     1       6.241   1.691  24.723  0.00  0.00    +0.104 HD
ENDBRANCH  17  18
BRANCH  17  20
ATOM     20  C   UNL     1       8.688   1.247  23.691  0.00  0.00    +0.207 C 
BRANCH  20  21
ATOM     21  C   UNL     1       8.627   1.591  22.212  0.00  0.00    +0.230 C 
ATOM     22  O   UNL     1       7.568   1.740  21.608  0.00  0.00    -0.275 OA
ATOM     23  N   UNL     1       9.800   1.875  21.571  0.00  0.00    -0.328 N 
ATOM     24  H   UNL     1       9.742   2.065  20.577  0.00  0.00    +0.145 HD
ATOM     25  H   UNL     1      10.722   1.654  21.930  0.00  0.00    +0.145 HD
ENDBRANCH  20  21
BRANCH  20  26
ATOM     26  C   UNL     1      10.133   1.048  24.120  0.00  0.00    +0.078 C 
ATOM     27  N   UNL     1      11.331   0.881  24.477  0.00  0.00    -0.196 NA
ENDBRANCH  20  26
ENDBRANCH  17  20
ENDBRANCH  15  17
ENDBRANCH   1  15
TORSDOF 8
ENDMDL
MODEL 2
REMARK VINA RESULT:      -6.5      0.264      3.670
REMARK  Name = 
REMARK  8 active torsions:
REMARK  status: ('A' for Active; 'I' for Inactive)
REMARK    1  A    between atoms: C_2  and  S_3
REMARK    2  A    between atoms: C_2  and  N_4
REMARK    3  A    between atoms: C_2  and  C_19
REMARK    4  A    between atoms: N_4  and  C_5
REMARK    5  A    between atoms: C_7  and  C_15
REMARK    6  A    between atoms: C_9  and  C_11
REMARK    7  A    between atoms: C_19  and  C_21
REMARK    8  A    between atoms: C_19  and  C_23
REMARK                            x       y       z     vdW  Elec       q    Type
REMARK                         _______ _______ _______ _____ _____    ______ ____
ROOT
ATOM      1  C   UNL     1       7.649  -2.149  23.210  0.00  0.00    +0.029 A 
ATOM      2  C   UNL     1       7.008  -3.012  22.314  0.00  0.00    +0.035 A 
ATOM      3  C   UNL     1       7.015  -4.405  22.503  0.00  0.00    +0.057 A 
ATOM      4  C   UNL     1       7.666  -4.934  23.625  0.00  0.00    +0.024 A 
ATOM      5  C   UNL     1       8.283  -4.090  24.558  0.00  0.00    +0.057 A 
ATOM      6  C   UNL     1       8.244  -2.703  24.349  0.00  0.00    +0.035 A 
ENDROOT
BRANCH   3   7
ATOM      7  C   UNL     1       6.335  -5.299  21.494  0.00  0.00    +0.417 C 
ATOM      8  F   UNL     1       7.142  -6.311  21.073  0.00  0.00    -0.166 F 
ATOM      9  F   UNL     1       5.957  -4.626  20.372  0.00  0.00    -0.166 F 
ATOM     10  F   UNL     1       5.207  -5.895  21.971  0.00  0.00    -0.166 F 
ENDBRANCH   3   7
BRANCH   5  11
ATOM     11  C   UNL     1       8.989  -4.667  25.763  0.00  0.00    +0.417 C 
ATOM     12  F   UNL     1       8.324  -5.734  26.283  0.00  0.00    -0.166 F 
ATOM     13  F   UNL     1       9.116  -3.769  26.775  0.00  0.00    -0.166 F 
ATOM     14  F   UNL     1      10.247  -5.112  25.490  0.00  0.00    -0.166 F 
ENDBRANCH   5  11
BRANCH   1  15
ATOM     15  N   UNL     1       7.639  -0.779  22.964  0.00  0.00    -0.331 N 
ATOM     16  H   UNL     1       8.153  -0.498  22.131  0.00  0.00    +0.147 HD
BRANCH  15  17
ATOM     17  C   UNL     1       7.774   0.178  24.074  0.00  0.00    +0.151 C 
BRANCH  17  18
ATOM     18  S   UNL     1       6.051   0.629  24.548  0.00  0.00    -0.154 S 
ATOM     19  H   UNL     1       5.726  -0.521  25.157  0.00  0.00    +0.104 HD
ENDBRANCH  17  18
BRANCH  17  20
ATOM     20  C   UNL     1       8.670   1.375  23.707  0.00  0.00    +0.207 C 
BRANCH  20  21
ATOM     21  C   UNL     1       8.626   1.698  22.223  0.00  0.00    +0.230 C 
ATOM     22  O   UNL     1       7.576   1.878  21.612  0.00  0.00    -0.275 OA
ATOM     23  N   UNL     1       9.812   1.926  21.581  0.00  0.00    -0.328 N 
ATOM     24  H   UNL     1       9.764   2.102  20.584  0.00  0.00    +0.145 HD
ATOM     25  H   UNL     1      10.723   1.675  21.947  0.00  0.00    +0.145 HD
ENDBRANCH  20  21
BRANCH  20  26
ATOM     26  C   UNL     1      10.104   1.126  24.144  0.00  0.00    +0.078 C 
ATOM     27  N   UNL     1      11.294   0.920  24.506  0.00  0.00    -0.196 NA
ENDBRANCH  20  26
ENDBRANCH  17  20
ENDBRANCH  15  17
ENDBRANCH   1  15
TORSDOF 8
ENDMDL
MODEL 3
REMARK VINA RESULT:      -6.2      1.739      4.359
REMARK  Name = 
REMARK  8 active torsions:
REMARK  status: ('A' for Active; 'I' for Inactive)
REMARK    1  A    between atoms: C_2  and  S_3
REMARK    2  A    between atoms: C_2  and  N_4
REMARK    3  A    between atoms: C_2  and  C_19
REMARK    4  A    between atoms: N_4  and  C_5
REMARK    5  A    between atoms: C_7  and  C_15
REMARK    6  A    between atoms: C_9  and  C_11
REMARK    7  A    between atoms: C_19  and  C_21
REMARK    8  A    between atoms: C_19  and  C_23
REMARK                            x       y       z     vdW  Elec       q    Type
REMARK                         _______ _______ _______ _____ _____    ______ ____
ROOT
ATOM      1  C   UNL     1       8.564  -2.162  23.198  0.00  0.00    +0.029 A 
ATOM      2  C   UNL     1       7.714  -2.855  22.328  0.00  0.00    +0.035 A 
ATOM      3  C   UNL     1       7.337  -4.186  22.576  0.00  0.00    +0.057 A 
ATOM      4  C   UNL     1       7.812  -4.823  23.730  0.00  0.00    +0.024 A 
ATOM      5  C   UNL     1       8.633  -4.139  24.637  0.00  0.00    +0.057 A 
ATOM      6  C   UNL     1       8.978  -2.805  24.369  0.00  0.00    +0.035 A 
ENDROOT
BRANCH   3   7
ATOM      7  C   UNL     1       6.442  -4.904  21.594  0.00  0.00    +0.417 C 
ATOM      8  F   UNL     1       5.930  -4.065  20.652  0.00  0.00    -0.166 F 
ATOM      9  F   UNL     1       5.371  -5.491  22.197  0.00  0.00    -0.166 F 
ATOM     10  F   UNL     1       7.075  -5.894  20.907  0.00  0.00    -0.166 F 
ENDBRANCH   3   7
BRANCH   5  11
ATOM     11  C   UNL     1       9.148  -4.832  25.876  0.00  0.00    +0.417 C 
ATOM     12  F   UNL     1      10.414  -5.302  25.710  0.00  0.00    -0.166 F 
ATOM     13  F   UNL     1       8.389  -5.903  26.231  0.00  0.00    -0.166 F 
ATOM     14  F   UNL     1       9.195  -4.022  26.970  0.00  0.00    -0.166 F 
ENDBRANCH   5  11
BRANCH   1  15
ATOM     15  N   UNL     1       8.932  -0.854  22.894  0.00  0.00    -0.331 N 
ATOM     16  H   UNL     1       9.754  -0.522  23.396  0.00  0.00    +0.147 HD
BRANCH  15  17
ATOM     17  C   UNL     1       7.907   0.186  22.714  0.00  0.00    +0.151 C 
BRANCH  17  18
ATOM     18  S   UNL     1       8.589   1.337  21.448  0.00  0.00    -0.154 S 
ATOM     19  H   UNL     1       9.015   0.412  20.576  0.00  0.00    +0.104 HD
ENDBRANCH  17  18
BRANCH  17  20
ATOM     20  C   UNL     1       7.518   0.857  24.045  0.00  0.00    +0.207 C 
BRANCH  20  21
ATOM     21  C   UNL     1       8.658   0.858  25.049  0.00  0.00    +0.230 C 
ATOM     22  O   UNL     1       9.759   1.345  24.805  0.00  0.00    -0.275 OA
ATOM     23  N   UNL     1       8.396   0.416  26.316  0.00  0.00    -0.328 N 
ATOM     24  H   UNL     1       9.179   0.389  26.960  0.00  0.00    +0.145 HD
ATOM     25  H   UNL     1       7.580  -0.124  26.581  0.00  0.00    +0.145 HD
ENDBRANCH  20  21
BRANCH  20  26
ATOM     26  C   UNL     1       6.294   0.187  24.646  0.00  0.00    +0.078 C 
ATOM     27  N   UNL     1       5.279  -0.370  25.146  0.00  0.00    -0.196 NA
ENDBRANCH  20  26
ENDBRANCH  17  20
ENDBRANCH  15  17
ENDBRANCH   1  15
TORSDOF 8
ENDMDL
MODEL 4
REMARK VINA RESULT:      -6.2      1.355      4.041
REMARK  Name = 
REMARK  8 active torsions:
REMARK  status: ('A' for Active; 'I' for Inactive)
REMARK    1  A    between atoms: C_2  and  S_3
REMARK    2  A    between atoms: C_2  and  N_4
REMARK    3  A    between atoms: C_2  and  C_19
REMARK    4  A    between atoms: N_4  and  C_5
REMARK    5  A    between atoms: C_7  and  C_15
REMARK    6  A    between atoms: C_9  and  C_11
REMARK    7  A    between atoms: C_19  and  C_21
REMARK    8  A    between atoms: C_19  and  C_23
REMARK                            x       y       z     vdW  Elec       q    Type
REMARK                         _______ _______ _______ _____ _____    ______ ____
ROOT
ATOM      1  C   UNL     1       6.728  -2.012  23.287  0.00  0.00    +0.029 A 
ATOM      2  C   UNL     1       6.335  -3.067  22.455  0.00  0.00    +0.035 A 
ATOM      3  C   UNL     1       6.646  -4.403  22.767  0.00  0.00    +0.057 A 
ATOM      4  C   UNL     1       7.351  -4.678  23.946  0.00  0.00    +0.024 A 
ATOM      5  C   UNL     1       7.722  -3.643  24.816  0.00  0.00    +0.057 A 
ATOM      6  C   UNL     1       7.382  -2.322  24.484  0.00  0.00    +0.035 A 
ENDROOT
BRANCH   3   7
ATOM      7  C   UNL     1       6.227  -5.506  21.825  0.00  0.00    +0.417 C 
ATOM      8  F   UNL     1       6.151  -5.082  20.534  0.00  0.00    -0.166 F 
ATOM      9  F   UNL     1       5.001  -6.013  22.128  0.00  0.00    -0.166 F 
ATOM     10  F   UNL     1       7.081  -6.567  21.819  0.00  0.00    -0.166 F 
ENDBRANCH   3   7
BRANCH   5  11
ATOM     11  C   UNL     1       8.488  -3.945  26.082  0.00  0.00    +0.417 C 
ATOM     12  F   UNL     1       9.623  -4.654  25.836  0.00  0.00    -0.166 F 
ATOM     13  F   UNL     1       7.766  -4.682  26.968  0.00  0.00    -0.166 F 
ATOM     14  F   UNL     1       8.886  -2.829  26.753  0.00  0.00    -0.166 F 
ENDBRANCH   5  11
BRANCH   1  15
ATOM     15  N   UNL     1       6.422  -0.704  22.921  0.00  0.00    -0.331 N 
ATOM     16  H   UNL     1       6.000  -0.614  21.999  0.00  0.00    +0.147 HD
BRANCH  15  17
ATOM     17  C   UNL     1       7.346   0.395  23.242  0.00  0.00    +0.151 C 
BRANCH  17  18
ATOM     18  S   UNL     1       6.455   1.448  24.462  0.00  0.00    -0.154 S 
ATOM     19  H   UNL     1       6.477   2.592  23.762  0.00  0.00    +0.104 HD
ENDBRANCH  17  18
BRANCH  17  20
ATOM     20  C   UNL     1       7.825   1.141  21.982  0.00  0.00    +0.207 C 
BRANCH  20  21
ATOM     21  C   UNL     1       9.316   0.974  21.741  0.00  0.00    +0.230 C 
ATOM     22  O   UNL     1       9.833  -0.114  21.502  0.00  0.00    -0.275 OA
ATOM     23  N   UNL     1      10.081   2.103  21.658  0.00  0.00    -0.328 N 
ATOM     24  H   UNL     1      11.079   1.970  21.534  0.00  0.00    +0.145 HD
ATOM     25  H   UNL     1       9.789   3.023  21.969  0.00  0.00    +0.145 HD
ENDBRANCH  20  21
BRANCH  20  26
ATOM     26  C   UNL     1       7.472   2.617  22.066  0.00  0.00    +0.078 C 
ATOM     27  N   UNL     1       7.179   3.841  22.134  0.00  0.00    -0.196 NA
ENDBRANCH  20  26
ENDBRANCH  17  20
ENDBRANCH  15  17
ENDBRANCH   1  15
TORSDOF 8
ENDMDL
MODEL 5
REMARK VINA RESULT:      -6.1      1.263      1.908
REMARK  Name = 
REMARK  8 active torsions:
REMARK  status: ('A' for Active; 'I' for Inactive)
REMARK    1  A    between atoms: C_2  and  S_3
REMARK    2  A    between atoms: C_2  and  N_4
REMARK    3  A    between atoms: C_2  and  C_19
REMARK    4  A    between atoms: N_4  and  C_5
REMARK    5  A    between atoms: C_7  and  C_15
REMARK    6  A    between atoms: C_9  and  C_11
REMARK    7  A    between atoms: C_19  and  C_21
REMARK    8  A    between atoms: C_19  and  C_23
REMARK                            x       y       z     vdW  Elec       q    Type
REMARK                         _______ _______ _______ _____ _____    ______ ____
ROOT
ATOM      1  C   UNL     1       7.894  -2.541  22.969  0.00  0.00    +0.029 A 
ATOM      2  C   UNL     1       8.507  -2.986  24.146  0.00  0.00    +0.035 A 
ATOM      3  C   UNL     1       8.384  -4.316  24.582  0.00  0.00    +0.057 A 
ATOM      4  C   UNL     1       7.642  -5.218  23.807  0.00  0.00    +0.024 A 
ATOM      5  C   UNL     1       7.050  -4.809  22.605  0.00  0.00    +0.057 A 
ATOM      6  C   UNL     1       7.206  -3.477  22.189  0.00  0.00    +0.035 A 
ENDROOT
BRANCH   3   7
ATOM      7  C   UNL     1       9.038  -4.743  25.874  0.00  0.00    +0.417 C 
ATOM      8  F   UNL     1       8.369  -5.762  26.480  0.00  0.00    -0.166 F 
ATOM      9  F   UNL     1       9.097  -3.735  26.787  0.00  0.00    -0.166 F 
ATOM     10  F   UNL     1      10.318  -5.180  25.714  0.00  0.00    -0.166 F 
ENDBRANCH   3   7
BRANCH   5  11
ATOM     11  C   UNL     1       6.245  -5.783  21.777  0.00  0.00    +0.417 C 
ATOM     12  F   UNL     1       6.277  -5.475  20.451  0.00  0.00    -0.166 F 
ATOM     13  F   UNL     1       4.932  -5.811  22.129  0.00  0.00    -0.166 F 
ATOM     14  F   UNL     1       6.690  -7.067  21.869  0.00  0.00    -0.166 F 
ENDBRANCH   5  11
BRANCH   1  15
ATOM     15  N   UNL     1       8.022  -1.207  22.595  0.00  0.00    -0.331 N 
ATOM     16  H   UNL     1       8.363  -1.068  21.646  0.00  0.00    +0.147 HD
BRANCH  15  17
ATOM     17  C   UNL     1       8.543  -0.212  23.546  0.00  0.00    +0.151 C 
BRANCH  17  18
ATOM     18  S   UNL     1       7.069   0.433  24.443  0.00  0.00    -0.154 S 
ATOM     19  H   UNL     1       7.455   1.714  24.526  0.00  0.00    +0.104 HD
ENDBRANCH  17  18
BRANCH  17  20
ATOM     20  C   UNL     1       9.393   0.868  22.853  0.00  0.00    +0.207 C 
BRANCH  20  21
ATOM     21  C   UNL     1      10.445   1.460  23.776  0.00  0.00    +0.230 C 
ATOM     22  O   UNL     1      11.098   0.779  24.562  0.00  0.00    -0.275 OA
ATOM     23  N   UNL     1      10.762   2.780  23.623  0.00  0.00    -0.328 N 
ATOM     24  H   UNL     1      11.438   3.165  24.273  0.00  0.00    +0.145 HD
ATOM     25  H   UNL     1      10.202   3.453  23.112  0.00  0.00    +0.145 HD
ENDBRANCH  20  21
BRANCH  20  26
ATOM     26  C   UNL     1       8.508   1.971  22.296  0.00  0.00    +0.078 C 
ATOM     27  N   UNL     1       7.776   2.887  21.832  0.00  0.00    -0.196 NA
ENDBRANCH  20  26
ENDBRANCH  17  20
ENDBRANCH  15  17
ENDBRANCH   1  15
TORSDOF 8
ENDMDL
MODEL 6
REMARK VINA RESULT:      -6.1      1.399      2.113
REMARK  Name = 
REMARK  8 active torsions:
REMARK  status: ('A' for Active; 'I' for Inactive)
REMARK    1  A    between atoms: C_2  and  S_3
REMARK    2  A    between atoms: C_2  and  N_4
REMARK    3  A    between atoms: C_2  and  C_19
REMARK    4  A    between atoms: N_4  and  C_5
REMARK    5  A    between atoms: C_7  and  C_15
REMARK    6  A    between atoms: C_9  and  C_11
REMARK    7  A    between atoms: C_19  and  C_21
REMARK    8  A    between atoms: C_19  and  C_23
REMARK                            x       y       z     vdW  Elec       q    Type
REMARK                         _______ _______ _______ _____ _____    ______ ____
ROOT
ATOM      1  C   UNL     1       8.215  -2.242  23.133  0.00  0.00    +0.029 A 
ATOM      2  C   UNL     1       8.810  -2.854  24.242  0.00  0.00    +0.035 A 
ATOM      3  C   UNL     1       8.568  -4.203  24.554  0.00  0.00    +0.057 A 
ATOM      4  C   UNL     1       7.723  -4.951  23.722  0.00  0.00    +0.024 A 
ATOM      5  C   UNL     1       7.145  -4.373  22.584  0.00  0.00    +0.057 A 
ATOM      6  C   UNL     1       7.420  -3.028  22.291  0.00  0.00    +0.035 A 
ENDROOT
BRANCH   3   7
ATOM      7  C   UNL     1       9.209  -4.814  25.777  0.00  0.00    +0.417 C 
ATOM      8  F   UNL     1      10.508  -5.159  25.562  0.00  0.00    -0.166 F 
ATOM      9  F   UNL     1       8.579  -5.950  26.183  0.00  0.00    -0.166 F 
ATOM     10  F   UNL     1       9.217  -3.983  26.856  0.00  0.00    -0.166 F 
ENDBRANCH   3   7
BRANCH   5  11
ATOM     11  C   UNL     1       6.230  -5.182  21.695  0.00  0.00    +0.417 C 
ATOM     12  F   UNL     1       6.675  -6.457  21.530  0.00  0.00    -0.166 F 
ATOM     13  F   UNL     1       6.114  -4.656  20.446  0.00  0.00    -0.166 F 
ATOM     14  F   UNL     1       4.963  -5.291  22.180  0.00  0.00    -0.166 F 
ENDBRANCH   5  11
BRANCH   1  15
ATOM     15  N   UNL     1       8.462  -0.895  22.882  0.00  0.00    -0.331 N 
ATOM     16  H   UNL     1       9.449  -0.656  22.809  0.00  0.00    +0.147 HD
BRANCH  15  17
ATOM     17  C   UNL     1       7.664   0.146  23.550  0.00  0.00    +0.151 C 
BRANCH  17  18
ATOM     18  S   UNL     1       7.086   1.263  22.204  0.00  0.00    -0.154 S 
ATOM     19  H   UNL     1       7.334   0.444  21.171  0.00  0.00    +0.104 HD
ENDBRANCH  17  18
BRANCH  17  20
ATOM     20  C   UNL     1       8.448   0.850  24.673  0.00  0.00    +0.207 C 
BRANCH  20  21
ATOM     21  C   UNL     1       9.935   0.939  24.375  0.00  0.00    +0.230 C 
ATOM     22  O   UNL     1      10.383   1.539  23.402  0.00  0.00    -0.275 OA
ATOM     23  N   UNL     1      10.805   0.442  25.305  0.00  0.00    -0.328 N 
ATOM     24  H   UNL     1      11.791   0.476  25.070  0.00  0.00    +0.145 HD
ATOM     25  H   UNL     1      10.548  -0.182  26.061  0.00  0.00    +0.145 HD
ENDBRANCH  20  21
BRANCH  20  26
ATOM     26  C   UNL     1       8.223   0.151  26.004  0.00  0.00    +0.078 C 
ATOM     27  N   UNL     1       8.035  -0.428  27.108  0.00  0.00    -0.196 NA
ENDBRANCH  20  26
ENDBRANCH  17  20
ENDBRANCH  15  17
ENDBRANCH   1  15
TORSDOF 8
ENDMDL
MODEL 7
REMARK VINA RESULT:      -6.0      4.653      6.814
REMARK  Name = 
REMARK  8 active torsions:
REMARK  status: ('A' for Active; 'I' for Inactive)
REMARK    1  A    between atoms: C_2  and  S_3
REMARK    2  A    between atoms: C_2  and  N_4
REMARK    3  A    between atoms: C_2  and  C_19
REMARK    4  A    between atoms: N_4  and  C_5
REMARK    5  A    between atoms: C_7  and  C_15
REMARK    6  A    between atoms: C_9  and  C_11
REMARK    7  A    between atoms: C_19  and  C_21
REMARK    8  A    between atoms: C_19  and  C_23
REMARK                            x       y       z     vdW  Elec       q    Type
REMARK                         _______ _______ _______ _____ _____    ______ ____
ROOT
ATOM      1  C   UNL     1       8.684  -0.390  25.380  0.00  0.00    +0.029 A 
ATOM      2  C   UNL     1       8.177   0.792  25.932  0.00  0.00    +0.035 A 
ATOM      3  C   UNL     1       8.137   1.989  25.196  0.00  0.00    +0.057 A 
ATOM      4  C   UNL     1       8.601   1.987  23.874  0.00  0.00    +0.024 A 
ATOM      5  C   UNL     1       9.078   0.809  23.284  0.00  0.00    +0.057 A 
ATOM      6  C   UNL     1       9.089  -0.373  24.041  0.00  0.00    +0.035 A 
ENDROOT
BRANCH   3   7
ATOM      7  C   UNL     1       7.609   3.246  25.843  0.00  0.00    +0.417 C 
ATOM      8  F   UNL     1       7.443   3.106  27.187  0.00  0.00    -0.166 F 
ATOM      9  F   UNL     1       6.395   3.616  25.350  0.00  0.00    -0.166 F 
ATOM     10  F   UNL     1       8.425   4.324  25.678  0.00  0.00    -0.166 F 
ENDBRANCH   3   7
BRANCH   5  11
ATOM     11  C   UNL     1       9.583   0.815  21.860  0.00  0.00    +0.417 C 
ATOM     12  F   UNL     1      10.492   1.805  21.645  0.00  0.00    -0.166 F 
ATOM     13  F   UNL     1       8.590   1.008  20.952  0.00  0.00    -0.166 F 
ATOM     14  F   UNL     1      10.205  -0.343  21.502  0.00  0.00    -0.166 F 
ENDBRANCH   5  11
BRANCH   1  15
ATOM     15  N   UNL     1       8.729  -1.543  26.159  0.00  0.00    -0.331 N 
ATOM     16  H   UNL     1       9.665  -1.816  26.451  0.00  0.00    +0.147 HD
BRANCH  15  17
ATOM     17  C   UNL     1       7.868  -2.693  25.839  0.00  0.00    +0.151 C 
BRANCH  17  18
ATOM     18  S   UNL     1       6.242  -2.324  26.622  0.00  0.00    -0.154 S 
ATOM     19  H   UNL     1       6.705  -1.672  27.698  0.00  0.00    +0.104 HD
ENDBRANCH  17  18
BRANCH  17  20
ATOM     20  C   UNL     1       8.497  -4.031  26.271  0.00  0.00    +0.207 C 
BRANCH  20  21
ATOM     21  C   UNL     1       9.555  -4.516  25.295  0.00  0.00    +0.230 C 
ATOM     22  O   UNL     1       9.964  -3.830  24.362  0.00  0.00    -0.275 OA
ATOM     23  N   UNL     1      10.164  -5.712  25.553  0.00  0.00    -0.328 N 
ATOM     24  H   UNL     1      10.840  -6.037  24.871  0.00  0.00    +0.145 HD
ATOM     25  H   UNL     1       9.816  -6.409  26.202  0.00  0.00    +0.145 HD
ENDBRANCH  20  21
BRANCH  20  26
ATOM     26  C   UNL     1       7.426  -5.094  26.451  0.00  0.00    +0.078 C 
ATOM     27  N   UNL     1       6.538  -5.977  26.601  0.00  0.00    -0.196 NA
ENDBRANCH  20  26
ENDBRANCH  17  20
ENDBRANCH  15  17
ENDBRANCH   1  15
TORSDOF 8
ENDMDL
MODEL 8
REMARK VINA RESULT:      -5.9      2.010      2.456
REMARK  Name = 
REMARK  8 active torsions:
REMARK  status: ('A' for Active; 'I' for Inactive)
REMARK    1  A    between atoms: C_2  and  S_3
REMARK    2  A    between atoms: C_2  and  N_4
REMARK    3  A    between atoms: C_2  and  C_19
REMARK    4  A    between atoms: N_4  and  C_5
REMARK    5  A    between atoms: C_7  and  C_15
REMARK    6  A    between atoms: C_9  and  C_11
REMARK    7  A    between atoms: C_19  and  C_21
REMARK    8  A    between atoms: C_19  and  C_23
REMARK                            x       y       z     vdW  Elec       q    Type
REMARK                         _______ _______ _______ _____ _____    ______ ____
ROOT
ATOM      1  C   UNL     1       8.418  -2.708  23.862  0.00  0.00    +0.029 A 
ATOM      2  C   UNL     1       8.201  -3.269  25.126  0.00  0.00    +0.035 A 
ATOM      3  C   UNL     1       7.391  -4.405  25.297  0.00  0.00    +0.057 A 
ATOM      4  C   UNL     1       6.804  -4.994  24.169  0.00  0.00    +0.024 A 
ATOM      5  C   UNL     1       7.035  -4.476  22.888  0.00  0.00    +0.057 A 
ATOM      6  C   UNL     1       7.862  -3.350  22.751  0.00  0.00    +0.035 A 
ENDROOT
BRANCH   3   7
ATOM      7  C   UNL     1       7.162  -4.958  26.683  0.00  0.00    +0.417 C 
ATOM      8  F   UNL     1       8.313  -5.400  27.260  0.00  0.00    -0.166 F 
ATOM      9  F   UNL     1       6.308  -6.018  26.687  0.00  0.00    -0.166 F 
ATOM     10  F   UNL     1       6.636  -4.049  27.549  0.00  0.00    -0.166 F 
ENDBRANCH   3   7
BRANCH   5  11
ATOM     11  C   UNL     1       6.394  -5.111  21.677  0.00  0.00    +0.417 C 
ATOM     12  F   UNL     1       5.968  -4.183  20.779  0.00  0.00    -0.166 F 
ATOM     13  F   UNL     1       5.304  -5.861  21.994  0.00  0.00    -0.166 F 
ATOM     14  F   UNL     1       7.233  -5.934  20.990  0.00  0.00    -0.166 F 
ENDBRANCH   5  11
BRANCH   1  15
ATOM     15  N   UNL     1       9.205  -1.565  23.748  0.00  0.00    -0.331 N 
ATOM     16  H   UNL     1       9.833  -1.408  24.534  0.00  0.00    +0.147 HD
BRANCH  15  17
ATOM     17  C   UNL     1       8.636  -0.321  23.206  0.00  0.00    +0.151 C 
BRANCH  17  18
ATOM     18  S   UNL     1       9.425  -0.095  21.557  0.00  0.00    -0.154 S 
ATOM     19  H   UNL     1       9.672   1.219  21.654  0.00  0.00    +0.104 HD
ENDBRANCH  17  18
BRANCH  17  20
ATOM     20  C   UNL     1       8.814   0.869  24.168  0.00  0.00    +0.207 C 
BRANCH  20  21
ATOM     21  C   UNL     1      10.272   1.253  24.352  0.00  0.00    +0.230 C 
ATOM     22  O   UNL     1      11.097   0.505  24.870  0.00  0.00    -0.275 OA
ATOM     23  N   UNL     1      10.700   2.426  23.794  0.00  0.00    -0.328 N 
ATOM     24  H   UNL     1      11.667   2.683  23.959  0.00  0.00    +0.145 HD
ATOM     25  H   UNL     1      10.090   3.168  23.471  0.00  0.00    +0.145 HD
ENDBRANCH  20  21
BRANCH  20  26
ATOM     26  C   UNL     1       8.180   0.568  25.517  0.00  0.00    +0.078 C 
ATOM     27  N   UNL     1       7.655   0.316  26.635  0.00  0.00    -0.196 NA
ENDBRANCH  20  26
ENDBRANCH  17  20
ENDBRANCH  15  17
ENDBRANCH   1  15
TORSDOF 8
ENDMDL
MODEL 9
REMARK VINA RESULT:      -5.8      1.443      1.748
REMARK  Name = 
REMARK  8 active torsions:
REMARK  status: ('A' for Active; 'I' for Inactive)
REMARK    1  A    between atoms: C_2  and  S_3
REMARK    2  A    between atoms: C_2  and  N_4
REMARK    3  A    between atoms: C_2  and  C_19
REMARK    4  A    between atoms: N_4  and  C_5
REMARK    5  A    between atoms: C_7  and  C_15
REMARK    6  A    between atoms: C_9  and  C_11
REMARK    7  A    between atoms: C_19  and  C_21
REMARK    8  A    between atoms: C_19  and  C_23
REMARK                            x       y       z     vdW  Elec       q    Type
REMARK                         _______ _______ _______ _____ _____    ______ ____
ROOT
ATOM      1  C   UNL     1       8.278  -2.158  23.259  0.00  0.00    +0.029 A 
ATOM      2  C   UNL     1       8.817  -2.792  24.385  0.00  0.00    +0.035 A 
ATOM      3  C   UNL     1       8.589  -4.155  24.639  0.00  0.00    +0.057 A 
ATOM      4  C   UNL     1       7.819  -4.895  23.732  0.00  0.00    +0.024 A 
ATOM      5  C   UNL     1       7.300  -4.294  22.577  0.00  0.00    +0.057 A 
ATOM      6  C   UNL     1       7.559  -2.934  22.345  0.00  0.00    +0.035 A 
ENDROOT
BRANCH   3   7
ATOM      7  C   UNL     1       9.166  -4.790  25.882  0.00  0.00    +0.417 C 
ATOM      8  F   UNL     1      10.441  -5.229  25.694  0.00  0.00    -0.166 F 
ATOM      9  F   UNL     1       8.451  -5.873  26.294  0.00  0.00    -0.166 F 
ATOM     10  F   UNL     1       9.216  -3.945  26.949  0.00  0.00    -0.166 F 
ENDBRANCH   3   7
BRANCH   5  11
ATOM     11  C   UNL     1       6.465  -5.095  21.607  0.00  0.00    +0.417 C 
ATOM     12  F   UNL     1       5.438  -5.738  22.226  0.00  0.00    -0.166 F 
ATOM     13  F   UNL     1       7.182  -6.055  20.965  0.00  0.00    -0.166 F 
ATOM     14  F   UNL     1       5.891  -4.336  20.632  0.00  0.00    -0.166 F 
ENDBRANCH   5  11
BRANCH   1  15
ATOM     15  N   UNL     1       8.508  -0.798  23.066  0.00  0.00    -0.331 N 
ATOM     16  H   UNL     1       9.491  -0.540  23.022  0.00  0.00    +0.147 HD
BRANCH  15  17
ATOM     17  C   UNL     1       7.680   0.202  23.759  0.00  0.00    +0.151 C 
BRANCH  17  18
ATOM     18  S   UNL     1       7.118   1.370  22.450  0.00  0.00    -0.154 S 
ATOM     19  H   UNL     1       5.851   1.510  22.865  0.00  0.00    +0.104 HD
ENDBRANCH  17  18
BRANCH  17  20
ATOM     20  C   UNL     1       8.427   0.867  24.931  0.00  0.00    +0.207 C 
BRANCH  20  21
ATOM     21  C   UNL     1       7.935   2.277  25.207  0.00  0.00    +0.230 C 
ATOM     22  O   UNL     1       6.881   2.511  25.792  0.00  0.00    -0.275 OA
ATOM     23  N   UNL     1       8.770   3.317  24.906  0.00  0.00    -0.328 N 
ATOM     24  H   UNL     1       8.409   4.252  25.063  0.00  0.00    +0.145 HD
ATOM     25  H   UNL     1       9.586   3.248  24.308  0.00  0.00    +0.145 HD
ENDBRANCH  20  21
BRANCH  20  26
ATOM     26  C   UNL     1       9.925   0.878  24.674  0.00  0.00    +0.078 C 
ATOM     27  N   UNL     1      11.168   0.885  24.462  0.00  0.00    -0.196 NA
ENDBRANCH  20  26
ENDBRANCH  17  20
ENDBRANCH  15  17
ENDBRANCH   1  15
TORSDOF 8
ENDMDL
