MODEL 1
REMARK VINA RESULT:       0.9      0.000      0.000
REMARK  Name = 
REMARK  54 active torsions:
REMARK  status: ('A' for Active; 'I' for Inactive)
REMARK    1  A    between atoms: C_1  and  C_2
REMARK    2  A    between atoms: C_2  and  N_3
REMARK    3  A    between atoms: N_5  and  C_6
REMARK    4  A    between atoms: C_6  and  C_7
REMARK    5  A    between atoms: N_8  and  C_9
REMARK    6  A    between atoms: C_9  and  C_10
REMARK    7  A    between atoms: C_10  and  C_11
REMARK    8  A    between atoms: C_11  and  C_12
REMARK    9  A    between atoms: C_12  and  C_13
REMARK   10  A    between atoms: C_13  and  N_15
REMARK   11  A    between atoms: C_13  and  C_80
REMARK   12  A    between atoms: C_16  and  C_18
REMARK   13  A    between atoms: C_18  and  C_20
REMARK   14  A    between atoms: C_18  and  N_28
REMARK   15  A    between atoms: C_20  and  C_21
REMARK   16  A    between atoms: C_24  and  O_25
REMARK   17  A    between atoms: C_29  and  CA_31
REMARK   18  A    between atoms: CA_31  and  C_33
REMARK   19  A    between atoms: CA_31  and  N_35
REMARK   20  A    between atoms: C_33  and  O_34
REMARK   21  A    between atoms: C_36  and  CA_38
REMARK   22  A    between atoms: CA_38  and  C_40
REMARK   23  A    between atoms: CA_38  and  N_47
REMARK   24  A    between atoms: C_40  and  C_41
REMARK   25  A    between atoms: C_48  and  CA_50
REMARK   26  A    between atoms: CA_50  and  C_52
REMARK   27  A    between atoms: CA_50  and  N_60
REMARK   28  A    between atoms: C_52  and  C_53
REMARK   29  A    between atoms: C_61  and  CA_63
REMARK   30  A    between atoms: CA_63  and  C_65
REMARK   31  A    between atoms: CA_63  and  N_76
REMARK   32  A    between atoms: C_65  and  C_66
REMARK   33  A    between atoms: C_77  and  C_78
REMARK   34  A    between atoms: N_82  and  C_83
REMARK   35  A    between atoms: C_83  and  C_85
REMARK   36  A    between atoms: C_83  and  C_89
REMARK   37  A    between atoms: C_85  and  C_86
REMARK   38  A    between atoms: C_86  and  C_87
REMARK   39  A    between atoms: C_86  and  C_88
REMARK   40  A    between atoms: N_91  and  C_92
REMARK   41  A    between atoms: C_92  and  C_94
REMARK   42  A    between atoms: C_92  and  C_106
REMARK   43  A    between atoms: C_94  and  C_95
REMARK   44  A    between atoms: C_95  and  C_96
REMARK   45  A    between atoms: C_96  and  C_97
REMARK   46  A    between atoms: C_97  and  N_98
REMARK   47  A    between atoms: N_100  and  C_101
REMARK   48  A    between atoms: C_101  and  C_102
REMARK   49  A    between atoms: N_103  and  C_104
REMARK   50  A    between atoms: C_104  and  C_105
REMARK   51  A    between atoms: C_112  and  C_114
REMARK   52  A    between atoms: N_116  and  C_117
REMARK   53  A    between atoms: C_117  and  C_119
REMARK   54  A    between atoms: C_117  and  C_120
REMARK                            x       y       z     vdW  Elec       q    Type
REMARK                         _______ _______ _______ _____ _____    ______ ____
ROOT
ATOM      1  N   UNL     1       8.535   0.469  23.437  0.00  0.00    -0.302 N 
ATOM      2  H   UNL     1       9.155   0.018  24.092  0.00  0.00    +0.150 HD
ATOM      3  C   UNL     1       8.137  -0.179  22.282  0.00  0.00    +0.234 C 
ATOM      4  O   UNL     1       7.407   0.362  21.454  0.00  0.00    -0.274 OA
ENDROOT
BRANCH   1   5
ATOM      5  C   UNL     1       7.992   1.766  23.858  0.00  0.00    +0.159 C 
BRANCH   5   6
ATOM      6  C   UNL     1       6.571   1.561  24.486  0.00  0.00    +0.234 C 
ATOM      7  N   UNL     1       5.536   2.266  23.899  0.00  0.00    -0.302 N 
ATOM      8  H   UNL     1       5.699   2.757  23.030  0.00  0.00    +0.150 HD
ATOM      9  O   UNL     1       6.362   0.737  25.374  0.00  0.00    -0.274 OA
BRANCH   7  10
ATOM     10  C   UNL     1       4.155   2.325  24.413  0.00  0.00    +0.159 C 
BRANCH  10  11
ATOM     11  C   UNL     1       3.327   3.286  23.508  0.00  0.00    +0.234 C 
ATOM     12  N   UNL     1       2.038   3.576  23.907  0.00  0.00    -0.302 N 
ATOM     13  H   UNL     1       1.643   3.158  24.744  0.00  0.00    +0.150 HD
ATOM     14  O   UNL     1       3.835   3.785  22.496  0.00  0.00    -0.274 OA
BRANCH  12  15
ATOM     15  C   UNL     1       1.164   4.476  23.132  0.00  0.00    +0.159 C 
BRANCH  15  16
ATOM     16  C   UNL     1       0.970   4.004  21.655  0.00  0.00    +0.237 C 
ATOM     17  N   UNL     1       1.373   4.854  20.621  0.00  0.00    -0.288 N 
ATOM     18  C   UNL     1       0.674   4.820  19.319  0.00  0.00    +0.162 C 
ATOM     19  C   UNL     1       0.443   6.311  18.971  0.00  0.00    +0.033 C 
ATOM     20  C   UNL     1       1.043   7.108  20.126  0.00  0.00    +0.021 C 
ATOM     21  C   UNL     1       2.018   6.146  20.771  0.00  0.00    +0.109 C 
ATOM     22  O   UNL     1       0.447   2.910  21.395  0.00  0.00    -0.274 OA
BRANCH  18  23
ATOM     23  C   UNL     1       1.412   4.123  18.135  0.00  0.00    +0.234 C 
ATOM     24  N   UNL     1       1.427   4.807  16.944  0.00  0.00    -0.303 N 
ATOM     25  H   UNL     1       0.971   5.722  16.896  0.00  0.00    +0.149 HD
ATOM     26  O   UNL     1       2.053   3.092  18.290  0.00  0.00    -0.274 OA
BRANCH  24  27
ATOM     27  C   UNL     1       2.212   4.337  15.789  0.00  0.00    +0.156 C 
ATOM     28  C   UNL     1       3.600   3.825  16.182  0.00  0.00    +0.038 C 
BRANCH  27  29
ATOM     29  C   UNL     1       2.371   5.425  14.706  0.00  0.00    +0.231 C 
ATOM     30  O   UNL     1       3.403   6.058  14.504  0.00  0.00    -0.274 OA
ATOM     31  N   UNL     1       1.328   5.572  13.834  0.00  0.00    -0.328 N 
ATOM     32  H   UNL     1       1.524   6.218  13.077  0.00  0.00    +0.145 HD
ATOM     33  H   UNL     1       0.772   4.762  13.603  0.00  0.00    +0.145 HD
ENDBRANCH  27  29
ENDBRANCH  24  27
ENDBRANCH  18  23
ENDBRANCH  15  16
BRANCH  15  34
ATOM     34  C   UNL     1       1.587   5.954  23.273  0.00  0.00    +0.032 C 
BRANCH  34  35
ATOM     35  C   UNL     1       1.278   6.596  24.633  0.00  0.00    +0.005 C 
BRANCH  35  36
ATOM     36  C   UNL     1       2.516   7.106  25.399  0.00  0.00    +0.041 C 
BRANCH  36  37
ATOM     37  C   UNL     1       3.895   6.593  24.945  0.00  0.00    +0.243 C 
BRANCH  37  38
ATOM     38  N   UNL     1       4.767   6.365  26.092  0.00  0.00    -0.114 NA
ATOM     39  C   UNL     1       4.258   6.241  27.269  0.00  0.00    +0.381 C 
ATOM     40  N   UNL     1       5.036   6.021  28.365  0.00  0.00    -0.276 N 
ATOM     41  H   UNL     1       4.705   5.245  28.922  0.00  0.00    +0.258 HD
ATOM     42  N   UNL     1       2.930   6.307  27.632  0.00  0.00    -0.276 N 
ATOM     43  H   UNL     1       2.330   6.629  26.882  0.00  0.00    +0.258 HD
BRANCH  42  44
ATOM     44  C   UNL     1       2.515   6.827  28.940  0.00  0.00    +0.192 C 
ATOM     45  C   UNL     1       1.217   6.195  29.409  0.00  0.00    +0.044 C 
ENDBRANCH  42  44
BRANCH  40  46
ATOM     46  C   UNL     1       6.473   6.186  28.390  0.00  0.00    +0.192 C 
ATOM     47  C   UNL     1       7.076   4.963  29.068  0.00  0.00    +0.044 C 
ENDBRANCH  40  46
ENDBRANCH  37  38
ENDBRANCH  36  37
ENDBRANCH  35  36
ENDBRANCH  34  35
ENDBRANCH  15  34
ENDBRANCH  12  15
ENDBRANCH  10  11
BRANCH  10  48
ATOM     48  C   UNL     1       4.090   2.748  25.902  0.00  0.00    +0.034 C 
BRANCH  48  49
ATOM     49  C   UNL     1       2.967   2.104  26.752  0.00  0.00    -0.015 C 
ATOM     50  C   UNL     1       1.838   1.536  25.910  0.00  0.00    +0.007 C 
ATOM     51  C   UNL     1       2.346   3.109  27.727  0.00  0.00    +0.007 C 
ENDBRANCH  48  49
ENDBRANCH  10  48
ENDBRANCH   7  10
ENDBRANCH   5   6
BRANCH   5  52
ATOM     52  C   UNL     1       8.950   2.460  24.860  0.00  0.00    +0.032 C 
BRANCH  52  53
ATOM     53  C   UNL     1      10.433   2.406  24.437  0.00  0.00    +0.005 C 
BRANCH  53  54
ATOM     54  C   UNL     1      10.650   2.390  22.910  0.00  0.00    +0.041 C 
BRANCH  54  55
ATOM     55  C   UNL     1      10.595   3.813  22.327  0.00  0.00    +0.243 C 
BRANCH  55  59
ATOM     56  N   UNL     1       9.890   6.637  24.594  0.00  0.00    -0.276 N 
ATOM     57  H   UNL     1      10.381   7.453  24.924  0.00  0.00    +0.258 HD
ATOM     58  C   UNL     1      10.579   5.770  23.783  0.00  0.00    +0.381 C 
ATOM     59  N   UNL     1       9.986   4.771  23.241  0.00  0.00    -0.114 NA
ATOM     60  N   UNL     1      11.876   6.195  23.739  0.00  0.00    -0.276 N 
ATOM     61  H   UNL     1      12.033   7.137  24.060  0.00  0.00    +0.258 HD
BRANCH  60  62
ATOM     62  C   UNL     1      12.920   5.722  22.871  0.00  0.00    +0.192 C 
ATOM     63  C   UNL     1      13.719   4.648  23.578  0.00  0.00    +0.044 C 
ENDBRANCH  60  62
BRANCH  56  65
ATOM     64  C   UNL     1       8.042   7.033  23.057  0.00  0.00    +0.044 C 
ATOM     65  C   UNL     1       8.451   6.818  24.508  0.00  0.00    +0.192 C 
ENDBRANCH  56  65
ENDBRANCH  55  59
ENDBRANCH  54  55
ENDBRANCH  53  54
ENDBRANCH  52  53
ENDBRANCH   5  52
ENDBRANCH   1   5
BRANCH   3  66
ATOM     66  C   UNL     1       8.683  -1.631  22.058  0.00  0.00    +0.163 C 
BRANCH  66  67
ATOM     67  N   UNL     1       8.792  -2.367  23.332  0.00  0.00    -0.302 N 
ATOM     68  H   UNL     1       7.947  -2.807  23.651  0.00  0.00    +0.150 HD
ATOM     69  C   UNL     1       9.801  -2.208  24.247  0.00  0.00    +0.236 C 
ATOM     70  O   UNL     1      10.762  -1.466  24.043  0.00  0.00    -0.274 OA
BRANCH  69  71
ATOM     71  CA  UNL     1       9.694  -3.063  25.546  0.00  0.00    +0.184 C 
BRANCH  71  72
ATOM     72  N   UNL     1       8.717  -2.533  26.500  0.00  0.00    -0.301 N 
ATOM     73  H   UNL     1       7.793  -2.929  26.402  0.00  0.00    +0.150 HD
ATOM     74  C   UNL     1       8.830  -1.287  27.074  0.00  0.00    +0.234 C 
ATOM     75  O   UNL     1       9.763  -0.538  26.797  0.00  0.00    -0.274 OA
BRANCH  74  76
ATOM     76  CA  UNL     1       7.747  -0.898  28.141  0.00  0.00    +0.163 C 
BRANCH  76  77
ATOM     77  N   UNL     1       6.444  -1.401  27.653  0.00  0.00    -0.302 N 
ATOM     78  H   UNL     1       6.044  -0.825  26.931  0.00  0.00    +0.150 HD
ATOM     79  C   UNL     1       5.728  -2.485  28.104  0.00  0.00    +0.234 C 
ATOM     80  O   UNL     1       6.198  -3.273  28.932  0.00  0.00    -0.274 OA
BRANCH  79  81
ATOM     81  CA  UNL     1       4.253  -2.678  27.585  0.00  0.00    +0.163 C 
BRANCH  81  82
ATOM     82  N   UNL     1       3.843  -3.982  28.132  0.00  0.00    -0.302 N 
ATOM     83  H   UNL     1       4.636  -4.591  28.318  0.00  0.00    +0.150 HD
ATOM     84  C   UNL     1       2.699  -4.209  28.860  0.00  0.00    +0.234 C 
ATOM     85  O   UNL     1       1.903  -3.312  29.143  0.00  0.00    -0.274 OA
BRANCH  84  86
ATOM     86  CA  UNL     1       2.390  -5.692  29.210  0.00  0.00    +0.163 C 
BRANCH  86  87
ATOM     87  N   UNL     1       3.548  -6.528  28.906  0.00  0.00    -0.304 N 
ATOM     88  H   UNL     1       3.427  -7.289  28.251  0.00  0.00    +0.149 HD
ATOM     89  C   UNL     1       4.775  -6.300  29.471  0.00  0.00    +0.211 C 
ATOM     90  O   UNL     1       4.986  -5.406  30.286  0.00  0.00    -0.276 OA
ATOM     91  C   UNL     1       5.863  -7.222  29.000  0.00  0.00    +0.109 C 
ENDBRANCH  86  87
BRANCH  86  92
ATOM     92  C   UNL     1       1.063  -6.217  28.645  0.00  0.00    +0.067 C 
BRANCH  92  93
ATOM     93  C   UNL     1       1.157  -7.466  27.806  0.00  0.00    -0.045 A 
ATOM     94  C   UNL     1       1.027  -8.739  28.373  0.00  0.00    +0.004 A 
ATOM     95  C   UNL     1       0.973  -9.869  27.553  0.00  0.00    +0.009 A 
ATOM     96  C   UNL     1       1.040  -9.741  26.153  0.00  0.00    -0.018 A 
ATOM     97  C   UNL     1       1.225  -8.462  25.585  0.00  0.00    -0.018 A 
ATOM     98  C   UNL     1       1.307  -8.323  24.192  0.00  0.00    +0.008 A 
ATOM     99  C   UNL     1       1.181  -9.439  23.365  0.00  0.00    +0.001 A 
ATOM    100  C   UNL     1       0.976 -10.695  23.920  0.00  0.00    +0.001 A 
ATOM    101  C   UNL     1       0.914 -10.850  25.306  0.00  0.00    +0.008 A 
ATOM    102  C   UNL     1       1.292  -7.342  26.422  0.00  0.00    +0.012 A 
ENDBRANCH  92  93
ENDBRANCH  86  92
ENDBRANCH  84  86
ENDBRANCH  81  82
BRANCH  81 103
ATOM    103  C   UNL     1       4.030  -2.530  26.055  0.00  0.00    +0.067 C 
BRANCH 103 104
ATOM    104  C   UNL     1       3.076  -3.557  25.478  0.00  0.00    -0.045 A 
ATOM    105  C   UNL     1       1.720  -3.241  25.308  0.00  0.00    +0.005 A 
ATOM    106  C   UNL     1       0.940  -3.979  24.419  0.00  0.00    +0.020 A 
ATOM    107  C   UNL     1       1.476  -5.094  23.784  0.00  0.00    +0.041 A 
ATOM    108 CL   UNL     1       0.563  -5.929  22.594  0.00  0.00    -0.084 Cl
ATOM    109  C   UNL     1       2.769  -5.517  24.091  0.00  0.00    +0.020 A 
ATOM    110  C   UNL     1       3.553  -4.763  24.949  0.00  0.00    +0.005 A 
ENDBRANCH 103 104
ENDBRANCH  81 103
ENDBRANCH  79  81
ENDBRANCH  76  77
BRANCH  76 111
ATOM    111  C   UNL     1       7.727   0.614  28.406  0.00  0.00    +0.068 C 
BRANCH 111 112
ATOM    112  C   UNL     1       6.598   1.127  29.281  0.00  0.00    -0.027 A 
ATOM    113  C   UNL     1       6.555   2.404  29.850  0.00  0.00    +0.114 A 
ATOM    114  N   UNL     1       5.445   2.975  30.348  0.00  0.00    -0.263 NA
ATOM    115  C   UNL     1       4.324   2.234  30.336  0.00  0.00    +0.111 A 
ATOM    116  C   UNL     1       4.305   0.901  29.936  0.00  0.00    +0.020 A 
ATOM    117  C   UNL     1       5.458   0.342  29.416  0.00  0.00    +0.006 A 
ENDBRANCH 111 112
ENDBRANCH  76 111
ENDBRANCH  74  76
ENDBRANCH  71  72
BRANCH  71 118
ATOM    118  C   UNL     1       9.559  -4.580  25.375  0.00  0.00    +0.187 C 
BRANCH 118 119
ATOM    119  O   UNL     1       8.600  -5.111  26.297  0.00  0.00    -0.393 OA
ATOM    120  H   UNL     1       8.935  -5.968  26.618  0.00  0.00    +0.209 HD
ENDBRANCH 118 119
ENDBRANCH  71 118
ENDBRANCH  69  71
ENDBRANCH  66  67
BRANCH  66 121
ATOM    121  C   UNL     1       7.906  -2.458  21.007  0.00  0.00    +0.067 C 
BRANCH 121 122
ATOM    122  C   UNL     1       6.864  -3.426  21.538  0.00  0.00    -0.045 A 
ATOM    123  C   UNL     1       6.546  -4.527  20.739  0.00  0.00    +0.007 A 
ATOM    124  C   UNL     1       6.065  -5.683  21.338  0.00  0.00    +0.045 A 
ATOM    125  C   UNL     1       5.839  -5.696  22.709  0.00  0.00    +0.117 A 
ATOM    126  C   UNL     1       5.907  -4.532  23.456  0.00  0.00    +0.045 A 
ATOM    127  C   UNL     1       6.376  -3.379  22.850  0.00  0.00    +0.007 A 
BRANCH 125 128
ATOM    128  O   UNL     1       5.537  -6.884  23.306  0.00  0.00    -0.507 OA
ATOM    129  H   UNL     1       5.799  -7.589  22.688  0.00  0.00    +0.292 HD
ENDBRANCH 125 128
ENDBRANCH 121 122
ENDBRANCH  66 121
ENDBRANCH   3  66
TORSDOF 46
ENDMDL
MODEL 2
REMARK VINA RESULT:       1.3      2.550      6.531
REMARK  Name = 
REMARK  54 active torsions:
REMARK  status: ('A' for Active; 'I' for Inactive)
REMARK    1  A    between atoms: C_1  and  C_2
REMARK    2  A    between atoms: C_2  and  N_3
REMARK    3  A    between atoms: N_5  and  C_6
REMARK    4  A    between atoms: C_6  and  C_7
REMARK    5  A    between atoms: N_8  and  C_9
REMARK    6  A    between atoms: C_9  and  C_10
REMARK    7  A    between atoms: C_10  and  C_11
REMARK    8  A    between atoms: C_11  and  C_12
REMARK    9  A    between atoms: C_12  and  C_13
REMARK   10  A    between atoms: C_13  and  N_15
REMARK   11  A    between atoms: C_13  and  C_80
REMARK   12  A    between atoms: C_16  and  C_18
REMARK   13  A    between atoms: C_18  and  C_20
REMARK   14  A    between atoms: C_18  and  N_28
REMARK   15  A    between atoms: C_20  and  C_21
REMARK   16  A    between atoms: C_24  and  O_25
REMARK   17  A    between atoms: C_29  and  CA_31
REMARK   18  A    between atoms: CA_31  and  C_33
REMARK   19  A    between atoms: CA_31  and  N_35
REMARK   20  A    between atoms: C_33  and  O_34
REMARK   21  A    between atoms: C_36  and  CA_38
REMARK   22  A    between atoms: CA_38  and  C_40
REMARK   23  A    between atoms: CA_38  and  N_47
REMARK   24  A    between atoms: C_40  and  C_41
REMARK   25  A    between atoms: C_48  and  CA_50
REMARK   26  A    between atoms: CA_50  and  C_52
REMARK   27  A    between atoms: CA_50  and  N_60
REMARK   28  A    between atoms: C_52  and  C_53
REMARK   29  A    between atoms: C_61  and  CA_63
REMARK   30  A    between atoms: CA_63  and  C_65
REMARK   31  A    between atoms: CA_63  and  N_76
REMARK   32  A    between atoms: C_65  and  C_66
REMARK   33  A    between atoms: C_77  and  C_78
REMARK   34  A    between atoms: N_82  and  C_83
REMARK   35  A    between atoms: C_83  and  C_85
REMARK   36  A    between atoms: C_83  and  C_89
REMARK   37  A    between atoms: C_85  and  C_86
REMARK   38  A    between atoms: C_86  and  C_87
REMARK   39  A    between atoms: C_86  and  C_88
REMARK   40  A    between atoms: N_91  and  C_92
REMARK   41  A    between atoms: C_92  and  C_94
REMARK   42  A    between atoms: C_92  and  C_106
REMARK   43  A    between atoms: C_94  and  C_95
REMARK   44  A    between atoms: C_95  and  C_96
REMARK   45  A    between atoms: C_96  and  C_97
REMARK   46  A    between atoms: C_97  and  N_98
REMARK   47  A    between atoms: N_100  and  C_101
REMARK   48  A    between atoms: C_101  and  C_102
REMARK   49  A    between atoms: N_103  and  C_104
REMARK   50  A    between atoms: C_104  and  C_105
REMARK   51  A    between atoms: C_112  and  C_114
REMARK   52  A    between atoms: N_116  and  C_117
REMARK   53  A    between atoms: C_117  and  C_119
REMARK   54  A    between atoms: C_117  and  C_120
REMARK                            x       y       z     vdW  Elec       q    Type
REMARK                         _______ _______ _______ _____ _____    ______ ____
ROOT
ATOM      1  N   UNL     1       9.599   0.987  22.913  0.00  0.00    -0.302 N 
ATOM      2  H   UNL     1       9.396   1.284  23.855  0.00  0.00    +0.150 HD
ATOM      3  C   UNL     1      10.013  -0.307  22.655  0.00  0.00    +0.234 C 
ATOM      4  O   UNL     1      10.297  -0.682  21.520  0.00  0.00    -0.274 OA
ENDROOT
BRANCH   1   5
ATOM      5  C   UNL     1       9.297   1.960  21.855  0.00  0.00    +0.159 C 
BRANCH   5   6
ATOM      6  C   UNL     1       7.747   2.166  21.760  0.00  0.00    +0.234 C 
ATOM      7  N   UNL     1       6.977   1.419  22.632  0.00  0.00    -0.302 N 
ATOM      8  H   UNL     1       7.428   0.895  23.371  0.00  0.00    +0.150 HD
ATOM      9  O   UNL     1       7.246   3.022  21.035  0.00  0.00    -0.274 OA
BRANCH   7  10
ATOM     10  C   UNL     1       5.503   1.357  22.618  0.00  0.00    +0.159 C 
BRANCH  10  11
ATOM     11  C   UNL     1       4.946   2.808  22.503  0.00  0.00    +0.234 C 
ATOM     12  N   UNL     1       5.166   3.656  23.570  0.00  0.00    -0.302 N 
ATOM     13  H   UNL     1       5.652   3.334  24.402  0.00  0.00    +0.150 HD
ATOM     14  O   UNL     1       4.362   3.174  21.476  0.00  0.00    -0.274 OA
BRANCH  12  15
ATOM     15  C   UNL     1       4.689   5.051  23.570  0.00  0.00    +0.159 C 
BRANCH  15  16
ATOM     16  C   UNL     1       4.872   5.751  24.955  0.00  0.00    +0.237 C 
ATOM     17  N   UNL     1       5.472   5.035  25.995  0.00  0.00    -0.288 N 
ATOM     18  C   UNL     1       5.105   5.318  27.398  0.00  0.00    +0.162 C 
ATOM     19  C   UNL     1       4.900   3.918  28.028  0.00  0.00    +0.033 C 
ATOM     20  C   UNL     1       5.174   2.913  26.913  0.00  0.00    +0.021 C 
ATOM     21  C   UNL     1       6.007   3.688  25.914  0.00  0.00    +0.109 C 
ATOM     22  O   UNL     1       4.473   6.909  25.145  0.00  0.00    -0.274 OA
BRANCH  18  23
ATOM     23  C   UNL     1       6.133   6.121  28.252  0.00  0.00    +0.234 C 
ATOM     24  N   UNL     1       7.433   6.108  27.809  0.00  0.00    -0.303 N 
ATOM     25  H   UNL     1       7.655   5.590  26.954  0.00  0.00    +0.149 HD
ATOM     26  O   UNL     1       5.782   6.830  29.187  0.00  0.00    -0.274 OA
BRANCH  24  27
ATOM     27  C   UNL     1       8.475   6.942  28.433  0.00  0.00    +0.156 C 
ATOM     28  C   UNL     1       9.742   7.047  27.581  0.00  0.00    +0.038 C 
BRANCH  27  29
ATOM     29  C   UNL     1       8.862   6.442  29.841  0.00  0.00    +0.231 C 
ATOM     30  O   UNL     1       9.827   6.847  30.480  0.00  0.00    -0.274 OA
ATOM     31  N   UNL     1       7.973   5.600  30.452  0.00  0.00    -0.328 N 
ATOM     32  H   UNL     1       8.216   5.388  31.413  0.00  0.00    +0.145 HD
ATOM     33  H   UNL     1       6.990   5.701  30.247  0.00  0.00    +0.145 HD
ENDBRANCH  27  29
ENDBRANCH  24  27
ENDBRANCH  18  23
ENDBRANCH  15  16
BRANCH  15  34
ATOM     34  C   UNL     1       3.267   5.176  22.982  0.00  0.00    +0.032 C 
BRANCH  34  35
ATOM     35  C   UNL     1       2.131   4.741  23.919  0.00  0.00    +0.005 C 
BRANCH  35  36
ATOM     36  C   UNL     1       1.450   3.413  23.530  0.00  0.00    +0.041 C 
BRANCH  36  37
ATOM     37  C   UNL     1       0.453   3.441  22.358  0.00  0.00    +0.243 C 
BRANCH  37  38
ATOM     38  N   UNL     1       0.575   4.682  21.602  0.00  0.00    -0.114 NA
ATOM     39  C   UNL     1       0.790   4.638  20.331  0.00  0.00    +0.381 C 
ATOM     40  N   UNL     1       0.905   5.773  19.587  0.00  0.00    -0.276 N 
ATOM     41  H   UNL     1       0.318   5.753  18.764  0.00  0.00    +0.258 HD
ATOM     42  N   UNL     1       0.943   3.526  19.533  0.00  0.00    -0.276 N 
ATOM     43  H   UNL     1       1.028   2.667  20.062  0.00  0.00    +0.258 HD
BRANCH  42  44
ATOM     44  C   UNL     1       1.814   3.541  18.351  0.00  0.00    +0.192 C 
ATOM     45  C   UNL     1       1.362   4.576  17.336  0.00  0.00    +0.044 C 
ENDBRANCH  42  44
BRANCH  40  46
ATOM     46  C   UNL     1       1.086   7.096  20.142  0.00  0.00    +0.192 C 
ATOM     47  C   UNL     1       1.476   6.944  21.607  0.00  0.00    +0.044 C 
ENDBRANCH  40  46
ENDBRANCH  37  38
ENDBRANCH  36  37
ENDBRANCH  35  36
ENDBRANCH  34  35
ENDBRANCH  15  34
ENDBRANCH  12  15
ENDBRANCH  10  11
BRANCH  10  48
ATOM     48  C   UNL     1       4.925   0.622  23.853  0.00  0.00    +0.034 C 
BRANCH  48  49
ATOM     49  C   UNL     1       5.439  -0.817  24.100  0.00  0.00    -0.015 C 
ATOM     50  C   UNL     1       6.251  -1.364  22.939  0.00  0.00    +0.007 C 
ATOM     51  C   UNL     1       4.287  -1.796  24.349  0.00  0.00    +0.007 C 
ENDBRANCH  48  49
ENDBRANCH  10  48
ENDBRANCH   7  10
ENDBRANCH   5   6
BRANCH   5  52
ATOM     52  C   UNL     1      10.024   3.303  22.125  0.00  0.00    +0.032 C 
BRANCH  52  53
ATOM     53  C   UNL     1      10.960   3.264  23.351  0.00  0.00    +0.005 C 
BRANCH  53  54
ATOM     54  C   UNL     1      12.148   4.244  23.265  0.00  0.00    +0.041 C 
BRANCH  54  55
ATOM     55  C   UNL     1      11.715   5.588  22.651  0.00  0.00    +0.243 C 
BRANCH  55  59
ATOM     56  N   UNL     1       8.734   6.965  24.332  0.00  0.00    -0.276 N 
ATOM     57  H   UNL     1       8.548   7.546  25.135  0.00  0.00    +0.258 HD
ATOM     58  C   UNL     1      10.041   6.617  24.096  0.00  0.00    +0.381 C 
ATOM     59  N   UNL     1      10.363   5.971  23.036  0.00  0.00    -0.114 NA
ATOM     60  N   UNL     1      10.781   7.063  25.152  0.00  0.00    -0.276 N 
ATOM     61  H   UNL     1      10.328   7.745  25.739  0.00  0.00    +0.258 HD
BRANCH  60  62
ATOM     62  C   UNL     1      12.215   7.101  25.258  0.00  0.00    +0.192 C 
ATOM     63  C   UNL     1      12.620   6.912  26.704  0.00  0.00    +0.044 C 
ENDBRANCH  60  62
BRANCH  56  65
ATOM     64  C   UNL     1       7.684   5.822  22.455  0.00  0.00    +0.044 C 
ATOM     65  C   UNL     1       7.754   7.107  23.269  0.00  0.00    +0.192 C 
ENDBRANCH  56  65
ENDBRANCH  55  59
ENDBRANCH  54  55
ENDBRANCH  53  54
ENDBRANCH  52  53
ENDBRANCH   5  52
ENDBRANCH   1   5
BRANCH   3  66
ATOM     66  C   UNL     1      10.133  -1.273  23.885  0.00  0.00    +0.163 C 
BRANCH  66  67
ATOM     67  N   UNL     1       9.148  -0.936  24.929  0.00  0.00    -0.302 N 
ATOM     68  H   UNL     1       8.394  -1.591  25.041  0.00  0.00    +0.150 HD
ATOM     69  C   UNL     1       8.987   0.308  25.486  0.00  0.00    +0.236 C 
ATOM     70  O   UNL     1       9.717   1.255  25.197  0.00  0.00    -0.274 OA
BRANCH  69  71
ATOM     71  CA  UNL     1       7.856   0.445  26.549  0.00  0.00    +0.184 C 
BRANCH  71  72
ATOM     72  N   UNL     1       6.777  -0.528  26.364  0.00  0.00    -0.301 N 
ATOM     73  H   UNL     1       6.474  -0.627  25.406  0.00  0.00    +0.150 HD
ATOM     74  C   UNL     1       5.887  -0.859  27.361  0.00  0.00    +0.234 C 
ATOM     75  O   UNL     1       5.943  -0.333  28.469  0.00  0.00    -0.274 OA
BRANCH  74  76
ATOM     76  CA  UNL     1       4.839  -1.981  27.033  0.00  0.00    +0.163 C 
BRANCH  76  77
ATOM     77  N   UNL     1       3.729  -1.848  28.002  0.00  0.00    -0.302 N 
ATOM     78  H   UNL     1       3.380  -2.735  28.327  0.00  0.00    +0.150 HD
ATOM     79  C   UNL     1       3.114  -0.697  28.437  0.00  0.00    +0.234 C 
ATOM     80  O   UNL     1       3.544   0.421  28.136  0.00  0.00    -0.274 OA
BRANCH  79  81
ATOM     81  CA  UNL     1       1.796  -0.829  29.291  0.00  0.00    +0.163 C 
BRANCH  81  82
ATOM     82  N   UNL     1       1.755  -2.249  29.679  0.00  0.00    -0.302 N 
ATOM     83  H   UNL     1       1.673  -2.374  30.685  0.00  0.00    +0.150 HD
ATOM     84  C   UNL     1       1.295  -3.272  28.884  0.00  0.00    +0.234 C 
ATOM     85  O   UNL     1       0.846  -3.084  27.753  0.00  0.00    -0.274 OA
BRANCH  84  86
ATOM     86  CA  UNL     1       1.484  -4.712  29.441  0.00  0.00    +0.163 C 
BRANCH  86  87
ATOM     87  N   UNL     1       2.871  -5.135  29.271  0.00  0.00    -0.304 N 
ATOM     88  H   UNL     1       3.549  -4.439  28.987  0.00  0.00    +0.149 HD
ATOM     89  C   UNL     1       3.269  -6.426  29.496  0.00  0.00    +0.211 C 
ATOM     90  O   UNL     1       2.495  -7.322  29.824  0.00  0.00    -0.276 OA
ATOM     91  C   UNL     1       4.741  -6.667  29.328  0.00  0.00    +0.109 C 
ENDBRANCH  86  87
BRANCH  86  92
ATOM     92  C   UNL     1       0.446  -5.727  28.946  0.00  0.00    +0.067 C 
BRANCH  92  93
ATOM     93  C   UNL     1       0.605  -6.184  27.518  0.00  0.00    -0.045 A 
ATOM     94  C   UNL     1       0.662  -7.542  27.186  0.00  0.00    +0.004 A 
ATOM     95  C   UNL     1       0.664  -7.937  25.847  0.00  0.00    +0.009 A 
ATOM     96  C   UNL     1       0.600  -6.978  24.818  0.00  0.00    -0.018 A 
ATOM     97  C   UNL     1       0.596  -5.606  25.152  0.00  0.00    -0.018 A 
ATOM     98  C   UNL     1       0.546  -4.641  24.136  0.00  0.00    +0.008 A 
ATOM     99  C   UNL     1       0.475  -5.031  22.799  0.00  0.00    +0.001 A 
ATOM    100  C   UNL     1       0.454  -6.379  22.469  0.00  0.00    +0.001 A 
ATOM    101  C   UNL     1       0.526  -7.350  23.468  0.00  0.00    +0.008 A 
ATOM    102  C   UNL     1       0.610  -5.229  26.500  0.00  0.00    +0.012 A 
ENDBRANCH  92  93
ENDBRANCH  86  92
ENDBRANCH  84  86
ENDBRANCH  81  82
BRANCH  81 103
ATOM    103  C   UNL     1       0.487  -0.309  28.635  0.00  0.00    +0.067 C 
BRANCH 103 104
ATOM    104  C   UNL     1       0.448   1.197  28.471  0.00  0.00    -0.045 A 
ATOM    105  C   UNL     1       0.451   2.029  29.600  0.00  0.00    +0.005 A 
ATOM    106  C   UNL     1       0.835   3.363  29.480  0.00  0.00    +0.020 A 
ATOM    107  C   UNL     1       1.111   3.897  28.226  0.00  0.00    +0.041 A 
ATOM    108 CL   UNL     1       1.708   5.501  28.085  0.00  0.00    -0.084 Cl
ATOM    109  C   UNL     1       0.932   3.120  27.082  0.00  0.00    +0.020 A 
ATOM    110  C   UNL     1       0.583   1.786  27.206  0.00  0.00    +0.005 A 
ENDBRANCH 103 104
ENDBRANCH  81 103
ENDBRANCH  79  81
ENDBRANCH  76  77
BRANCH  76 111
ATOM    111  C   UNL     1       5.474  -3.379  27.061  0.00  0.00    +0.068 C 
BRANCH 111 112
ATOM    112  C   UNL     1       5.069  -4.323  25.946  0.00  0.00    -0.027 A 
ATOM    113  C   UNL     1       5.816  -4.546  24.785  0.00  0.00    +0.114 A 
ATOM    114  N   UNL     1       5.640  -5.590  23.958  0.00  0.00    -0.263 NA
ATOM    115  C   UNL     1       4.640  -6.437  24.255  0.00  0.00    +0.111 A 
ATOM    116  C   UNL     1       3.745  -6.212  25.297  0.00  0.00    +0.020 A 
ATOM    117  C   UNL     1       3.957  -5.136  26.141  0.00  0.00    +0.006 A 
ENDBRANCH 111 112
ENDBRANCH  76 111
ENDBRANCH  74  76
ENDBRANCH  71  72
BRANCH  71 118
ATOM    118  C   UNL     1       8.284   0.549  28.017  0.00  0.00    +0.187 C 
BRANCH 118 119
ATOM    119  O   UNL     1       9.476  -0.210  28.253  0.00  0.00    -0.393 OA
ATOM    120  H   UNL     1       9.484  -0.470  29.192  0.00  0.00    +0.209 HD
ENDBRANCH 118 119
ENDBRANCH  71 118
ENDBRANCH  69  71
ENDBRANCH  66  67
BRANCH  66 121
ATOM    121  C   UNL     1      10.071  -2.777  23.532  0.00  0.00    +0.067 C 
BRANCH 121 122
ATOM    122  C   UNL     1       9.267  -3.663  24.465  0.00  0.00    -0.045 A 
ATOM    123  C   UNL     1       9.412  -5.045  24.321  0.00  0.00    +0.007 A 
ATOM    124  C   UNL     1       9.178  -5.868  25.414  0.00  0.00    +0.045 A 
ATOM    125  C   UNL     1       8.730  -5.309  26.605  0.00  0.00    +0.117 A 
ATOM    126  C   UNL     1       8.340  -3.982  26.668  0.00  0.00    +0.045 A 
ATOM    127  C   UNL     1       8.566  -3.167  25.572  0.00  0.00    +0.007 A 
BRANCH 125 128
ATOM    128  O   UNL     1       8.674  -6.101  27.714  0.00  0.00    -0.507 OA
ATOM    129  H   UNL     1       9.429  -5.857  28.277  0.00  0.00    +0.292 HD
ENDBRANCH 125 128
ENDBRANCH 121 122
ENDBRANCH  66 121
ENDBRANCH   3  66
TORSDOF 46
ENDMDL
MODEL 3
REMARK VINA RESULT:       2.1      2.954     11.139
REMARK  Name = 
REMARK  54 active torsions:
REMARK  status: ('A' for Active; 'I' for Inactive)
REMARK    1  A    between atoms: C_1  and  C_2
REMARK    2  A    between atoms: C_2  and  N_3
REMARK    3  A    between atoms: N_5  and  C_6
REMARK    4  A    between atoms: C_6  and  C_7
REMARK    5  A    between atoms: N_8  and  C_9
REMARK    6  A    between atoms: C_9  and  C_10
REMARK    7  A    between atoms: C_10  and  C_11
REMARK    8  A    between atoms: C_11  and  C_12
REMARK    9  A    between atoms: C_12  and  C_13
REMARK   10  A    between atoms: C_13  and  N_15
REMARK   11  A    between atoms: C_13  and  C_80
REMARK   12  A    between atoms: C_16  and  C_18
REMARK   13  A    between atoms: C_18  and  C_20
REMARK   14  A    between atoms: C_18  and  N_28
REMARK   15  A    between atoms: C_20  and  C_21
REMARK   16  A    between atoms: C_24  and  O_25
REMARK   17  A    between atoms: C_29  and  CA_31
REMARK   18  A    between atoms: CA_31  and  C_33
REMARK   19  A    between atoms: CA_31  and  N_35
REMARK   20  A    between atoms: C_33  and  O_34
REMARK   21  A    between atoms: C_36  and  CA_38
REMARK   22  A    between atoms: CA_38  and  C_40
REMARK   23  A    between atoms: CA_38  and  N_47
REMARK   24  A    between atoms: C_40  and  C_41
REMARK   25  A    between atoms: C_48  and  CA_50
REMARK   26  A    between atoms: CA_50  and  C_52
REMARK   27  A    between atoms: CA_50  and  N_60
REMARK   28  A    between atoms: C_52  and  C_53
REMARK   29  A    between atoms: C_61  and  CA_63
REMARK   30  A    between atoms: CA_63  and  C_65
REMARK   31  A    between atoms: CA_63  and  N_76
REMARK   32  A    between atoms: C_65  and  C_66
REMARK   33  A    between atoms: C_77  and  C_78
REMARK   34  A    between atoms: N_82  and  C_83
REMARK   35  A    between atoms: C_83  and  C_85
REMARK   36  A    between atoms: C_83  and  C_89
REMARK   37  A    between atoms: C_85  and  C_86
REMARK   38  A    between atoms: C_86  and  C_87
REMARK   39  A    between atoms: C_86  and  C_88
REMARK   40  A    between atoms: N_91  and  C_92
REMARK   41  A    between atoms: C_92  and  C_94
REMARK   42  A    between atoms: C_92  and  C_106
REMARK   43  A    between atoms: C_94  and  C_95
REMARK   44  A    between atoms: C_95  and  C_96
REMARK   45  A    between atoms: C_96  and  C_97
REMARK   46  A    between atoms: C_97  and  N_98
REMARK   47  A    between atoms: N_100  and  C_101
REMARK   48  A    between atoms: C_101  and  C_102
REMARK   49  A    between atoms: N_103  and  C_104
REMARK   50  A    between atoms: C_104  and  C_105
REMARK   51  A    between atoms: C_112  and  C_114
REMARK   52  A    between atoms: N_116  and  C_117
REMARK   53  A    between atoms: C_117  and  C_119
REMARK   54  A    between atoms: C_117  and  C_120
REMARK                            x       y       z     vdW  Elec       q    Type
REMARK                         _______ _______ _______ _____ _____    ______ ____
ROOT
ATOM      1  N   UNL     1       4.742  -1.590  24.582  0.00  0.00    -0.302 N 
ATOM      2  H   UNL     1       4.167  -1.515  23.757  0.00  0.00    +0.150 HD
ATOM      3  C   UNL     1       5.294  -0.462  25.162  0.00  0.00    +0.234 C 
ATOM      4  O   UNL     1       6.024  -0.531  26.148  0.00  0.00    -0.274 OA
ENDROOT
BRANCH   1   5
ATOM      5  C   UNL     1       4.832  -2.927  25.182  0.00  0.00    +0.159 C 
BRANCH   5   6
ATOM      6  C   UNL     1       3.396  -3.432  25.553  0.00  0.00    +0.234 C 
ATOM      7  N   UNL     1       2.341  -2.665  25.092  0.00  0.00    -0.302 N 
ATOM      8  H   UNL     1       2.519  -1.917  24.436  0.00  0.00    +0.150 HD
ATOM      9  O   UNL     1       3.208  -4.505  26.121  0.00  0.00    -0.274 OA
BRANCH   7  10
ATOM     10  C   UNL     1       0.923  -2.882  25.439  0.00  0.00    +0.159 C 
BRANCH  10  11
ATOM     11  C   UNL     1       0.670  -2.318  26.869  0.00  0.00    +0.234 C 
ATOM     12  N   UNL     1       0.742  -3.208  27.922  0.00  0.00    -0.302 N 
ATOM     13  H   UNL     1       0.929  -4.193  27.761  0.00  0.00    +0.150 HD
ATOM     14  O   UNL     1       0.448  -1.112  27.036  0.00  0.00    -0.274 OA
BRANCH  12  15
ATOM     15  C   UNL     1       0.524  -2.786  29.318  0.00  0.00    +0.159 C 
BRANCH  15  16
ATOM     16  C   UNL     1       1.508  -1.658  29.768  0.00  0.00    +0.237 C 
ATOM     17  N   UNL     1       2.864  -1.785  29.450  0.00  0.00    -0.288 N 
ATOM     18  C   UNL     1       3.890  -1.193  30.333  0.00  0.00    +0.162 C 
ATOM     19  C   UNL     1       4.953  -2.309  30.483  0.00  0.00    +0.033 C 
ATOM     20  C   UNL     1       4.446  -3.485  29.653  0.00  0.00    +0.021 C 
ATOM     21  C   UNL     1       3.470  -2.856  28.681  0.00  0.00    +0.109 C 
ATOM     22  O   UNL     1       1.108  -0.680  30.416  0.00  0.00    -0.274 OA
BRANCH  18  23
ATOM     23  C   UNL     1       4.582   0.114  29.841  0.00  0.00    +0.234 C 
ATOM     24  N   UNL     1       5.740  -0.047  29.118  0.00  0.00    -0.303 N 
ATOM     25  H   UNL     1       6.077  -0.996  28.937  0.00  0.00    +0.149 HD
ATOM     26  O   UNL     1       4.059   1.213  29.974  0.00  0.00    -0.274 OA
BRANCH  24  27
ATOM     27  C   UNL     1       6.414   1.090  28.468  0.00  0.00    +0.156 C 
ATOM     28  C   UNL     1       7.898   0.827  28.199  0.00  0.00    +0.038 C 
BRANCH  27  29
ATOM     29  C   UNL     1       6.280   2.395  29.281  0.00  0.00    +0.231 C 
ATOM     30  O   UNL     1       6.600   3.505  28.869  0.00  0.00    -0.274 OA
ATOM     31  N   UNL     1       5.625   2.300  30.478  0.00  0.00    -0.328 N 
ATOM     32  H   UNL     1       5.465   3.198  30.921  0.00  0.00    +0.145 HD
ATOM     33  H   UNL     1       4.894   1.612  30.577  0.00  0.00    +0.145 HD
ENDBRANCH  27  29
ENDBRANCH  24  27
ENDBRANCH  18  23
ENDBRANCH  15  16
BRANCH  15  34
ATOM     34  C   UNL     1       0.459  -3.990  30.283  0.00  0.00    +0.032 C 
BRANCH  34  35
ATOM     35  C   UNL     1       1.528  -5.068  30.055  0.00  0.00    +0.005 C 
BRANCH  35  36
ATOM     36  C   UNL     1       0.972  -6.490  29.838  0.00  0.00    +0.041 C 
BRANCH  36  37
ATOM     37  C   UNL     1       1.789  -7.668  30.397  0.00  0.00    +0.243 C 
BRANCH  37  38
ATOM     38  N   UNL     1       3.220  -7.412  30.272  0.00  0.00    -0.114 NA
ATOM     39  C   UNL     1       3.739  -7.230  29.106  0.00  0.00    +0.381 C 
ATOM     40  N   UNL     1       5.069  -6.983  28.946  0.00  0.00    -0.276 N 
ATOM     41  H   UNL     1       5.242  -6.178  28.360  0.00  0.00    +0.258 HD
ATOM     42  N   UNL     1       3.107  -7.253  27.882  0.00  0.00    -0.276 N 
ATOM     43  H   UNL     1       2.155  -7.592  27.935  0.00  0.00    +0.258 HD
BRANCH  42  44
ATOM     44  C   UNL     1       3.796  -7.712  26.670  0.00  0.00    +0.192 C 
ATOM     45  C   UNL     1       2.908  -7.596  25.443  0.00  0.00    +0.044 C 
ENDBRANCH  42  44
BRANCH  40  46
ATOM     46  C   UNL     1       6.063  -7.177  29.979  0.00  0.00    +0.192 C 
ATOM     47  C   UNL     1       6.497  -5.806  30.479  0.00  0.00    +0.044 C 
ENDBRANCH  40  46
ENDBRANCH  37  38
ENDBRANCH  36  37
ENDBRANCH  35  36
ENDBRANCH  34  35
ENDBRANCH  15  34
ENDBRANCH  12  15
ENDBRANCH  10  11
BRANCH  10  48
ATOM     48  C   UNL     1       0.504  -4.369  25.332  0.00  0.00    +0.034 C 
BRANCH  48  49
ATOM     49  C   UNL     1       0.481  -4.976  23.908  0.00  0.00    -0.015 C 
ATOM     50  C   UNL     1       0.493  -6.495  23.911  0.00  0.00    +0.007 C 
ATOM     51  C   UNL     1       1.681  -4.514  23.075  0.00  0.00    +0.007 C 
ENDBRANCH  48  49
ENDBRANCH  10  48
ENDBRANCH   7  10
ENDBRANCH   5   6
BRANCH   5  52
ATOM     52  C   UNL     1       5.539  -3.912  24.217  0.00  0.00    +0.032 C 
BRANCH  52  53
ATOM     53  C   UNL     1       5.300  -3.596  22.725  0.00  0.00    +0.005 C 
BRANCH  53  54
ATOM     54  C   UNL     1       6.574  -3.186  21.958  0.00  0.00    +0.041 C 
BRANCH  54  55
ATOM     55  C   UNL     1       7.733  -4.155  22.252  0.00  0.00    +0.243 C 
BRANCH  55  59
ATOM     56  N   UNL     1       9.151  -3.672  25.623  0.00  0.00    -0.276 N 
ATOM     57  H   UNL     1       9.823  -3.056  26.055  0.00  0.00    +0.258 HD
ATOM     58  C   UNL     1       8.968  -3.554  24.267  0.00  0.00    +0.381 C 
ATOM     59  N   UNL     1       8.056  -4.229  23.670  0.00  0.00    -0.114 NA
ATOM     60  N   UNL     1       9.899  -2.670  23.804  0.00  0.00    -0.276 N 
ATOM     61  H   UNL     1      10.343  -2.101  24.508  0.00  0.00    +0.258 HD
BRANCH  60  62
ATOM     62  C   UNL     1       9.970  -2.086  22.491  0.00  0.00    +0.192 C 
ATOM     63  C   UNL     1      10.918  -0.906  22.513  0.00  0.00    +0.044 C 
ENDBRANCH  60  62
BRANCH  56  65
ATOM     64  C   UNL     1       8.029  -5.632  26.533  0.00  0.00    +0.044 C 
ATOM     65  C   UNL     1       8.100  -4.111  26.524  0.00  0.00    +0.192 C 
ENDBRANCH  56  65
ENDBRANCH  55  59
ENDBRANCH  54  55
ENDBRANCH  53  54
ENDBRANCH  52  53
ENDBRANCH   5  52
ENDBRANCH   1   5
BRANCH   3  66
ATOM     66  C   UNL     1       4.969   0.915  24.486  0.00  0.00    +0.163 C 
BRANCH  66  67
ATOM     67  N   UNL     1       3.697   1.471  24.985  0.00  0.00    -0.302 N 
ATOM     68  H   UNL     1       3.440   2.369  24.613  0.00  0.00    +0.150 HD
ATOM     69  C   UNL     1       3.050   1.055  26.121  0.00  0.00    +0.236 C 
ATOM     70  O   UNL     1       3.454   0.111  26.799  0.00  0.00    -0.274 OA
BRANCH  69  71
ATOM     71  CA  UNL     1       1.735   1.812  26.481  0.00  0.00    +0.184 C 
BRANCH  71  72
ATOM     72  N   UNL     1       1.875   3.267  26.403  0.00  0.00    -0.301 N 
ATOM     73  H   UNL     1       2.134   3.701  27.277  0.00  0.00    +0.150 HD
ATOM     74  C   UNL     1       1.214   4.035  25.472  0.00  0.00    +0.234 C 
ATOM     75  O   UNL     1       0.447   3.531  24.655  0.00  0.00    -0.274 OA
BRANCH  74  76
ATOM     76  CA  UNL     1       1.533   5.572  25.464  0.00  0.00    +0.163 C 
BRANCH  76  77
ATOM     77  N   UNL     1       2.667   5.784  24.537  0.00  0.00    -0.302 N 
ATOM     78  H   UNL     1       2.418   6.329  23.727  0.00  0.00    +0.150 HD
ATOM     79  C   UNL     1       3.946   5.287  24.631  0.00  0.00    +0.234 C 
ATOM     80  O   UNL     1       4.333   4.679  25.634  0.00  0.00    -0.274 OA
BRANCH  79  81
ATOM     81  CA  UNL     1       4.908   5.457  23.395  0.00  0.00    +0.163 C 
BRANCH  81  82
ATOM     82  N   UNL     1       6.082   6.158  23.942  0.00  0.00    -0.302 N 
ATOM     83  H   UNL     1       5.834   7.035  24.393  0.00  0.00    +0.150 HD
ATOM     84  C   UNL     1       7.243   5.550  24.358  0.00  0.00    +0.234 C 
ATOM     85  O   UNL     1       7.401   4.329  24.326  0.00  0.00    -0.274 OA
BRANCH  84  86
ATOM     86  CA  UNL     1       8.408   6.497  24.760  0.00  0.00    +0.163 C 
BRANCH  86  87
ATOM     87  N   UNL     1       9.365   6.606  23.663  0.00  0.00    -0.304 N 
ATOM     88  H   UNL     1       9.225   7.340  22.982  0.00  0.00    +0.149 HD
ATOM     89  C   UNL     1      10.435   5.759  23.547  0.00  0.00    +0.211 C 
ATOM     90  O   UNL     1      10.652   4.836  24.329  0.00  0.00    -0.276 OA
ATOM     91  C   UNL     1      11.346   6.054  22.391  0.00  0.00    +0.109 C 
ENDBRANCH  86  87
BRANCH  86  92
ATOM     92  C   UNL     1       9.038   6.187  26.124  0.00  0.00    +0.067 C 
BRANCH  92  93
ATOM     93  C   UNL     1       8.115   6.289  27.311  0.00  0.00    -0.045 A 
ATOM     94  C   UNL     1       8.604   6.510  28.604  0.00  0.00    +0.004 A 
ATOM     95  C   UNL     1       7.720   6.743  29.658  0.00  0.00    +0.009 A 
ATOM     96  C   UNL     1       6.330   6.769  29.435  0.00  0.00    -0.018 A 
ATOM     97  C   UNL     1       5.834   6.494  28.142  0.00  0.00    -0.018 A 
ATOM     98  C   UNL     1       4.451   6.502  27.909  0.00  0.00    +0.008 A 
ATOM     99  C   UNL     1       3.566   6.807  28.943  0.00  0.00    +0.001 A 
ATOM    100  C   UNL     1       4.052   7.101  30.209  0.00  0.00    +0.001 A 
ATOM    101  C   UNL     1       5.425   7.074  30.460  0.00  0.00    +0.008 A 
ATOM    102  C   UNL     1       6.735   6.246  27.100  0.00  0.00    +0.012 A 
ENDBRANCH  92  93
ENDBRANCH  86  92
ENDBRANCH  84  86
ENDBRANCH  81  82
BRANCH  81 103
ATOM    103  C   UNL     1       4.302   6.121  22.128  0.00  0.00    +0.067 C 
BRANCH 103 104
ATOM    104  C   UNL     1       3.122   5.364  21.551  0.00  0.00    -0.045 A 
ATOM    105  C   UNL     1       2.523   5.796  20.360  0.00  0.00    +0.005 A 
ATOM    106  C   UNL     1       1.749   4.912  19.610  0.00  0.00    +0.020 A 
ATOM    107  C   UNL     1       1.482   3.637  20.096  0.00  0.00    +0.041 A 
ATOM    108 CL   UNL     1       0.640   2.502  19.122  0.00  0.00    -0.084 Cl
ATOM    109  C   UNL     1       1.926   3.267  21.365  0.00  0.00    +0.020 A 
ATOM    110  C   UNL     1       2.723   4.135  22.094  0.00  0.00    +0.005 A 
ENDBRANCH 103 104
ENDBRANCH  81 103
ENDBRANCH  79  81
ENDBRANCH  76  77
BRANCH  76 111
ATOM    111  C   UNL     1       1.827   6.100  26.876  0.00  0.00    +0.068 C 
BRANCH 111 112
ATOM    112  C   UNL     1       1.696   5.098  28.007  0.00  0.00    -0.027 A 
ATOM    113  C   UNL     1       2.638   4.107  28.300  0.00  0.00    +0.114 A 
ATOM    114  N   UNL     1       2.696   3.435  29.463  0.00  0.00    -0.263 NA
ATOM    115  C   UNL     1       1.746   3.714  30.371  0.00  0.00    +0.111 A 
ATOM    116  C   UNL     1       0.678   4.568  30.110  0.00  0.00    +0.020 A 
ATOM    117  C   UNL     1       0.650   5.255  28.910  0.00  0.00    +0.006 A 
ENDBRANCH 111 112
ENDBRANCH  76 111
ENDBRANCH  74  76
ENDBRANCH  71  72
BRANCH  71 118
ATOM    118  C   UNL     1       0.444   1.327  25.814  0.00  0.00    +0.187 C 
BRANCH 118 119
ATOM    119  O   UNL     1       0.720   0.753  24.531  0.00  0.00    -0.393 OA
ATOM    120  H   UNL     1       0.211  -0.076  24.458  0.00  0.00    +0.209 HD
ENDBRANCH 118 119
ENDBRANCH  71 118
ENDBRANCH  69  71
ENDBRANCH  66  67
BRANCH  66 121
ATOM    121  C   UNL     1       6.103   1.963  24.577  0.00  0.00    +0.067 C 
BRANCH 121 122
ATOM    122  C   UNL     1       7.380   1.650  23.819  0.00  0.00    -0.045 A 
ATOM    123  C   UNL     1       7.305   1.614  22.425  0.00  0.00    +0.007 A 
ATOM    124  C   UNL     1       8.444   1.881  21.677  0.00  0.00    +0.045 A 
ATOM    125  C   UNL     1       9.651   2.103  22.330  0.00  0.00    +0.117 A 
ATOM    126  C   UNL     1       9.777   1.883  23.692  0.00  0.00    +0.045 A 
ATOM    127  C   UNL     1       8.640   1.606  24.430  0.00  0.00    +0.007 A 
BRANCH 125 128
ATOM    128  O   UNL     1      10.716   2.535  21.597  0.00  0.00    -0.507 OA
ATOM    129  H   UNL     1      10.976   3.402  21.955  0.00  0.00    +0.292 HD
ENDBRANCH 125 128
ENDBRANCH 121 122
ENDBRANCH  66 121
ENDBRANCH   3  66
TORSDOF 46
ENDMDL
MODEL 4
REMARK VINA RESULT:       2.1      2.618      9.499
REMARK  Name = 
REMARK  54 active torsions:
REMARK  status: ('A' for Active; 'I' for Inactive)
REMARK    1  A    between atoms: C_1  and  C_2
REMARK    2  A    between atoms: C_2  and  N_3
REMARK    3  A    between atoms: N_5  and  C_6
REMARK    4  A    between atoms: C_6  and  C_7
REMARK    5  A    between atoms: N_8  and  C_9
REMARK    6  A    between atoms: C_9  and  C_10
REMARK    7  A    between atoms: C_10  and  C_11
REMARK    8  A    between atoms: C_11  and  C_12
REMARK    9  A    between atoms: C_12  and  C_13
REMARK   10  A    between atoms: C_13  and  N_15
REMARK   11  A    between atoms: C_13  and  C_80
REMARK   12  A    between atoms: C_16  and  C_18
REMARK   13  A    between atoms: C_18  and  C_20
REMARK   14  A    between atoms: C_18  and  N_28
REMARK   15  A    between atoms: C_20  and  C_21
REMARK   16  A    between atoms: C_24  and  O_25
REMARK   17  A    between atoms: C_29  and  CA_31
REMARK   18  A    between atoms: CA_31  and  C_33
REMARK   19  A    between atoms: CA_31  and  N_35
REMARK   20  A    between atoms: C_33  and  O_34
REMARK   21  A    between atoms: C_36  and  CA_38
REMARK   22  A    between atoms: CA_38  and  C_40
REMARK   23  A    between atoms: CA_38  and  N_47
REMARK   24  A    between atoms: C_40  and  C_41
REMARK   25  A    between atoms: C_48  and  CA_50
REMARK   26  A    between atoms: CA_50  and  C_52
REMARK   27  A    between atoms: CA_50  and  N_60
REMARK   28  A    between atoms: C_52  and  C_53
REMARK   29  A    between atoms: C_61  and  CA_63
REMARK   30  A    between atoms: CA_63  and  C_65
REMARK   31  A    between atoms: CA_63  and  N_76
REMARK   32  A    between atoms: C_65  and  C_66
REMARK   33  A    between atoms: C_77  and  C_78
REMARK   34  A    between atoms: N_82  and  C_83
REMARK   35  A    between atoms: C_83  and  C_85
REMARK   36  A    between atoms: C_83  and  C_89
REMARK   37  A    between atoms: C_85  and  C_86
REMARK   38  A    between atoms: C_86  and  C_87
REMARK   39  A    between atoms: C_86  and  C_88
REMARK   40  A    between atoms: N_91  and  C_92
REMARK   41  A    between atoms: C_92  and  C_94
REMARK   42  A    between atoms: C_92  and  C_106
REMARK   43  A    between atoms: C_94  and  C_95
REMARK   44  A    between atoms: C_95  and  C_96
REMARK   45  A    between atoms: C_96  and  C_97
REMARK   46  A    between atoms: C_97  and  N_98
REMARK   47  A    between atoms: N_100  and  C_101
REMARK   48  A    between atoms: C_101  and  C_102
REMARK   49  A    between atoms: N_103  and  C_104
REMARK   50  A    between atoms: C_104  and  C_105
REMARK   51  A    between atoms: C_112  and  C_114
REMARK   52  A    between atoms: N_116  and  C_117
REMARK   53  A    between atoms: C_117  and  C_119
REMARK   54  A    between atoms: C_117  and  C_120
REMARK                            x       y       z     vdW  Elec       q    Type
REMARK                         _______ _______ _______ _____ _____    ______ ____
ROOT
ATOM      1  N   UNL     1       4.804  -2.620  25.381  0.00  0.00    -0.302 N 
ATOM      2  H   UNL     1       5.663  -2.776  24.876  0.00  0.00    +0.150 HD
ATOM      3  C   UNL     1       3.594  -3.040  24.861  0.00  0.00    +0.234 C 
ATOM      4  O   UNL     1       2.531  -2.833  25.443  0.00  0.00    -0.274 OA
ENDROOT
BRANCH   1   5
ATOM      5  C   UNL     1       4.947  -2.058  26.730  0.00  0.00    +0.159 C 
BRANCH   5   6
ATOM      6  C   UNL     1       3.836  -0.979  26.969  0.00  0.00    +0.234 C 
ATOM      7  N   UNL     1       2.638  -1.438  27.485  0.00  0.00    -0.302 N 
ATOM      8  H   UNL     1       2.572  -2.392  27.815  0.00  0.00    +0.150 HD
ATOM      9  O   UNL     1       4.049   0.222  26.814  0.00  0.00    -0.274 OA
BRANCH   7  10
ATOM     10  C   UNL     1       1.422  -0.621  27.657  0.00  0.00    +0.159 C 
BRANCH  10  11
ATOM     11  C   UNL     1       1.847   0.829  28.038  0.00  0.00    +0.234 C 
ATOM     12  N   UNL     1       0.867   1.801  28.019  0.00  0.00    -0.302 N 
ATOM     13  H   UNL     1      -0.085   1.577  27.745  0.00  0.00    +0.150 HD
ATOM     14  O   UNL     1       3.013   1.072  28.373  0.00  0.00    -0.274 OA
BRANCH  12  15
ATOM     15  C   UNL     1       1.152   3.205  28.366  0.00  0.00    +0.159 C 
BRANCH  15  16
ATOM     16  C   UNL     1       1.133   4.150  27.121  0.00  0.00    +0.237 C 
ATOM     17  N   UNL     1       1.676   3.686  25.919  0.00  0.00    -0.288 N 
ATOM     18  C   UNL     1       2.283   4.637  24.965  0.00  0.00    +0.162 C 
ATOM     19  C   UNL     1       3.613   3.963  24.549  0.00  0.00    +0.033 C 
ATOM     20  C   UNL     1       3.670   2.643  25.313  0.00  0.00    +0.021 C 
ATOM     21  C   UNL     1       2.227   2.365  25.677  0.00  0.00    +0.109 C 
ATOM     22  O   UNL     1       0.671   5.298  27.194  0.00  0.00    -0.274 OA
BRANCH  18  23
ATOM     23  C   UNL     1       1.460   4.983  23.686  0.00  0.00    +0.234 C 
ATOM     24  N   UNL     1       1.843   4.350  22.528  0.00  0.00    -0.303 N 
ATOM     25  H   UNL     1       2.627   3.692  22.564  0.00  0.00    +0.149 HD
ATOM     26  O   UNL     1       0.451   5.674  23.733  0.00  0.00    -0.274 OA
BRANCH  24  27
ATOM     27  C   UNL     1       1.065   4.469  21.283  0.00  0.00    +0.156 C 
ATOM     28  C   UNL     1       1.513   3.481  20.204  0.00  0.00    +0.038 C 
BRANCH  27  29
ATOM     29  C   UNL     1       1.107   5.897  20.700  0.00  0.00    +0.231 C 
ATOM     30  O   UNL     1       1.007   6.923  21.366  0.00  0.00    -0.274 OA
ATOM     31  N   UNL     1       1.422   6.003  19.373  0.00  0.00    -0.328 N 
ATOM     32  H   UNL     1       1.546   6.960  19.063  0.00  0.00    +0.145 HD
ATOM     33  H   UNL     1       2.036   5.314  18.964  0.00  0.00    +0.145 HD
ENDBRANCH  27  29
ENDBRANCH  24  27
ENDBRANCH  18  23
ENDBRANCH  15  16
BRANCH  15  34
ATOM     34  C   UNL     1       2.416   3.339  29.241  0.00  0.00    +0.032 C 
BRANCH  34  35
ATOM     35  C   UNL     1       2.378   4.473  30.276  0.00  0.00    +0.005 C 
BRANCH  35  36
ATOM     36  C   UNL     1       3.326   5.652  29.974  0.00  0.00    +0.041 C 
BRANCH  36  37
ATOM     37  C   UNL     1       4.348   5.470  28.839  0.00  0.00    +0.243 C 
BRANCH  37  38
ATOM     38  N   UNL     1       5.700   5.758  29.306  0.00  0.00    -0.114 NA
ATOM     39  C   UNL     1       6.506   4.789  29.572  0.00  0.00    +0.381 C 
ATOM     40  N   UNL     1       7.777   5.015  30.005  0.00  0.00    -0.276 N 
ATOM     41  H   UNL     1       8.462   4.489  29.477  0.00  0.00    +0.258 HD
ATOM     42  N   UNL     1       6.264   3.435  29.487  0.00  0.00    -0.276 N 
ATOM     43  H   UNL     1       5.288   3.216  29.328  0.00  0.00    +0.258 HD
BRANCH  42  44
ATOM     44  C   UNL     1       6.908   2.480  30.397  0.00  0.00    +0.192 C 
ATOM     45  C   UNL     1       7.611   1.369  29.638  0.00  0.00    +0.044 C 
ENDBRANCH  42  44
BRANCH  40  46
ATOM     46  C   UNL     1       8.261   6.293  30.478  0.00  0.00    +0.192 C 
ATOM     47  C   UNL     1       8.708   7.105  29.269  0.00  0.00    +0.044 C 
ENDBRANCH  40  46
ENDBRANCH  37  38
ENDBRANCH  36  37
ENDBRANCH  35  36
ENDBRANCH  34  35
ENDBRANCH  15  34
ENDBRANCH  12  15
ENDBRANCH  10  11
BRANCH  10  48
ATOM     48  C   UNL     1       0.443  -1.218  28.697  0.00  0.00    +0.034 C 
BRANCH  48  49
ATOM     49  C   UNL     1       1.056  -2.175  29.749  0.00  0.00    -0.015 C 
ATOM     50  C   UNL     1       2.238  -1.568  30.485  0.00  0.00    +0.007 C 
ATOM     51  C   UNL     1       1.541  -3.482  29.112  0.00  0.00    +0.007 C 
ENDBRANCH  48  49
ENDBRANCH  10  48
ENDBRANCH   7  10
ENDBRANCH   5   6
BRANCH   5  52
ATOM     52  C   UNL     1       4.874  -3.179  27.799  0.00  0.00    +0.032 C 
BRANCH  52  53
ATOM     53  C   UNL     1       5.596  -4.478  27.383  0.00  0.00    +0.005 C 
BRANCH  53  54
ATOM     54  C   UNL     1       4.703  -5.477  26.619  0.00  0.00    +0.041 C 
BRANCH  54  55
ATOM     55  C   UNL     1       4.917  -6.914  27.128  0.00  0.00    +0.243 C 
BRANCH  55  59
ATOM     56  N   UNL     1       2.524  -7.732  29.813  0.00  0.00    -0.276 N 
ATOM     57  H   UNL     1       2.424  -7.525  30.795  0.00  0.00    +0.258 HD
ATOM     58  C   UNL     1       3.652  -7.269  29.183  0.00  0.00    +0.381 C 
ATOM     59  N   UNL     1       3.793  -7.404  27.915  0.00  0.00    -0.114 NA
ATOM     60  N   UNL     1       4.464  -6.731  30.139  0.00  0.00    -0.276 N 
ATOM     61  H   UNL     1       4.020  -6.538  31.023  0.00  0.00    +0.258 HD
BRANCH  60  62
ATOM     62  C   UNL     1       5.657  -5.956  29.934  0.00  0.00    +0.192 C 
ATOM     63  C   UNL     1       6.781  -6.865  29.485  0.00  0.00    +0.044 C 
ENDBRANCH  60  62
BRANCH  56  65
ATOM     64  C   UNL     1       0.532  -6.583  29.011  0.00  0.00    +0.044 C 
ATOM     65  C   UNL     1       1.257  -7.916  29.125  0.00  0.00    +0.192 C 
ENDBRANCH  56  65
ENDBRANCH  55  59
ENDBRANCH  54  55
ENDBRANCH  53  54
ENDBRANCH  52  53
ENDBRANCH   5  52
ENDBRANCH   1   5
BRANCH   3  66
ATOM     66  C   UNL     1       3.632  -3.770  23.474  0.00  0.00    +0.163 C 
BRANCH  66  67
ATOM     67  N   UNL     1       4.970  -4.324  23.196  0.00  0.00    -0.302 N 
ATOM     68  H   UNL     1       5.579  -4.407  23.991  0.00  0.00    +0.150 HD
ATOM     69  C   UNL     1       5.548  -4.397  21.953  0.00  0.00    +0.236 C 
ATOM     70  O   UNL     1       4.953  -4.057  20.932  0.00  0.00    -0.274 OA
BRANCH  69  71
ATOM     71  CA  UNL     1       6.990  -4.987  21.898  0.00  0.00    +0.184 C 
BRANCH  71  72
ATOM     72  N   UNL     1       8.031  -3.961  21.992  0.00  0.00    -0.301 N 
ATOM     73  H   UNL     1       8.920  -4.243  21.606  0.00  0.00    +0.150 HD
ATOM     74  C   UNL     1       8.026  -2.974  22.952  0.00  0.00    +0.234 C 
ATOM     75  O   UNL     1       7.142  -2.914  23.803  0.00  0.00    -0.274 OA
BRANCH  74  76
ATOM     76  CA  UNL     1       9.167  -1.899  22.869  0.00  0.00    +0.163 C 
BRANCH  76  77
ATOM     77  N   UNL     1       9.095  -1.081  24.100  0.00  0.00    -0.302 N 
ATOM     78  H   UNL     1       9.973  -1.029  24.591  0.00  0.00    +0.150 HD
ATOM     79  C   UNL     1       7.994  -0.467  24.650  0.00  0.00    +0.234 C 
ATOM     80  O   UNL     1       6.910  -0.431  24.060  0.00  0.00    -0.274 OA
BRANCH  79  81
ATOM     81  CA  UNL     1       8.123   0.148  26.095  0.00  0.00    +0.163 C 
BRANCH  81  82
ATOM     82  N   UNL     1       8.361   1.582  25.860  0.00  0.00    -0.302 N 
ATOM     83  H   UNL     1       9.113   1.746  25.195  0.00  0.00    +0.150 HD
ATOM     84  C   UNL     1       7.414   2.571  25.986  0.00  0.00    +0.234 C 
ATOM     85  O   UNL     1       6.246   2.336  26.297  0.00  0.00    -0.274 OA
BRANCH  84  86
ATOM     86  CA  UNL     1       7.924   4.032  25.834  0.00  0.00    +0.163 C 
BRANCH  86  87
ATOM     87  N   UNL     1       7.000   4.954  26.488  0.00  0.00    -0.304 N 
ATOM     88  H   UNL     1       7.069   5.064  27.491  0.00  0.00    +0.149 HD
ATOM     89  C   UNL     1       6.068   5.669  25.783  0.00  0.00    +0.211 C 
ATOM     90  O   UNL     1       5.919   5.569  24.568  0.00  0.00    -0.276 OA
ATOM     91  C   UNL     1       5.242   6.610  26.612  0.00  0.00    +0.109 C 
ENDBRANCH  86  87
BRANCH  86  92
ATOM     92  C   UNL     1       8.307   4.427  24.402  0.00  0.00    +0.067 C 
BRANCH  92  93
ATOM     93  C   UNL     1       9.573   5.234  24.261  0.00  0.00    -0.045 A 
ATOM     94  C   UNL     1       9.960   6.164  25.233  0.00  0.00    +0.004 A 
ATOM     95  C   UNL     1      11.205   6.790  25.148  0.00  0.00    +0.009 A 
ATOM     96  C   UNL     1      12.087   6.489  24.093  0.00  0.00    -0.018 A 
ATOM     97  C   UNL     1      11.675   5.591  23.084  0.00  0.00    -0.018 A 
ATOM     98  C   UNL     1      12.539   5.293  22.021  0.00  0.00    +0.008 A 
ATOM     99  C   UNL     1      13.812   5.859  21.969  0.00  0.00    +0.001 A 
ATOM    100  C   UNL     1      14.229   6.724  22.972  0.00  0.00    +0.001 A 
ATOM    101  C   UNL     1      13.371   7.047  24.025  0.00  0.00    +0.008 A 
ATOM    102  C   UNL     1      10.417   4.985  23.177  0.00  0.00    +0.012 A 
ENDBRANCH  92  93
ENDBRANCH  86  92
ENDBRANCH  84  86
ENDBRANCH  81  82
BRANCH  81 103
ATOM    103  C   UNL     1       9.152  -0.521  27.047  0.00  0.00    +0.067 C 
BRANCH 103 104
ATOM    104  C   UNL     1       9.094  -2.036  27.035  0.00  0.00    -0.045 A 
ATOM    105  C   UNL     1       7.902  -2.692  26.694  0.00  0.00    +0.005 A 
ATOM    106  C   UNL     1       7.935  -4.020  26.273  0.00  0.00    +0.020 A 
ATOM    107  C   UNL     1       9.133  -4.727  26.293  0.00  0.00    +0.041 A 
ATOM    108 CL   UNL     1       9.205  -6.319  25.656  0.00  0.00    -0.084 Cl
ATOM    109  C   UNL     1      10.286  -4.131  26.804  0.00  0.00    +0.020 A 
ATOM    110  C   UNL     1      10.258  -2.801  27.191  0.00  0.00    +0.005 A 
ENDBRANCH 103 104
ENDBRANCH  81 103
ENDBRANCH  79  81
ENDBRANCH  76  77
BRANCH  76 111
ATOM    111  C   UNL     1       9.055  -1.047  21.596  0.00  0.00    +0.068 C 
BRANCH 111 112
ATOM    112  C   UNL     1       8.583   0.382  21.784  0.00  0.00    -0.027 A 
ATOM    113  C   UNL     1       9.426   1.497  21.816  0.00  0.00    +0.114 A 
ATOM    114  N   UNL     1       9.012   2.766  21.663  0.00  0.00    -0.263 NA
ATOM    115  C   UNL     1       7.690   2.959  21.521  0.00  0.00    +0.111 A 
ATOM    116  C   UNL     1       6.760   1.930  21.634  0.00  0.00    +0.020 A 
ATOM    117  C   UNL     1       7.214   0.631  21.780  0.00  0.00    +0.006 A 
ENDBRANCH 111 112
ENDBRANCH  76 111
ENDBRANCH  74  76
ENDBRANCH  71  72
BRANCH  71 118
ATOM    118  C   UNL     1       7.290  -6.187  22.802  0.00  0.00    +0.187 C 
BRANCH 118 119
ATOM    119  O   UNL     1       8.598  -6.707  22.538  0.00  0.00    -0.393 OA
ATOM    120  H   UNL     1       9.112  -6.658  23.365  0.00  0.00    +0.209 HD
ENDBRANCH 118 119
ENDBRANCH  71 118
ENDBRANCH  69  71
ENDBRANCH  66  67
BRANCH  66 121
ATOM    121  C   UNL     1       2.538  -4.846  23.281  0.00  0.00    +0.067 C 
BRANCH 121 122
ATOM    122  C   UNL     1       2.607  -6.058  24.192  0.00  0.00    -0.045 A 
ATOM    123  C   UNL     1       1.575  -6.222  25.120  0.00  0.00    +0.007 A 
ATOM    124  C   UNL     1       1.268  -7.498  25.573  0.00  0.00    +0.045 A 
ATOM    125  C   UNL     1       2.041  -8.574  25.154  0.00  0.00    +0.117 A 
ATOM    126  C   UNL     1       3.215  -8.378  24.446  0.00  0.00    +0.045 A 
ATOM    127  C   UNL     1       3.522  -7.102  24.006  0.00  0.00    +0.007 A 
BRANCH 125 128
ATOM    128  O   UNL     1       1.623  -9.834  25.466  0.00  0.00    -0.507 OA
ATOM    129  H   UNL     1       2.420 -10.368  25.624  0.00  0.00    +0.292 HD
ENDBRANCH 125 128
ENDBRANCH 121 122
ENDBRANCH  66 121
ENDBRANCH   3  66
TORSDOF 46
ENDMDL
MODEL 5
REMARK VINA RESULT:       3.6      1.418      2.163
REMARK  Name = 
REMARK  54 active torsions:
REMARK  status: ('A' for Active; 'I' for Inactive)
REMARK    1  A    between atoms: C_1  and  C_2
REMARK    2  A    between atoms: C_2  and  N_3
REMARK    3  A    between atoms: N_5  and  C_6
REMARK    4  A    between atoms: C_6  and  C_7
REMARK    5  A    between atoms: N_8  and  C_9
REMARK    6  A    between atoms: C_9  and  C_10
REMARK    7  A    between atoms: C_10  and  C_11
REMARK    8  A    between atoms: C_11  and  C_12
REMARK    9  A    between atoms: C_12  and  C_13
REMARK   10  A    between atoms: C_13  and  N_15
REMARK   11  A    between atoms: C_13  and  C_80
REMARK   12  A    between atoms: C_16  and  C_18
REMARK   13  A    between atoms: C_18  and  C_20
REMARK   14  A    between atoms: C_18  and  N_28
REMARK   15  A    between atoms: C_20  and  C_21
REMARK   16  A    between atoms: C_24  and  O_25
REMARK   17  A    between atoms: C_29  and  CA_31
REMARK   18  A    between atoms: CA_31  and  C_33
REMARK   19  A    between atoms: CA_31  and  N_35
REMARK   20  A    between atoms: C_33  and  O_34
REMARK   21  A    between atoms: C_36  and  CA_38
REMARK   22  A    between atoms: CA_38  and  C_40
REMARK   23  A    between atoms: CA_38  and  N_47
REMARK   24  A    between atoms: C_40  and  C_41
REMARK   25  A    between atoms: C_48  and  CA_50
REMARK   26  A    between atoms: CA_50  and  C_52
REMARK   27  A    between atoms: CA_50  and  N_60
REMARK   28  A    between atoms: C_52  and  C_53
REMARK   29  A    between atoms: C_61  and  CA_63
REMARK   30  A    between atoms: CA_63  and  C_65
REMARK   31  A    between atoms: CA_63  and  N_76
REMARK   32  A    between atoms: C_65  and  C_66
REMARK   33  A    between atoms: C_77  and  C_78
REMARK   34  A    between atoms: N_82  and  C_83
REMARK   35  A    between atoms: C_83  and  C_85
REMARK   36  A    between atoms: C_83  and  C_89
REMARK   37  A    between atoms: C_85  and  C_86
REMARK   38  A    between atoms: C_86  and  C_87
REMARK   39  A    between atoms: C_86  and  C_88
REMARK   40  A    between atoms: N_91  and  C_92
REMARK   41  A    between atoms: C_92  and  C_94
REMARK   42  A    between atoms: C_92  and  C_106
REMARK   43  A    between atoms: C_94  and  C_95
REMARK   44  A    between atoms: C_95  and  C_96
REMARK   45  A    between atoms: C_96  and  C_97
REMARK   46  A    between atoms: C_97  and  N_98
REMARK   47  A    between atoms: N_100  and  C_101
REMARK   48  A    between atoms: C_101  and  C_102
REMARK   49  A    between atoms: N_103  and  C_104
REMARK   50  A    between atoms: C_104  and  C_105
REMARK   51  A    between atoms: C_112  and  C_114
REMARK   52  A    between atoms: N_116  and  C_117
REMARK   53  A    between atoms: C_117  and  C_119
REMARK   54  A    between atoms: C_117  and  C_120
REMARK                            x       y       z     vdW  Elec       q    Type
REMARK                         _______ _______ _______ _____ _____    ______ ____
ROOT
ATOM      1  N   UNL     1       8.555   0.455  23.428  0.00  0.00    -0.302 N 
ATOM      2  H   UNL     1       9.162   0.022  24.107  0.00  0.00    +0.150 HD
ATOM      3  C   UNL     1       8.209  -0.211  22.266  0.00  0.00    +0.234 C 
ATOM      4  O   UNL     1       7.497   0.308  21.409  0.00  0.00    -0.274 OA
ENDROOT
BRANCH   1   5
ATOM      5  C   UNL     1       7.974   1.746  23.817  0.00  0.00    +0.159 C 
BRANCH   5   6
ATOM      6  C   UNL     1       6.537   1.519  24.399  0.00  0.00    +0.234 C 
ATOM      7  N   UNL     1       5.510   2.199  23.771  0.00  0.00    -0.302 N 
ATOM      8  H   UNL     1       5.692   2.685  22.904  0.00  0.00    +0.150 HD
ATOM      9  O   UNL     1       6.315   0.699  25.288  0.00  0.00    -0.274 OA
BRANCH   7  10
ATOM     10  C   UNL     1       4.111   2.236  24.239  0.00  0.00    +0.159 C 
BRANCH  10  11
ATOM     11  C   UNL     1       3.304   3.199  23.318  0.00  0.00    +0.234 C 
ATOM     12  N   UNL     1       1.981   3.425  23.644  0.00  0.00    -0.302 N 
ATOM     13  H   UNL     1       1.552   2.960  24.438  0.00  0.00    +0.150 HD
ATOM     14  O   UNL     1       3.853   3.755  22.359  0.00  0.00    -0.274 OA
BRANCH  12  15
ATOM     15  C   UNL     1       1.122   4.320  22.847  0.00  0.00    +0.159 C 
BRANCH  15  16
ATOM     16  C   UNL     1       1.076   3.924  21.336  0.00  0.00    +0.237 C 
ATOM     17  N   UNL     1       1.437   4.880  20.381  0.00  0.00    -0.288 N 
ATOM     18  C   UNL     1       0.828   4.849  19.036  0.00  0.00    +0.162 C 
ATOM     19  C   UNL     1       0.443   6.323  18.757  0.00  0.00    +0.033 C 
ATOM     20  C   UNL     1       0.872   7.108  19.993  0.00  0.00    +0.021 C 
ATOM     21  C   UNL     1       1.914   6.224  20.648  0.00  0.00    +0.109 C 
ATOM     22  O   UNL     1       0.703   2.797  20.980  0.00  0.00    -0.274 OA
BRANCH  18  23
ATOM     23  C   UNL     1       1.714   4.320  17.867  0.00  0.00    +0.234 C 
ATOM     24  N   UNL     1       1.909   5.181  16.814  0.00  0.00    -0.303 N 
ATOM     25  H   UNL     1       1.479   6.109  16.853  0.00  0.00    +0.149 HD
ATOM     26  O   UNL     1       2.310   3.252  17.939  0.00  0.00    -0.274 OA
BRANCH  24  27
ATOM     27  C   UNL     1       2.841   4.869  15.717  0.00  0.00    +0.156 C 
ATOM     28  C   UNL     1       4.157   5.645  15.815  0.00  0.00    +0.038 C 
BRANCH  27  29
ATOM     29  C   UNL     1       2.217   5.120  14.328  0.00  0.00    +0.231 C 
ATOM     30  O   UNL     1       1.410   4.373  13.784  0.00  0.00    -0.274 OA
ATOM     31  N   UNL     1       2.484   6.332  13.752  0.00  0.00    -0.328 N 
ATOM     32  H   UNL     1       1.966   6.493  12.896  0.00  0.00    +0.145 HD
ATOM     33  H   UNL     1       2.628   7.132  14.350  0.00  0.00    +0.145 HD
ENDBRANCH  27  29
ENDBRANCH  24  27
ENDBRANCH  18  23
ENDBRANCH  15  16
BRANCH  15  34
ATOM     34  C   UNL     1       1.445   5.808  23.101  0.00  0.00    +0.032 C 
BRANCH  34  35
ATOM     35  C   UNL     1       1.021   6.344  24.476  0.00  0.00    +0.005 C 
BRANCH  35  36
ATOM     36  C   UNL     1       2.190   6.752  25.395  0.00  0.00    +0.041 C 
BRANCH  36  37
ATOM     37  C   UNL     1       3.534   6.026  25.204  0.00  0.00    +0.243 C 
BRANCH  37  38
ATOM     38  N   UNL     1       4.366   6.152  26.396  0.00  0.00    -0.114 NA
ATOM     39  C   UNL     1       3.834   6.034  27.564  0.00  0.00    +0.381 C 
ATOM     40  N   UNL     1       4.576   6.139  28.701  0.00  0.00    -0.276 N 
ATOM     41  H   UNL     1       4.413   5.370  29.338  0.00  0.00    +0.258 HD
ATOM     42  N   UNL     1       2.511   5.805  27.876  0.00  0.00    -0.276 N 
ATOM     43  H   UNL     1       1.897   5.882  27.075  0.00  0.00    +0.258 HD
BRANCH  42  44
ATOM     44  C   UNL     1       1.905   6.346  29.099  0.00  0.00    +0.192 C 
ATOM     45  C   UNL     1       0.516   5.780  29.333  0.00  0.00    +0.044 C 
ENDBRANCH  42  44
BRANCH  40  46
ATOM     46  C   UNL     1       5.924   6.660  28.748  0.00  0.00    +0.192 C 
ATOM     47  C   UNL     1       6.874   5.490  28.972  0.00  0.00    +0.044 C 
ENDBRANCH  40  46
ENDBRANCH  37  38
ENDBRANCH  36  37
ENDBRANCH  35  36
ENDBRANCH  34  35
ENDBRANCH  15  34
ENDBRANCH  12  15
ENDBRANCH  10  11
BRANCH  10  48
ATOM     48  C   UNL     1       3.990   2.640  25.729  0.00  0.00    +0.034 C 
BRANCH  48  49
ATOM     49  C   UNL     1       3.043   1.779  26.601  0.00  0.00    -0.015 C 
ATOM     50  C   UNL     1       3.618   0.413  26.930  0.00  0.00    +0.007 C 
ATOM     51  C   UNL     1       1.693   1.551  25.914  0.00  0.00    +0.007 C 
ENDBRANCH  48  49
ENDBRANCH  10  48
ENDBRANCH   7  10
ENDBRANCH   5   6
BRANCH   5  52
ATOM     52  C   UNL     1       8.885   2.467  24.843  0.00  0.00    +0.032 C 
BRANCH  52  53
ATOM     53  C   UNL     1      10.255   2.885  24.268  0.00  0.00    +0.005 C 
BRANCH  53  54
ATOM     54  C   UNL     1      10.258   3.091  22.740  0.00  0.00    +0.041 C 
BRANCH  54  55
ATOM     55  C   UNL     1       9.343   4.261  22.336  0.00  0.00    +0.243 C 
BRANCH  55  59
ATOM     56  N   UNL     1       8.080   6.835  24.656  0.00  0.00    -0.276 N 
ATOM     57  H   UNL     1       7.216   7.335  24.798  0.00  0.00    +0.258 HD
ATOM     58  C   UNL     1       8.147   5.982  23.583  0.00  0.00    +0.381 C 
ATOM     59  N   UNL     1       9.175   5.237  23.404  0.00  0.00    -0.114 NA
ATOM     60  N   UNL     1       7.001   6.143  22.860  0.00  0.00    -0.276 N 
ATOM     61  H   UNL     1       6.251   6.617  23.339  0.00  0.00    +0.258 HD
BRANCH  60  62
ATOM     62  C   UNL     1       6.537   5.332  21.767  0.00  0.00    +0.192 C 
ATOM     63  C   UNL     1       5.119   4.878  22.040  0.00  0.00    +0.044 C 
ENDBRANCH  60  62
BRANCH  56  65
ATOM     64  C   UNL     1      10.329   6.718  25.586  0.00  0.00    +0.044 C 
ATOM     65  C   UNL     1       8.837   6.623  25.878  0.00  0.00    +0.192 C 
ENDBRANCH  56  65
ENDBRANCH  55  59
ENDBRANCH  54  55
ENDBRANCH  53  54
ENDBRANCH  52  53
ENDBRANCH   5  52
ENDBRANCH   1   5
BRANCH   3  66
ATOM     66  C   UNL     1       8.790  -1.655  22.075  0.00  0.00    +0.163 C 
BRANCH  66  67
ATOM     67  N   UNL     1       8.804  -2.401  23.348  0.00  0.00    -0.302 N 
ATOM     68  H   UNL     1       7.955  -2.890  23.573  0.00  0.00    +0.150 HD
ATOM     69  C   UNL     1       9.702  -2.201  24.365  0.00  0.00    +0.236 C 
ATOM     70  O   UNL     1      10.637  -1.406  24.269  0.00  0.00    -0.274 OA
BRANCH  69  71
ATOM     71  CA  UNL     1       9.507  -3.078  25.638  0.00  0.00    +0.184 C 
BRANCH  71  72
ATOM     72  N   UNL     1       8.474  -2.557  26.538  0.00  0.00    -0.301 N 
ATOM     73  H   UNL     1       7.583  -3.023  26.451  0.00  0.00    +0.150 HD
ATOM     74  C   UNL     1       8.487  -1.272  27.030  0.00  0.00    +0.234 C 
ATOM     75  O   UNL     1       9.372  -0.478  26.720  0.00  0.00    -0.274 OA
BRANCH  74  76
ATOM     76  CA  UNL     1       7.356  -0.891  28.049  0.00  0.00    +0.163 C 
BRANCH  76  77
ATOM     77  N   UNL     1       6.103  -1.516  27.573  0.00  0.00    -0.302 N 
ATOM     78  H   UNL     1       5.727  -1.071  26.751  0.00  0.00    +0.150 HD
ATOM     79  C   UNL     1       5.399  -2.552  28.142  0.00  0.00    +0.234 C 
ATOM     80  O   UNL     1       5.846  -3.188  29.102  0.00  0.00    -0.274 OA
BRANCH  79  81
ATOM     81  CA  UNL     1       3.965  -2.882  27.579  0.00  0.00    +0.163 C 
BRANCH  81  82
ATOM     82  N   UNL     1       3.416  -3.860  28.534  0.00  0.00    -0.302 N 
ATOM     83  H   UNL     1       4.143  -4.339  29.059  0.00  0.00    +0.150 HD
ATOM     84  C   UNL     1       2.174  -3.781  29.119  0.00  0.00    +0.234 C 
ATOM     85  O   UNL     1       1.397  -2.849  28.905  0.00  0.00    -0.274 OA
BRANCH  84  86
ATOM     86  CA  UNL     1       1.743  -5.001  29.981  0.00  0.00    +0.163 C 
BRANCH  86  87
ATOM     87  N   UNL     1       2.918  -5.768  30.385  0.00  0.00    -0.304 N 
ATOM     88  H   UNL     1       3.191  -5.741  31.359  0.00  0.00    +0.149 HD
ATOM     89  C   UNL     1       3.637  -6.517  29.492  0.00  0.00    +0.211 C 
ATOM     90  O   UNL     1       3.371  -6.578  28.295  0.00  0.00    -0.276 OA
ATOM     91  C   UNL     1       4.779  -7.285  30.094  0.00  0.00    +0.109 C 
ENDBRANCH  86  87
BRANCH  86  92
ATOM     92  C   UNL     1       0.614  -5.843  29.372  0.00  0.00    +0.067 C 
BRANCH  92  93
ATOM     93  C   UNL     1       0.808  -6.258  27.936  0.00  0.00    -0.045 A 
ATOM     94  C   UNL     1       0.787  -7.604  27.553  0.00  0.00    +0.004 A 
ATOM     95  C   UNL     1       0.825  -7.949  26.200  0.00  0.00    +0.009 A 
ATOM     96  C   UNL     1       0.876  -6.951  25.208  0.00  0.00    -0.018 A 
ATOM     97  C   UNL     1       0.951  -5.595  25.596  0.00  0.00    -0.018 A 
ATOM     98  C   UNL     1       1.016  -4.593  24.618  0.00  0.00    +0.008 A 
ATOM     99  C   UNL     1       0.980  -4.927  23.265  0.00  0.00    +0.001 A 
ATOM    100  C   UNL     1       0.882  -6.258  22.881  0.00  0.00    +0.001 A 
ATOM    101  C   UNL     1       0.840  -7.267  23.843  0.00  0.00    +0.008 A 
ATOM    102  C   UNL     1       0.927  -5.269  26.957  0.00  0.00    +0.012 A 
ENDBRANCH  92  93
ENDBRANCH  86  92
ENDBRANCH  84  86
ENDBRANCH  81  82
BRANCH  81 103
ATOM    103  C   UNL     1       3.887  -3.330  26.094  0.00  0.00    +0.067 C 
BRANCH 103 104
ATOM    104  C   UNL     1       4.773  -4.516  25.770  0.00  0.00    -0.045 A 
ATOM    105  C   UNL     1       4.486  -5.328  24.663  0.00  0.00    +0.005 A 
ATOM    106  C   UNL     1       5.483  -6.131  24.112  0.00  0.00    +0.020 A 
ATOM    107  C   UNL     1       6.730  -6.210  24.723  0.00  0.00    +0.041 A 
ATOM    108 CL   UNL     1       8.000  -7.094  23.980  0.00  0.00    -0.084 Cl
ATOM    109  C   UNL     1       6.959  -5.544  25.927  0.00  0.00    +0.020 A 
ATOM    110  C   UNL     1       5.979  -4.721  26.454  0.00  0.00    +0.005 A 
ENDBRANCH 103 104
ENDBRANCH  81 103
ENDBRANCH  79  81
ENDBRANCH  76  77
BRANCH  76 111
ATOM    111  C   UNL     1       7.225   0.630  28.212  0.00  0.00    +0.068 C 
BRANCH 111 112
ATOM    112  C   UNL     1       6.001   1.121  28.962  0.00  0.00    -0.027 A 
ATOM    113  C   UNL     1       5.410   2.375  28.779  0.00  0.00    +0.114 A 
ATOM    114  N   UNL     1       4.171   2.697  29.188  0.00  0.00    -0.263 NA
ATOM    115  C   UNL     1       3.491   1.753  29.861  0.00  0.00    +0.111 A 
ATOM    116  C   UNL     1       4.053   0.534  30.228  0.00  0.00    +0.020 A 
ATOM    117  C   UNL     1       5.326   0.224  29.784  0.00  0.00    +0.006 A 
ENDBRANCH 111 112
ENDBRANCH  76 111
ENDBRANCH  74  76
ENDBRANCH  71  72
BRANCH  71 118
ATOM    118  C   UNL     1       9.373  -4.590  25.432  0.00  0.00    +0.187 C 
BRANCH 118 119
ATOM    119  O   UNL     1       9.902  -5.304  26.556  0.00  0.00    -0.393 OA
ATOM    120  H   UNL     1      10.463  -4.690  27.064  0.00  0.00    +0.209 HD
ENDBRANCH 118 119
ENDBRANCH  71 118
ENDBRANCH  69  71
ENDBRANCH  66  67
BRANCH  66 121
ATOM    121  C   UNL     1       8.110  -2.482  20.958  0.00  0.00    +0.067 C 
BRANCH 121 122
ATOM    122  C   UNL     1       7.503  -3.811  21.369  0.00  0.00    -0.045 A 
ATOM    123  C   UNL     1       6.145  -3.822  21.697  0.00  0.00    +0.007 A 
ATOM    124  C   UNL     1       5.420  -4.996  21.544  0.00  0.00    +0.045 A 
ATOM    125  C   UNL     1       6.076  -6.154  21.143  0.00  0.00    +0.117 A 
ATOM    126  C   UNL     1       7.458  -6.203  21.071  0.00  0.00    +0.045 A 
ATOM    127  C   UNL     1       8.176  -5.032  21.235  0.00  0.00    +0.007 A 
BRANCH 125 128
ATOM    128  O   UNL     1       5.327  -7.249  20.830  0.00  0.00    -0.507 OA
ATOM    129  H   UNL     1       5.223  -7.256  19.862  0.00  0.00    +0.292 HD
ENDBRANCH 125 128
ENDBRANCH 121 122
ENDBRANCH  66 121
ENDBRANCH   3  66
TORSDOF 46
ENDMDL
