MODEL 1
REMARK VINA RESULT:      -6.6      0.000      0.000
REMARK  Name = 
REMARK  8 active torsions:
REMARK  status: ('A' for Active; 'I' for Inactive)
REMARK    1  A    between atoms: C_2  and  C_3
REMARK    2  A    between atoms: C_2  and  N_4
REMARK    3  A    between atoms: C_2  and  C_16
REMARK    4  A    between atoms: C_9  and  C_10
REMARK    5  A    between atoms: C_9  and  C_12
REMARK    6  A    between atoms: C_12  and  C_13
REMARK    7  A    between atoms: C_12  and  C_14
REMARK    8  A    between atoms: C_12  and  O_15
REMARK                            x       y       z     vdW  Elec       q    Type
REMARK                         _______ _______ _______ _____ _____    ______ ____
ROOT
ATOM      1  N   UNL     1       7.195  -1.702  24.618  0.00  0.00    -0.319 N 
ATOM      2  H   UNL     1       6.241  -1.665  24.274  0.00  0.00    +0.148 HD
ATOM      3  C   UNL     1       7.944  -0.614  24.282  0.00  0.00    +0.148 C 
ATOM      4  S   UNL     1       7.060   0.735  23.627  0.00  0.00    -0.074 S 
ATOM      5  C   UNL     1       8.655   1.534  23.102  0.00  0.00    +0.126 C 
ATOM      6  C   UNL     1       8.827   1.204  21.610  0.00  0.00    +0.036 C 
ATOM      7  C   UNL     1       9.687   0.713  23.891  0.00  0.00    +0.257 C 
ATOM      8  O   UNL     1      10.856   1.060  24.022  0.00  0.00    -0.272 OA
ATOM      9  N   UNL     1       9.221  -0.493  24.365  0.00  0.00    -0.158 NA
ENDROOT
BRANCH   5  10
ATOM     10  C   UNL     1       8.706   3.069  23.406  0.00  0.00    +0.084 C 
ATOM     11  C   UNL     1       8.565   3.415  24.901  0.00  0.00    +0.043 C 
ATOM     12  C   UNL     1       7.670   3.892  22.621  0.00  0.00    +0.043 C 
BRANCH  10  13
ATOM     13  O   UNL     1      10.013   3.556  23.023  0.00  0.00    -0.387 OA
ATOM     14  H   UNL     1      10.420   2.904  22.425  0.00  0.00    +0.210 HD
ENDBRANCH  10  13
ENDBRANCH   5  10
BRANCH   1  15
ATOM     15  C   UNL     1       7.784  -3.034  24.658  0.00  0.00    +0.099 C 
ATOM     16  C   UNL     1       7.498  -3.716  25.996  0.00  0.00    +0.033 C 
BRANCH  15  17
ATOM     17  C   UNL     1       7.279  -3.869  23.489  0.00  0.00    -0.027 A 
ATOM     18  C   UNL     1       6.422  -3.284  22.540  0.00  0.00    +0.008 A 
ATOM     19  C   UNL     1       5.988  -4.009  21.427  0.00  0.00    +0.038 A 
ATOM     20  C   UNL     1       6.402  -5.324  21.262  0.00  0.00    +0.123 A 
ATOM     21  F   UNL     1       6.000  -6.011  20.186  0.00  0.00    -0.205 F 
ATOM     22  C   UNL     1       7.232  -5.933  22.195  0.00  0.00    +0.038 A 
ATOM     23  C   UNL     1       7.667  -5.209  23.310  0.00  0.00    +0.008 A 
ENDBRANCH  15  17
ENDBRANCH   1  15
TORSDOF 4
ENDMDL
MODEL 2
REMARK VINA RESULT:      -6.6      1.979      2.237
REMARK  Name = 
REMARK  8 active torsions:
REMARK  status: ('A' for Active; 'I' for Inactive)
REMARK    1  A    between atoms: C_2  and  C_3
REMARK    2  A    between atoms: C_2  and  N_4
REMARK    3  A    between atoms: C_2  and  C_16
REMARK    4  A    between atoms: C_9  and  C_10
REMARK    5  A    between atoms: C_9  and  C_12
REMARK    6  A    between atoms: C_12  and  C_13
REMARK    7  A    between atoms: C_12  and  C_14
REMARK    8  A    between atoms: C_12  and  O_15
REMARK                            x       y       z     vdW  Elec       q    Type
REMARK                         _______ _______ _______ _____ _____    ______ ____
ROOT
ATOM      1  N   UNL     1       9.107  -2.860  24.976  0.00  0.00    -0.319 N 
ATOM      2  H   UNL     1       8.622  -2.700  25.853  0.00  0.00    +0.148 HD
ATOM      3  C   UNL     1       9.124  -1.776  24.150  0.00  0.00    +0.148 C 
ATOM      4  S   UNL     1       8.609  -0.276  24.866  0.00  0.00    -0.074 S 
ATOM      5  C   UNL     1       8.529   0.508  23.182  0.00  0.00    +0.126 C 
ATOM      6  C   UNL     1       7.052   0.457  22.757  0.00  0.00    +0.036 C 
ATOM      7  C   UNL     1       9.302  -0.509  22.329  0.00  0.00    +0.257 C 
ATOM      8  O   UNL     1       9.694  -0.266  21.193  0.00  0.00    -0.272 OA
ATOM      9  N   UNL     1       9.443  -1.752  22.905  0.00  0.00    -0.158 NA
ENDROOT
BRANCH   5  10
ATOM     10  C   UNL     1       9.134   1.952  23.143  0.00  0.00    +0.084 C 
ATOM     11  C   UNL     1      10.556   2.049  23.728  0.00  0.00    +0.043 C 
ATOM     12  C   UNL     1       8.257   3.012  23.831  0.00  0.00    +0.043 C 
BRANCH  10  13
ATOM     13  O   UNL     1       9.264   2.343  21.756  0.00  0.00    -0.387 OA
ATOM     14  H   UNL     1      10.161   2.696  21.621  0.00  0.00    +0.210 HD
ENDBRANCH  10  13
ENDBRANCH   5  10
BRANCH   1  15
ATOM     15  C   UNL     1       8.983  -4.209  24.441  0.00  0.00    +0.099 C 
ATOM     16  C   UNL     1       9.469  -5.246  25.454  0.00  0.00    +0.033 C 
BRANCH  15  17
ATOM     17  C   UNL     1       7.545  -4.478  24.018  0.00  0.00    -0.027 A 
ATOM     18  C   UNL     1       7.290  -5.060  22.763  0.00  0.00    +0.008 A 
ATOM     19  C   UNL     1       5.985  -5.369  22.372  0.00  0.00    +0.038 A 
ATOM     20  C   UNL     1       4.928  -5.092  23.229  0.00  0.00    +0.123 A 
ATOM     21  F   UNL     1       3.681  -5.406  22.860  0.00  0.00    -0.205 F 
ATOM     22  C   UNL     1       5.150  -4.500  24.466  0.00  0.00    +0.038 A 
ATOM     23  C   UNL     1       6.456  -4.189  24.860  0.00  0.00    +0.008 A 
ENDBRANCH  15  17
ENDBRANCH   1  15
TORSDOF 4
ENDMDL
MODEL 3
REMARK VINA RESULT:      -6.5      2.678      3.845
REMARK  Name = 
REMARK  8 active torsions:
REMARK  status: ('A' for Active; 'I' for Inactive)
REMARK    1  A    between atoms: C_2  and  C_3
REMARK    2  A    between atoms: C_2  and  N_4
REMARK    3  A    between atoms: C_2  and  C_16
REMARK    4  A    between atoms: C_9  and  C_10
REMARK    5  A    between atoms: C_9  and  C_12
REMARK    6  A    between atoms: C_12  and  C_13
REMARK    7  A    between atoms: C_12  and  C_14
REMARK    8  A    between atoms: C_12  and  O_15
REMARK                            x       y       z     vdW  Elec       q    Type
REMARK                         _______ _______ _______ _____ _____    ______ ____
ROOT
ATOM      1  N   UNL     1       8.186  -3.581  22.565  0.00  0.00    -0.319 N 
ATOM      2  H   UNL     1       9.083  -4.016  22.752  0.00  0.00    +0.148 HD
ATOM      3  C   UNL     1       8.145  -2.252  22.862  0.00  0.00    +0.148 C 
ATOM      4  S   UNL     1       9.684  -1.507  23.191  0.00  0.00    -0.074 S 
ATOM      5  C   UNL     1       8.820   0.007  23.839  0.00  0.00    +0.126 C 
ATOM      6  C   UNL     1       8.807  -0.133  25.371  0.00  0.00    +0.036 C 
ATOM      7  C   UNL     1       7.387  -0.213  23.332  0.00  0.00    +0.257 C 
ATOM      8  O   UNL     1       6.536   0.670  23.334  0.00  0.00    -0.272 OA
ATOM      9  N   UNL     1       7.102  -1.507  22.958  0.00  0.00    -0.158 NA
ENDROOT
BRANCH   5  10
ATOM     10  C   UNL     1       9.465   1.346  23.346  0.00  0.00    +0.084 C 
ATOM     11  C   UNL     1       9.647   1.425  21.817  0.00  0.00    +0.043 C 
ATOM     12  C   UNL     1      10.815   1.666  24.008  0.00  0.00    +0.043 C 
BRANCH  10  13
ATOM     13  O   UNL     1       8.561   2.425  23.679  0.00  0.00    -0.387 OA
ATOM     14  H   UNL     1       7.813   2.401  23.057  0.00  0.00    +0.210 HD
ENDBRANCH  10  13
ENDBRANCH   5  10
BRANCH   1  15
ATOM     15  C   UNL     1       7.028  -4.435  22.791  0.00  0.00    +0.099 C 
ATOM     16  C   UNL     1       7.035  -5.629  21.835  0.00  0.00    +0.033 C 
BRANCH  15  17
ATOM     17  C   UNL     1       6.982  -4.888  24.244  0.00  0.00    -0.027 A 
ATOM     18  C   UNL     1       8.165  -4.887  25.006  0.00  0.00    +0.008 A 
ATOM     19  C   UNL     1       8.144  -5.243  26.357  0.00  0.00    +0.038 A 
ATOM     20  C   UNL     1       6.944  -5.610  26.951  0.00  0.00    +0.123 A 
ATOM     21  F   UNL     1       6.922  -5.933  28.249  0.00  0.00    -0.205 F 
ATOM     22  C   UNL     1       5.764  -5.639  26.216  0.00  0.00    +0.038 A 
ATOM     23  C   UNL     1       5.783  -5.283  24.863  0.00  0.00    +0.008 A 
ENDBRANCH  15  17
ENDBRANCH   1  15
TORSDOF 4
ENDMDL
MODEL 4
REMARK VINA RESULT:      -6.4      2.205      2.726
REMARK  Name = 
REMARK  8 active torsions:
REMARK  status: ('A' for Active; 'I' for Inactive)
REMARK    1  A    between atoms: C_2  and  C_3
REMARK    2  A    between atoms: C_2  and  N_4
REMARK    3  A    between atoms: C_2  and  C_16
REMARK    4  A    between atoms: C_9  and  C_10
REMARK    5  A    between atoms: C_9  and  C_12
REMARK    6  A    between atoms: C_12  and  C_13
REMARK    7  A    between atoms: C_12  and  C_14
REMARK    8  A    between atoms: C_12  and  O_15
REMARK                            x       y       z     vdW  Elec       q    Type
REMARK                         _______ _______ _______ _____ _____    ______ ____
ROOT
ATOM      1  N   UNL     1       7.913  -3.187  26.033  0.00  0.00    -0.319 N 
ATOM      2  H   UNL     1       7.175  -2.727  26.556  0.00  0.00    +0.148 HD
ATOM      3  C   UNL     1       8.521  -2.383  25.116  0.00  0.00    +0.148 C 
ATOM      4  S   UNL     1       8.148  -0.687  25.237  0.00  0.00    -0.074 S 
ATOM      5  C   UNL     1       8.937  -0.388  23.579  0.00  0.00    +0.126 C 
ATOM      6  C   UNL     1       7.786  -0.345  22.561  0.00  0.00    +0.036 C 
ATOM      7  C   UNL     1       9.710  -1.698  23.364  0.00  0.00    +0.257 C 
ATOM      8  O   UNL     1      10.566  -1.832  22.497  0.00  0.00    -0.272 OA
ATOM      9  N   UNL     1       9.302  -2.744  24.161  0.00  0.00    -0.158 NA
ENDROOT
BRANCH   5  10
ATOM     10  C   UNL     1       9.841   0.890  23.546  0.00  0.00    +0.084 C 
ATOM     11  C   UNL     1       9.377   2.008  24.501  0.00  0.00    +0.043 C 
ATOM     12  C   UNL     1      10.009   1.495  22.142  0.00  0.00    +0.043 C 
BRANCH  10  13
ATOM     13  O   UNL     1      11.159   0.515  24.008  0.00  0.00    -0.387 OA
ATOM     14  H   UNL     1      11.586   1.304  24.388  0.00  0.00    +0.210 HD
ENDBRANCH  10  13
ENDBRANCH   5  10
BRANCH   1  15
ATOM     15  C   UNL     1       7.685  -4.599  25.758  0.00  0.00    +0.099 C 
ATOM     16  C   UNL     1       7.672  -5.412  27.053  0.00  0.00    +0.033 C 
BRANCH  15  17
ATOM     17  C   UNL     1       6.392  -4.782  24.975  0.00  0.00    -0.027 A 
ATOM     18  C   UNL     1       6.450  -5.190  23.630  0.00  0.00    +0.008 A 
ATOM     19  C   UNL     1       5.280  -5.419  22.903  0.00  0.00    +0.038 A 
ATOM     20  C   UNL     1       4.046  -5.235  23.513  0.00  0.00    +0.123 A 
ATOM     21  F   UNL     1       2.926  -5.473  22.820  0.00  0.00    -0.205 F 
ATOM     22  C   UNL     1       3.960  -4.813  24.834  0.00  0.00    +0.038 A 
ATOM     23  C   UNL     1       5.131  -4.582  25.564  0.00  0.00    +0.008 A 
ENDBRANCH  15  17
ENDBRANCH   1  15
TORSDOF 4
ENDMDL
MODEL 5
REMARK VINA RESULT:      -6.4      4.647      7.552
REMARK  Name = 
REMARK  8 active torsions:
REMARK  status: ('A' for Active; 'I' for Inactive)
REMARK    1  A    between atoms: C_2  and  C_3
REMARK    2  A    between atoms: C_2  and  N_4
REMARK    3  A    between atoms: C_2  and  C_16
REMARK    4  A    between atoms: C_9  and  C_10
REMARK    5  A    between atoms: C_9  and  C_12
REMARK    6  A    between atoms: C_12  and  C_13
REMARK    7  A    between atoms: C_12  and  C_14
REMARK    8  A    between atoms: C_12  and  O_15
REMARK                            x       y       z     vdW  Elec       q    Type
REMARK                         _______ _______ _______ _____ _____    ______ ____
ROOT
ATOM      1  N   UNL     1       7.433  -3.190  23.449  0.00  0.00    -0.319 N 
ATOM      2  H   UNL     1       6.982  -2.578  22.777  0.00  0.00    +0.148 HD
ATOM      3  C   UNL     1       6.588  -4.091  24.025  0.00  0.00    +0.148 C 
ATOM      4  S   UNL     1       5.019  -4.231  23.287  0.00  0.00    -0.074 S 
ATOM      5  C   UNL     1       4.415  -5.222  24.740  0.00  0.00    +0.126 C 
ATOM      6  C   UNL     1       3.660  -4.235  25.646  0.00  0.00    +0.036 C 
ATOM      7  C   UNL     1       5.736  -5.587  25.436  0.00  0.00    +0.257 C 
ATOM      8  O   UNL     1       5.814  -6.440  26.312  0.00  0.00    -0.272 OA
ATOM      9  N   UNL     1       6.814  -4.814  25.064  0.00  0.00    -0.158 NA
ENDROOT
BRANCH   5  10
ATOM     10  C   UNL     1       3.557  -6.465  24.328  0.00  0.00    +0.084 C 
ATOM     11  C   UNL     1       2.740  -6.259  23.037  0.00  0.00    +0.043 C 
ATOM     12  C   UNL     1       2.601  -6.953  25.430  0.00  0.00    +0.043 C 
BRANCH  10  13
ATOM     13  O   UNL     1       4.462  -7.555  24.036  0.00  0.00    -0.387 OA
ATOM     14  H   UNL     1       5.089  -7.258  23.354  0.00  0.00    +0.210 HD
ENDBRANCH  10  13
ENDBRANCH   5  10
BRANCH   1  15
ATOM     15  C   UNL     1       8.511  -2.578  24.213  0.00  0.00    +0.099 C 
ATOM     16  C   UNL     1       9.654  -3.570  24.436  0.00  0.00    +0.033 C 
BRANCH  15  17
ATOM     17  C   UNL     1       9.000  -1.315  23.517  0.00  0.00    -0.027 A 
ATOM     18  C   UNL     1       9.628  -0.308  24.272  0.00  0.00    +0.008 A 
ATOM     19  C   UNL     1      10.136   0.837  23.653  0.00  0.00    +0.038 A 
ATOM     20  C   UNL     1      10.014   0.984  22.278  0.00  0.00    +0.123 A 
ATOM     21  F   UNL     1      10.518   2.072  21.684  0.00  0.00    -0.205 F 
ATOM     22  C   UNL     1       9.380   0.014  21.510  0.00  0.00    +0.038 A 
ATOM     23  C   UNL     1       8.870  -1.133  22.129  0.00  0.00    +0.008 A 
ENDBRANCH  15  17
ENDBRANCH   1  15
TORSDOF 4
ENDMDL
MODEL 6
REMARK VINA RESULT:      -6.2      2.685      3.398
REMARK  Name = 
REMARK  8 active torsions:
REMARK  status: ('A' for Active; 'I' for Inactive)
REMARK    1  A    between atoms: C_2  and  C_3
REMARK    2  A    between atoms: C_2  and  N_4
REMARK    3  A    between atoms: C_2  and  C_16
REMARK    4  A    between atoms: C_9  and  C_10
REMARK    5  A    between atoms: C_9  and  C_12
REMARK    6  A    between atoms: C_12  and  C_13
REMARK    7  A    between atoms: C_12  and  C_14
REMARK    8  A    between atoms: C_12  and  O_15
REMARK                            x       y       z     vdW  Elec       q    Type
REMARK                         _______ _______ _______ _____ _____    ______ ____
ROOT
ATOM      1  N   UNL     1       8.851  -2.634  25.351  0.00  0.00    -0.319 N 
ATOM      2  H   UNL     1       8.355  -2.355  26.191  0.00  0.00    +0.148 HD
ATOM      3  C   UNL     1       8.963  -1.641  24.423  0.00  0.00    +0.148 C 
ATOM      4  S   UNL     1       8.533  -0.046  24.972  0.00  0.00    -0.074 S 
ATOM      5  C   UNL     1       8.550   0.569  23.217  0.00  0.00    +0.126 C 
ATOM      6  C   UNL     1       7.084   0.572  22.751  0.00  0.00    +0.036 C 
ATOM      7  C   UNL     1       9.274  -0.577  22.494  0.00  0.00    +0.257 C 
ATOM      8  O   UNL     1       9.711  -0.475  21.353  0.00  0.00    -0.272 OA
ATOM      9  N   UNL     1       9.315  -1.763  23.193  0.00  0.00    -0.158 NA
ENDROOT
BRANCH   5  10
ATOM     10  C   UNL     1       9.252   1.959  23.056  0.00  0.00    +0.084 C 
ATOM     11  C   UNL     1      10.658   2.025  23.685  0.00  0.00    +0.043 C 
ATOM     12  C   UNL     1       8.427   3.138  23.598  0.00  0.00    +0.043 C 
BRANCH  10  13
ATOM     13  O   UNL     1       9.455   2.196  21.644  0.00  0.00    -0.387 OA
ATOM     14  H   UNL     1       9.029   3.040  21.411  0.00  0.00    +0.210 HD
ENDBRANCH  10  13
ENDBRANCH   5  10
BRANCH   1  15
ATOM     15  C   UNL     1       8.649  -4.018  24.946  0.00  0.00    +0.099 C 
ATOM     16  C   UNL     1       9.879  -4.867  25.269  0.00  0.00    +0.033 C 
BRANCH  15  17
ATOM     17  C   UNL     1       7.397  -4.583  25.605  0.00  0.00    -0.027 A 
ATOM     18  C   UNL     1       7.483  -5.130  26.898  0.00  0.00    +0.008 A 
ATOM     19  C   UNL     1       6.342  -5.604  27.550  0.00  0.00    +0.038 A 
ATOM     20  C   UNL     1       5.111  -5.541  26.910  0.00  0.00    +0.123 A 
ATOM     21  F   UNL     1       4.016  -5.978  27.543  0.00  0.00    -0.205 F 
ATOM     22  C   UNL     1       5.001  -5.024  25.625  0.00  0.00    +0.038 A 
ATOM     23  C   UNL     1       6.143  -4.549  24.971  0.00  0.00    +0.008 A 
ENDBRANCH  15  17
ENDBRANCH   1  15
TORSDOF 4
ENDMDL
MODEL 7
REMARK VINA RESULT:      -6.2      3.720      6.924
REMARK  Name = 
REMARK  8 active torsions:
REMARK  status: ('A' for Active; 'I' for Inactive)
REMARK    1  A    between atoms: C_2  and  C_3
REMARK    2  A    between atoms: C_2  and  N_4
REMARK    3  A    between atoms: C_2  and  C_16
REMARK    4  A    between atoms: C_9  and  C_10
REMARK    5  A    between atoms: C_9  and  C_12
REMARK    6  A    between atoms: C_12  and  C_13
REMARK    7  A    between atoms: C_12  and  C_14
REMARK    8  A    between atoms: C_12  and  O_15
REMARK                            x       y       z     vdW  Elec       q    Type
REMARK                         _______ _______ _______ _____ _____    ______ ____
ROOT
ATOM      1  N   UNL     1       6.330   0.350  24.067  0.00  0.00    -0.319 N 
ATOM      2  H   UNL     1       6.443   0.675  25.021  0.00  0.00    +0.148 HD
ATOM      3  C   UNL     1       6.798  -0.913  23.857  0.00  0.00    +0.148 C 
ATOM      4  S   UNL     1       7.193  -1.818  25.291  0.00  0.00    -0.074 S 
ATOM      5  C   UNL     1       8.048  -3.102  24.254  0.00  0.00    +0.126 C 
ATOM      6  C   UNL     1       9.549  -2.770  24.315  0.00  0.00    +0.036 C 
ATOM      7  C   UNL     1       7.543  -2.751  22.846  0.00  0.00    +0.257 C 
ATOM      8  O   UNL     1       7.675  -3.499  21.884  0.00  0.00    -0.272 OA
ATOM      9  N   UNL     1       7.009  -1.487  22.726  0.00  0.00    -0.158 NA
ENDROOT
BRANCH   5  10
ATOM     10  C   UNL     1       7.721  -4.569  24.693  0.00  0.00    +0.084 C 
ATOM     11  C   UNL     1       6.225  -4.929  24.603  0.00  0.00    +0.043 C 
ATOM     12  C   UNL     1       8.216  -4.920  26.106  0.00  0.00    +0.043 C 
BRANCH  10  13
ATOM     13  O   UNL     1       8.386  -5.468  23.775  0.00  0.00    -0.387 OA
ATOM     14  H   UNL     1       8.449  -5.029  22.908  0.00  0.00    +0.210 HD
ENDBRANCH  10  13
ENDBRANCH   5  10
BRANCH   1  15
ATOM     15  C   UNL     1       6.465   1.378  23.044  0.00  0.00    +0.099 C 
ATOM     16  C   UNL     1       5.404   2.465  23.220  0.00  0.00    +0.033 C 
BRANCH  15  17
ATOM     17  C   UNL     1       7.870   1.965  23.069  0.00  0.00    -0.027 A 
ATOM     18  C   UNL     1       8.210   2.906  24.058  0.00  0.00    +0.008 A 
ATOM     19  C   UNL     1       9.506   3.419  24.139  0.00  0.00    +0.038 A 
ATOM     20  C   UNL     1      10.467   3.002  23.229  0.00  0.00    +0.123 A 
ATOM     21  F   UNL     1      11.713   3.481  23.320  0.00  0.00    -0.205 F 
ATOM     22  C   UNL     1      10.153   2.089  22.229  0.00  0.00    +0.038 A 
ATOM     23  C   UNL     1       8.855   1.574  22.146  0.00  0.00    +0.008 A 
ENDBRANCH  15  17
ENDBRANCH   1  15
TORSDOF 4
ENDMDL
MODEL 8
REMARK VINA RESULT:      -6.1      3.563      7.126
REMARK  Name = 
REMARK  8 active torsions:
REMARK  status: ('A' for Active; 'I' for Inactive)
REMARK    1  A    between atoms: C_2  and  C_3
REMARK    2  A    between atoms: C_2  and  N_4
REMARK    3  A    between atoms: C_2  and  C_16
REMARK    4  A    between atoms: C_9  and  C_10
REMARK    5  A    between atoms: C_9  and  C_12
REMARK    6  A    between atoms: C_12  and  C_13
REMARK    7  A    between atoms: C_12  and  C_14
REMARK    8  A    between atoms: C_12  and  O_15
REMARK                            x       y       z     vdW  Elec       q    Type
REMARK                         _______ _______ _______ _____ _____    ______ ____
ROOT
ATOM      1  N   UNL     1       9.346  -0.335  23.233  0.00  0.00    -0.319 N 
ATOM      2  H   UNL     1       9.167  -0.077  22.268  0.00  0.00    +0.148 HD
ATOM      3  C   UNL     1       8.706  -1.472  23.627  0.00  0.00    +0.148 C 
ATOM      4  S   UNL     1       7.985  -2.411  22.351  0.00  0.00    -0.074 S 
ATOM      5  C   UNL     1       7.069  -3.429  23.609  0.00  0.00    +0.126 C 
ATOM      6  C   UNL     1       5.650  -2.842  23.681  0.00  0.00    +0.036 C 
ATOM      7  C   UNL     1       7.803  -3.054  24.905  0.00  0.00    +0.257 C 
ATOM      8  O   UNL     1       7.673  -3.681  25.951  0.00  0.00    -0.272 OA
ATOM      9  N   UNL     1       8.550  -1.900  24.829  0.00  0.00    -0.158 NA
ENDROOT
BRANCH   5  10
ATOM     10  C   UNL     1       7.088  -4.963  23.296  0.00  0.00    +0.084 C 
ATOM     11  C   UNL     1       7.057  -5.293  21.790  0.00  0.00    +0.043 C 
ATOM     12  C   UNL     1       5.963  -5.752  23.986  0.00  0.00    +0.043 C 
BRANCH  10  13
ATOM     13  O   UNL     1       8.342  -5.501  23.778  0.00  0.00    -0.387 OA
ATOM     14  H   UNL     1       8.155  -6.068  24.546  0.00  0.00    +0.210 HD
ENDBRANCH  10  13
ENDBRANCH   5  10
BRANCH   1  15
ATOM     15  C   UNL     1       9.517   0.785  24.148  0.00  0.00    +0.099 C 
ATOM     16  C   UNL     1      10.997   1.012  24.462  0.00  0.00    +0.033 C 
BRANCH  15  17
ATOM     17  C   UNL     1       8.873   2.039  23.572  0.00  0.00    -0.027 A 
ATOM     18  C   UNL     1       8.007   1.928  22.470  0.00  0.00    +0.008 A 
ATOM     19  C   UNL     1       7.358   3.054  21.956  0.00  0.00    +0.038 A 
ATOM     20  C   UNL     1       7.577   4.296  22.536  0.00  0.00    +0.123 A 
ATOM     21  F   UNL     1       6.940   5.370  22.054  0.00  0.00    -0.205 F 
ATOM     22  C   UNL     1       8.444   4.437  23.613  0.00  0.00    +0.038 A 
ATOM     23  C   UNL     1       9.095   3.311  24.129  0.00  0.00    +0.008 A 
ENDBRANCH  15  17
ENDBRANCH   1  15
TORSDOF 4
ENDMDL
MODEL 9
REMARK VINA RESULT:      -6.1      3.954      7.582
REMARK  Name = 
REMARK  8 active torsions:
REMARK  status: ('A' for Active; 'I' for Inactive)
REMARK    1  A    between atoms: C_2  and  C_3
REMARK    2  A    between atoms: C_2  and  N_4
REMARK    3  A    between atoms: C_2  and  C_16
REMARK    4  A    between atoms: C_9  and  C_10
REMARK    5  A    between atoms: C_9  and  C_12
REMARK    6  A    between atoms: C_12  and  C_13
REMARK    7  A    between atoms: C_12  and  C_14
REMARK    8  A    between atoms: C_12  and  O_15
REMARK                            x       y       z     vdW  Elec       q    Type
REMARK                         _______ _______ _______ _____ _____    ______ ____
ROOT
ATOM      1  N   UNL     1       8.340   0.631  23.385  0.00  0.00    -0.319 N 
ATOM      2  H   UNL     1       7.469   1.079  23.650  0.00  0.00    +0.148 HD
ATOM      3  C   UNL     1       8.421  -0.679  23.753  0.00  0.00    +0.148 C 
ATOM      4  S   UNL     1       6.934  -1.399  24.302  0.00  0.00    -0.074 S 
ATOM      5  C   UNL     1       7.874  -2.874  24.933  0.00  0.00    +0.126 C 
ATOM      6  C   UNL     1       8.066  -2.645  26.441  0.00  0.00    +0.036 C 
ATOM      7  C   UNL     1       9.238  -2.688  24.249  0.00  0.00    +0.257 C 
ATOM      8  O   UNL     1      10.087  -3.572  24.204  0.00  0.00    -0.272 OA
ATOM      9  N   UNL     1       9.472  -1.419  23.769  0.00  0.00    -0.158 NA
ENDROOT
BRANCH   5  10
ATOM     10  C   UNL     1       7.182  -4.238  24.597  0.00  0.00    +0.084 C 
ATOM     11  C   UNL     1       5.677  -4.115  24.285  0.00  0.00    +0.043 C 
ATOM     12  C   UNL     1       7.361  -5.310  25.686  0.00  0.00    +0.043 C 
BRANCH  10  13
ATOM     13  O   UNL     1       7.781  -4.756  23.387  0.00  0.00    -0.387 OA
ATOM     14  H   UNL     1       7.080  -5.159  22.846  0.00  0.00    +0.210 HD
ENDBRANCH  10  13
ENDBRANCH   5  10
BRANCH   1  15
ATOM     15  C   UNL     1       9.513   1.494  23.424  0.00  0.00    +0.099 C 
ATOM     16  C   UNL     1      10.048   1.752  22.015  0.00  0.00    +0.033 C 
BRANCH  15  17
ATOM     17  C   UNL     1       9.186   2.797  24.142  0.00  0.00    -0.027 A 
ATOM     18  C   UNL     1       9.846   3.980  23.762  0.00  0.00    +0.008 A 
ATOM     19  C   UNL     1       9.526   5.199  24.364  0.00  0.00    +0.038 A 
ATOM     20  C   UNL     1       8.552   5.242  25.351  0.00  0.00    +0.123 A 
ATOM     21  F   UNL     1       8.234   6.415  25.913  0.00  0.00    -0.205 F 
ATOM     22  C   UNL     1       7.898   4.085  25.759  0.00  0.00    +0.038 A 
ATOM     23  C   UNL     1       8.217   2.863  25.159  0.00  0.00    +0.008 A 
ENDBRANCH  15  17
ENDBRANCH   1  15
TORSDOF 4
ENDMDL
