MODEL 1
REMARK VINA RESULT:      -8.2      0.000      0.000
REMARK  Name = 
REMARK  8 active torsions:
REMARK  status: ('A' for Active; 'I' for Inactive)
REMARK    1  A    between atoms: C_1  and  C_2
REMARK    2  A    between atoms: C_2  and  C_3
REMARK    3  A    between atoms: C_3  and  C_5
REMARK    4  A    between atoms: C_5  and  C_6
REMARK    5  A    between atoms: C_7  and  C_9
REMARK    6  A    between atoms: C_21  and  C_22
REMARK    7  A    between atoms: C_24  and  O_26
REMARK    8  A    between atoms: C_28  and  C_29
REMARK                            x       y       z     vdW  Elec       q    Type
REMARK                         _______ _______ _______ _____ _____    ______ ____
ROOT
ATOM      1  C   UNL     1       7.033  -4.381  24.776  0.00  0.00    +0.034 C 
ATOM      2  C   UNL     1       6.645  -2.906  24.615  0.00  0.00    -0.014 C 
ATOM      3  C   UNL     1       5.148  -2.425  24.914  0.00  0.00    +0.012 C 
ATOM      4  C   UNL     1       7.383  -2.937  22.884  0.00  0.00    -0.000 C 
ATOM      5  C   UNL     1       8.680  -2.151  22.870  0.00  0.00    -0.000 C 
ATOM      6  C   UNL     1       8.449  -0.862  24.125  0.00  0.00    +0.035 C 
ATOM      7  C   UNL     1       7.935  -1.021  25.601  0.00  0.00    +0.120 C 
ATOM      8  C   UNL     1       9.277   0.514  24.111  0.00  0.00    +0.013 C 
ATOM      9  C   UNL     1       8.615   1.498  25.175  0.00  0.00    +0.020 C 
ATOM     10  C   UNL     1       9.412   0.411  22.616  0.00  0.00    -0.056 C 
ATOM     11  C   UNL     1       8.981   1.396  21.819  0.00  0.00    +0.051 C 
ATOM     12  C   UNL     1       8.932   2.542  22.722  0.00  0.00    +0.179 C 
ATOM     13  C   UNL     1      10.448   2.588  23.397  0.00  0.00    +0.047 C 
ATOM     14  O   UNL     1       7.956   3.222  22.997  0.00  0.00    -0.288 OA
ATOM     15  C   UNL     1      10.291  -0.744  22.187  0.00  0.00    +0.032 C 
ATOM     16  C   UNL     1      10.505   1.394  24.085  0.00  0.00    -0.012 C 
ATOM     17  C   UNL     1       9.187  -1.535  21.548  0.00  0.00    +0.008 C 
ATOM     18  C   UNL     1       7.575  -4.525  22.515  0.00  0.00    +0.008 C 
ATOM     19  C   UNL     1       7.281  -2.276  25.908  0.00  0.00    +0.039 C 
ATOM     20  C   UNL     1       6.436  -4.805  23.404  0.00  0.00    -0.000 C 
ATOM     21  C   UNL     1       5.702  -6.067  23.269  0.00  0.00    +0.008 C 
ATOM     22  C   UNL     1       8.728  -4.194  24.931  0.00  0.00    +0.020 C 
ENDROOT
BRANCH   1  23
ATOM     23  C   UNL     1       6.667  -5.219  25.996  0.00  0.00    +0.140 C 
ATOM     24  O   UNL     1       7.531  -5.949  26.492  0.00  0.00    -0.297 OA
BRANCH  23  26
ATOM     25  C   UNL     1       4.858  -6.682  26.862  0.00  0.00    +0.012 C 
ATOM     26  C   UNL     1       5.282  -5.267  26.608  0.00  0.00    +0.071 C 
ENDBRANCH  23  26
ENDBRANCH   1  23
BRANCH   7  27
ATOM     27  O   UNL     1       6.922  -0.061  26.034  0.00  0.00    -0.391 OA
ATOM     28  H   UNL     1       7.169   0.865  25.886  0.00  0.00    +0.210 HD
ENDBRANCH   7  27
TORSDOF 3
ENDMDL
MODEL 2
REMARK VINA RESULT:      -8.0      1.874      3.575
REMARK  Name = 
REMARK  8 active torsions:
REMARK  status: ('A' for Active; 'I' for Inactive)
REMARK    1  A    between atoms: C_1  and  C_2
REMARK    2  A    between atoms: C_2  and  C_3
REMARK    3  A    between atoms: C_3  and  C_5
REMARK    4  A    between atoms: C_5  and  C_6
REMARK    5  A    between atoms: C_7  and  C_9
REMARK    6  A    between atoms: C_21  and  C_22
REMARK    7  A    between atoms: C_24  and  O_26
REMARK    8  A    between atoms: C_28  and  C_29
REMARK                            x       y       z     vdW  Elec       q    Type
REMARK                         _______ _______ _______ _____ _____    ______ ____
ROOT
ATOM      1  C   UNL     1       7.054  -3.787  24.089  0.00  0.00    +0.034 C 
ATOM      2  C   UNL     1       8.116  -2.682  24.045  0.00  0.00    -0.014 C 
ATOM      3  C   UNL     1       9.663  -3.035  24.250  0.00  0.00    +0.012 C 
ATOM      4  C   UNL     1       7.111  -1.715  25.309  0.00  0.00    -0.000 C 
ATOM      5  C   UNL     1       6.460  -0.521  24.636  0.00  0.00    -0.000 C 
ATOM      6  C   UNL     1       7.608  -0.059  23.310  0.00  0.00    +0.035 C 
ATOM      7  C   UNL     1       8.272  -0.987  22.230  0.00  0.00    +0.120 C 
ATOM      8  C   UNL     1       7.654   1.419  22.684  0.00  0.00    +0.013 C 
ATOM      9  C   UNL     1       8.951   1.526  21.767  0.00  0.00    +0.020 C 
ATOM     10  C   UNL     1       7.157   1.981  23.989  0.00  0.00    -0.056 C 
ATOM     11  C   UNL     1       7.854   2.919  24.641  0.00  0.00    +0.051 C 
ATOM     12  C   UNL     1       8.700   3.479  23.592  0.00  0.00    +0.179 C 
ATOM     13  C   UNL     1       7.631   3.888  22.388  0.00  0.00    +0.047 C 
ATOM     14  O   UNL     1       9.920   3.516  23.570  0.00  0.00    -0.288 OA
ATOM     15  C   UNL     1       5.732   1.575  24.295  0.00  0.00    +0.032 C 
ATOM     16  C   UNL     1       7.106   2.665  22.027  0.00  0.00    -0.012 C 
ATOM     17  C   UNL     1       6.077   0.717  25.476  0.00  0.00    +0.008 C 
ATOM     18  C   UNL     1       6.033  -2.786  25.928  0.00  0.00    +0.008 C 
ATOM     19  C   UNL     1       8.214  -2.408  22.499  0.00  0.00    +0.039 C 
ATOM     20  C   UNL     1       7.016  -3.844  25.643  0.00  0.00    -0.000 C 
ATOM     21  C   UNL     1       6.920  -5.131  26.339  0.00  0.00    +0.008 C 
ATOM     22  C   UNL     1       5.798  -2.982  23.248  0.00  0.00    +0.020 C 
ENDROOT
BRANCH   1  23
ATOM     23  C   UNL     1       7.181  -5.107  23.336  0.00  0.00    +0.140 C 
ATOM     24  O   UNL     1       8.292  -5.644  23.269  0.00  0.00    -0.297 OA
BRANCH  23  26
ATOM     25  C   UNL     1       6.339  -5.893  21.138  0.00  0.00    +0.012 C 
ATOM     26  C   UNL     1       6.039  -5.778  22.602  0.00  0.00    +0.071 C 
ENDBRANCH  23  26
ENDBRANCH   1  23
BRANCH   7  27
ATOM     27  O   UNL     1       9.705  -0.798  22.017  0.00  0.00    -0.391 OA
ATOM     28  H   UNL     1       9.921  -0.085  21.396  0.00  0.00    +0.210 HD
ENDBRANCH   7  27
TORSDOF 3
ENDMDL
MODEL 3
REMARK VINA RESULT:      -7.9      1.856      3.130
REMARK  Name = 
REMARK  8 active torsions:
REMARK  status: ('A' for Active; 'I' for Inactive)
REMARK    1  A    between atoms: C_1  and  C_2
REMARK    2  A    between atoms: C_2  and  C_3
REMARK    3  A    between atoms: C_3  and  C_5
REMARK    4  A    between atoms: C_5  and  C_6
REMARK    5  A    between atoms: C_7  and  C_9
REMARK    6  A    between atoms: C_21  and  C_22
REMARK    7  A    between atoms: C_24  and  O_26
REMARK    8  A    between atoms: C_28  and  C_29
REMARK                            x       y       z     vdW  Elec       q    Type
REMARK                         _______ _______ _______ _____ _____    ______ ____
ROOT
ATOM      1  C   UNL     1       5.737  -4.165  25.313  0.00  0.00    +0.034 C 
ATOM      2  C   UNL     1       7.088  -3.462  25.485  0.00  0.00    -0.014 C 
ATOM      3  C   UNL     1       8.147  -3.990  26.562  0.00  0.00    +0.012 C 
ATOM      4  C   UNL     1       6.175  -1.827  25.664  0.00  0.00    -0.000 C 
ATOM      5  C   UNL     1       6.383  -0.988  24.417  0.00  0.00    -0.000 C 
ATOM      6  C   UNL     1       8.027  -1.459  23.816  0.00  0.00    +0.035 C 
ATOM      7  C   UNL     1       8.606  -2.903  23.593  0.00  0.00    +0.120 C 
ATOM      8  C   UNL     1       8.912  -0.500  22.880  0.00  0.00    +0.013 C 
ATOM      9  C   UNL     1      10.380  -1.114  22.792  0.00  0.00    +0.020 C 
ATOM     10  C   UNL     1       8.237   0.702  23.484  0.00  0.00    -0.056 C 
ATOM     11  C   UNL     1       8.954   1.668  24.071  0.00  0.00    +0.051 C 
ATOM     12  C   UNL     1      10.283   1.474  23.501  0.00  0.00    +0.179 C 
ATOM     13  C   UNL     1      10.023   1.478  21.861  0.00  0.00    +0.047 C 
ATOM     14  O   UNL     1      11.318   1.241  24.106  0.00  0.00    -0.288 OA
ATOM     15  C   UNL     1       6.773   0.797  23.112  0.00  0.00    +0.032 C 
ATOM     16  C   UNL     1       9.221   0.369  21.683  0.00  0.00    -0.012 C 
ATOM     17  C   UNL     1       6.257   0.549  24.499  0.00  0.00    +0.008 C 
ATOM     18  C   UNL     1       4.605  -2.225  25.931  0.00  0.00    +0.008 C 
ATOM     19  C   UNL     1       7.870  -3.980  24.221  0.00  0.00    +0.039 C 
ATOM     20  C   UNL     1       5.092  -3.471  26.546  0.00  0.00    -0.000 C 
ATOM     21  C   UNL     1       4.218  -4.222  27.452  0.00  0.00    +0.008 C 
ATOM     22  C   UNL     1       5.347  -3.612  23.740  0.00  0.00    +0.020 C 
ENDROOT
BRANCH   1  23
ATOM     23  C   UNL     1       5.585  -5.678  25.194  0.00  0.00    +0.140 C 
ATOM     24  O   UNL     1       6.074  -6.392  26.075  0.00  0.00    -0.297 OA
BRANCH  23  26
ATOM     25  C   UNL     1       3.716  -7.142  24.470  0.00  0.00    +0.012 C 
ATOM     26  C   UNL     1       4.923  -6.374  24.023  0.00  0.00    +0.071 C 
ENDBRANCH  23  26
ENDBRANCH   1  23
BRANCH   7  27
ATOM     27  O   UNL     1       9.952  -3.142  24.110  0.00  0.00    -0.391 OA
ATOM     28  H   UNL     1      10.112  -2.757  24.986  0.00  0.00    +0.210 HD
ENDBRANCH   7  27
TORSDOF 3
ENDMDL
MODEL 4
REMARK VINA RESULT:      -7.8      1.954      7.046
REMARK  Name = 
REMARK  8 active torsions:
REMARK  status: ('A' for Active; 'I' for Inactive)
REMARK    1  A    between atoms: C_1  and  C_2
REMARK    2  A    between atoms: C_2  and  C_3
REMARK    3  A    between atoms: C_3  and  C_5
REMARK    4  A    between atoms: C_5  and  C_6
REMARK    5  A    between atoms: C_7  and  C_9
REMARK    6  A    between atoms: C_21  and  C_22
REMARK    7  A    between atoms: C_24  and  O_26
REMARK    8  A    between atoms: C_28  and  C_29
REMARK                            x       y       z     vdW  Elec       q    Type
REMARK                         _______ _______ _______ _____ _____    ______ ____
ROOT
ATOM      1  C   UNL     1       8.539   2.276  23.557  0.00  0.00    +0.034 C 
ATOM      2  C   UNL     1       8.728   0.865  22.987  0.00  0.00    -0.014 C 
ATOM      3  C   UNL     1       9.360   0.658  21.532  0.00  0.00    +0.012 C 
ATOM      4  C   UNL     1       6.924   0.502  23.380  0.00  0.00    -0.000 C 
ATOM      5  C   UNL     1       6.843  -0.452  24.558  0.00  0.00    -0.000 C 
ATOM      6  C   UNL     1       8.340  -1.466  24.431  0.00  0.00    +0.035 C 
ATOM      7  C   UNL     1       9.824  -0.991  24.228  0.00  0.00    +0.120 C 
ATOM      8  C   UNL     1       8.450  -2.929  25.086  0.00  0.00    +0.013 C 
ATOM      9  C   UNL     1       9.777  -3.617  24.536  0.00  0.00    +0.020 C 
ATOM     10  C   UNL     1       6.961  -3.097  24.944  0.00  0.00    -0.056 C 
ATOM     11  C   UNL     1       6.450  -4.131  24.264  0.00  0.00    +0.051 C 
ATOM     12  C   UNL     1       7.550  -5.091  24.263  0.00  0.00    +0.179 C 
ATOM     13  C   UNL     1       7.957  -5.238  25.867  0.00  0.00    +0.047 C 
ATOM     14  O   UNL     1       8.109  -5.570  23.290  0.00  0.00    -0.288 OA
ATOM     15  C   UNL     1       6.179  -2.167  25.846  0.00  0.00    +0.032 C 
ATOM     16  C   UNL     1       8.386  -3.966  26.184  0.00  0.00    -0.012 C 
ATOM     17  C   UNL     1       5.596  -1.346  24.733  0.00  0.00    +0.008 C 
ATOM     18  C   UNL     1       6.233   1.961  23.671  0.00  0.00    +0.008 C 
ATOM     19  C   UNL     1       9.992   0.376  23.785  0.00  0.00    +0.039 C 
ATOM     20  C   UNL     1       7.231   2.545  22.759  0.00  0.00    -0.000 C 
ATOM     21  C   UNL     1       6.983   3.858  22.155  0.00  0.00    +0.008 C 
ATOM     22  C   UNL     1       8.440   1.879  25.220  0.00  0.00    +0.020 C 
ENDROOT
BRANCH   1  23
ATOM     23  C   UNL     1       9.621   3.350  23.524  0.00  0.00    +0.140 C 
ATOM     24  O   UNL     1      10.708   3.077  23.006  0.00  0.00    -0.297 OA
BRANCH  23  26
ATOM     25  C   UNL     1      10.642   5.595  23.804  0.00  0.00    +0.012 C 
ATOM     26  C   UNL     1       9.472   4.723  24.146  0.00  0.00    +0.071 C 
ENDBRANCH  23  26
ENDBRANCH   1  23
BRANCH   7  27
ATOM     27  O   UNL     1      10.596  -1.713  23.218  0.00  0.00    -0.391 OA
ATOM     28  H   UNL     1      11.544  -1.512  23.229  0.00  0.00    +0.210 HD
ENDBRANCH   7  27
TORSDOF 3
ENDMDL
MODEL 5
REMARK VINA RESULT:      -7.6      1.420      2.110
REMARK  Name = 
REMARK  8 active torsions:
REMARK  status: ('A' for Active; 'I' for Inactive)
REMARK    1  A    between atoms: C_1  and  C_2
REMARK    2  A    between atoms: C_2  and  C_3
REMARK    3  A    between atoms: C_3  and  C_5
REMARK    4  A    between atoms: C_5  and  C_6
REMARK    5  A    between atoms: C_7  and  C_9
REMARK    6  A    between atoms: C_21  and  C_22
REMARK    7  A    between atoms: C_24  and  O_26
REMARK    8  A    between atoms: C_28  and  C_29
REMARK                            x       y       z     vdW  Elec       q    Type
REMARK                         _______ _______ _______ _____ _____    ______ ____
ROOT
ATOM      1  C   UNL     1       8.301  -2.964  24.348  0.00  0.00    +0.034 C 
ATOM      2  C   UNL     1       7.426  -1.716  24.511  0.00  0.00    -0.014 C 
ATOM      3  C   UNL     1       5.945  -1.836  25.104  0.00  0.00    +0.012 C 
ATOM      4  C   UNL     1       7.777  -1.278  22.715  0.00  0.00    -0.000 C 
ATOM      5  C   UNL     1       8.715  -0.086  22.656  0.00  0.00    -0.000 C 
ATOM      6  C   UNL     1       8.325   0.878  24.140  0.00  0.00    +0.035 C 
ATOM      7  C   UNL     1       8.193   0.374  25.623  0.00  0.00    +0.120 C 
ATOM      8  C   UNL     1       8.634   2.450  24.254  0.00  0.00    +0.013 C 
ATOM      9  C   UNL     1       7.910   3.002  25.561  0.00  0.00    +0.020 C 
ATOM     10  C   UNL     1       8.498   2.579  22.761  0.00  0.00    -0.056 C 
ATOM     11  C   UNL     1       7.620   3.434  22.224  0.00  0.00    +0.051 C 
ATOM     12  C   UNL     1       7.375   4.373  23.315  0.00  0.00    +0.179 C 
ATOM     13  C   UNL     1       8.894   4.874  23.762  0.00  0.00    +0.047 C 
ATOM     14  O   UNL     1       6.305   4.624  23.845  0.00  0.00    -0.288 OA
ATOM     15  C   UNL     1       9.605   1.871  22.010  0.00  0.00    +0.032 C 
ATOM     16  C   UNL     1       9.475   3.705  24.210  0.00  0.00    -0.012 C 
ATOM     17  C   UNL     1       8.719   0.821  21.406  0.00  0.00    +0.008 C 
ATOM     18  C   UNL     1       8.404  -2.638  22.044  0.00  0.00    +0.008 C 
ATOM     19  C   UNL     1       8.062  -1.058  25.791  0.00  0.00    +0.039 C 
ATOM     20  C   UNL     1       7.619  -3.407  23.023  0.00  0.00    -0.000 C 
ATOM     21  C   UNL     1       7.329  -4.823  22.771  0.00  0.00    +0.008 C 
ATOM     22  C   UNL     1       9.836  -2.207  24.288  0.00  0.00    +0.020 C 
ENDROOT
BRANCH   1  23
ATOM     23  C   UNL     1       8.479  -4.016  25.439  0.00  0.00    +0.140 C 
ATOM     24  O   UNL     1       9.455  -4.771  25.377  0.00  0.00    -0.297 OA
BRANCH  23  26
ATOM     25  C   UNL     1       6.639  -5.442  26.299  0.00  0.00    +0.012 C 
ATOM     26  C   UNL     1       7.495  -4.242  26.568  0.00  0.00    +0.071 C 
ENDBRANCH  23  26
ENDBRANCH   1  23
BRANCH   7  27
ATOM     27  O   UNL     1       7.028   0.854  26.362  0.00  0.00    -0.391 OA
ATOM     28  H   UNL     1       6.751   0.270  27.085  0.00  0.00    +0.210 HD
ENDBRANCH   7  27
TORSDOF 3
ENDMDL
MODEL 6
REMARK VINA RESULT:      -7.6      2.004      7.222
REMARK  Name = 
REMARK  8 active torsions:
REMARK  status: ('A' for Active; 'I' for Inactive)
REMARK    1  A    between atoms: C_1  and  C_2
REMARK    2  A    between atoms: C_2  and  C_3
REMARK    3  A    between atoms: C_3  and  C_5
REMARK    4  A    between atoms: C_5  and  C_6
REMARK    5  A    between atoms: C_7  and  C_9
REMARK    6  A    between atoms: C_21  and  C_22
REMARK    7  A    between atoms: C_24  and  O_26
REMARK    8  A    between atoms: C_28  and  C_29
REMARK                            x       y       z     vdW  Elec       q    Type
REMARK                         _______ _______ _______ _____ _____    ______ ____
ROOT
ATOM      1  C   UNL     1       8.124   3.603  23.379  0.00  0.00    +0.034 C 
ATOM      2  C   UNL     1       7.775   2.404  24.268  0.00  0.00    -0.014 C 
ATOM      3  C   UNL     1       7.156   2.630  25.727  0.00  0.00    +0.012 C 
ATOM      4  C   UNL     1       9.510   1.733  23.986  0.00  0.00    -0.000 C 
ATOM      5  C   UNL     1       9.446   0.524  23.071  0.00  0.00    -0.000 C 
ATOM      6  C   UNL     1       7.838  -0.234  23.426  0.00  0.00    +0.035 C 
ATOM      7  C   UNL     1       6.429   0.458  23.499  0.00  0.00    +0.120 C 
ATOM      8  C   UNL     1       7.533  -1.785  23.139  0.00  0.00    +0.013 C 
ATOM      9  C   UNL     1       6.144  -2.150  23.828  0.00  0.00    +0.020 C 
ATOM     10  C   UNL     1       8.992  -2.101  23.327  0.00  0.00    -0.056 C 
ATOM     11  C   UNL     1       9.387  -2.999  24.238  0.00  0.00    +0.051 C 
ATOM     12  C   UNL     1       8.177  -3.785  24.460  0.00  0.00    +0.179 C 
ATOM     13  C   UNL     1       7.718  -4.257  22.936  0.00  0.00    +0.047 C 
ATOM     14  O   UNL     1       7.586  -3.945  25.516  0.00  0.00    -0.288 OA
ATOM     15  C   UNL     1       9.862  -1.517  22.235  0.00  0.00    +0.032 C 
ATOM     16  C   UNL     1       7.442  -3.052  22.321  0.00  0.00    -0.012 C 
ATOM     17  C   UNL     1      10.568  -0.535  23.123  0.00  0.00    +0.008 C 
ATOM     18  C   UNL     1      10.370   2.983  23.360  0.00  0.00    +0.008 C 
ATOM     19  C   UNL     1       6.442   1.902  23.601  0.00  0.00    +0.039 C 
ATOM     20  C   UNL     1       9.473   3.887  24.099  0.00  0.00    -0.000 C 
ATOM     21  C   UNL     1       9.896   5.264  24.373  0.00  0.00    +0.008 C 
ATOM     22  C   UNL     1       8.135   2.813  21.860  0.00  0.00    +0.020 C 
ENDROOT
BRANCH   1  23
ATOM     23  C   UNL     1       7.184   4.782  23.147  0.00  0.00    +0.140 C 
ATOM     24  O   UNL     1       6.325   5.027  23.999  0.00  0.00    -0.297 OA
BRANCH  23  26
ATOM     25  C   UNL     1       6.822   7.056  22.222  0.00  0.00    +0.012 C 
ATOM     26  C   UNL     1       7.193   5.640  21.899  0.00  0.00    +0.071 C 
ENDBRANCH  23  26
ENDBRANCH   1  23
BRANCH   7  27
ATOM     27  O   UNL     1       5.598   0.100  24.646  0.00  0.00    -0.391 OA
ATOM     28  H   UNL     1       6.031  -0.495  25.277  0.00  0.00    +0.210 HD
ENDBRANCH   7  27
TORSDOF 3
ENDMDL
MODEL 7
REMARK VINA RESULT:      -7.5      1.501      2.034
REMARK  Name = 
REMARK  8 active torsions:
REMARK  status: ('A' for Active; 'I' for Inactive)
REMARK    1  A    between atoms: C_1  and  C_2
REMARK    2  A    between atoms: C_2  and  C_3
REMARK    3  A    between atoms: C_3  and  C_5
REMARK    4  A    between atoms: C_5  and  C_6
REMARK    5  A    between atoms: C_7  and  C_9
REMARK    6  A    between atoms: C_21  and  C_22
REMARK    7  A    between atoms: C_24  and  O_26
REMARK    8  A    between atoms: C_28  and  C_29
REMARK                            x       y       z     vdW  Elec       q    Type
REMARK                         _______ _______ _______ _____ _____    ______ ____
ROOT
ATOM      1  C   UNL     1       7.643  -3.432  25.503  0.00  0.00    +0.034 C 
ATOM      2  C   UNL     1       7.060  -2.347  24.591  0.00  0.00    -0.014 C 
ATOM      3  C   UNL     1       5.793  -2.662  23.665  0.00  0.00    +0.012 C 
ATOM      4  C   UNL     1       8.784  -2.050  23.899  0.00  0.00    -0.000 C 
ATOM      5  C   UNL     1       9.317  -0.725  24.413  0.00  0.00    -0.000 C 
ATOM      6  C   UNL     1       7.844   0.310  24.627  0.00  0.00    +0.035 C 
ATOM      7  C   UNL     1       6.501  -0.048  25.360  0.00  0.00    +0.120 C 
ATOM      8  C   UNL     1       7.908   1.914  24.620  0.00  0.00    +0.013 C 
ATOM      9  C   UNL     1       6.416   2.467  24.548  0.00  0.00    +0.020 C 
ATOM     10  C   UNL     1       9.123   1.856  23.734  0.00  0.00    -0.056 C 
ATOM     11  C   UNL     1       9.138   2.480  22.550  0.00  0.00    +0.051 C 
ATOM     12  C   UNL     1       8.078   3.473  22.695  0.00  0.00    +0.179 C 
ATOM     13  C   UNL     1       8.470   4.279  24.094  0.00  0.00    +0.047 C 
ATOM     14  O   UNL     1       7.076   3.587  22.007  0.00  0.00    -0.288 OA
ATOM     15  C   UNL     1      10.332   1.277  24.437  0.00  0.00    +0.032 C 
ATOM     16  C   UNL     1       8.378   3.286  25.047  0.00  0.00    -0.012 C 
ATOM     17  C   UNL     1      10.396   0.029  23.606  0.00  0.00    +0.008 C 
ATOM     18  C   UNL     1       9.678  -3.343  24.372  0.00  0.00    +0.008 C 
ATOM     19  C   UNL     1       6.285  -1.454  25.629  0.00  0.00    +0.039 C 
ATOM     20  C   UNL     1       8.433  -4.129  24.359  0.00  0.00    -0.000 C 
ATOM     21  C   UNL     1       8.499  -5.591  24.281  0.00  0.00    +0.008 C 
ATOM     22  C   UNL     1       8.480  -2.428  26.609  0.00  0.00    +0.020 C 
ENDROOT
BRANCH   1  23
ATOM     23  C   UNL     1       6.794  -4.313  26.414  0.00  0.00    +0.140 C 
ATOM     24  O   UNL     1       7.295  -4.736  27.460  0.00  0.00    -0.297 OA
BRANCH  23  26
ATOM     25  C   UNL     1       5.298  -6.257  26.036  0.00  0.00    +0.012 C 
ATOM     26  C   UNL     1       5.385  -4.762  26.086  0.00  0.00    +0.071 C 
ENDBRANCH  23  26
ENDBRANCH   1  23
BRANCH   7  27
ATOM     27  O   UNL     1       5.271   0.296  24.649  0.00  0.00    -0.391 OA
ATOM     28  H   UNL     1       4.714  -0.467  24.433  0.00  0.00    +0.210 HD
ENDBRANCH   7  27
TORSDOF 3
ENDMDL
MODEL 8
REMARK VINA RESULT:      -7.4      1.499      6.722
REMARK  Name = 
REMARK  8 active torsions:
REMARK  status: ('A' for Active; 'I' for Inactive)
REMARK    1  A    between atoms: C_1  and  C_2
REMARK    2  A    between atoms: C_2  and  C_3
REMARK    3  A    between atoms: C_3  and  C_5
REMARK    4  A    between atoms: C_5  and  C_6
REMARK    5  A    between atoms: C_7  and  C_9
REMARK    6  A    between atoms: C_21  and  C_22
REMARK    7  A    between atoms: C_24  and  O_26
REMARK    8  A    between atoms: C_28  and  C_29
REMARK                            x       y       z     vdW  Elec       q    Type
REMARK                         _______ _______ _______ _____ _____    ______ ____
ROOT
ATOM      1  C   UNL     1       8.649   0.407  23.335  0.00  0.00    +0.034 C 
ATOM      2  C   UNL     1       7.835  -0.132  24.517  0.00  0.00    -0.014 C 
ATOM      3  C   UNL     1       7.296   0.862  25.649  0.00  0.00    +0.012 C 
ATOM      4  C   UNL     1       9.191  -1.398  24.828  0.00  0.00    -0.000 C 
ATOM      5  C   UNL     1       8.703  -2.777  24.421  0.00  0.00    -0.000 C 
ATOM      6  C   UNL     1       6.916  -2.737  24.719  0.00  0.00    +0.035 C 
ATOM      7  C   UNL     1       5.877  -1.647  24.270  0.00  0.00    +0.120 C 
ATOM      8  C   UNL     1       6.052  -4.069  24.964  0.00  0.00    +0.013 C 
ATOM      9  C   UNL     1       4.604  -3.632  25.465  0.00  0.00    +0.020 C 
ATOM     10  C   UNL     1       7.272  -4.750  25.525  0.00  0.00    -0.056 C 
ATOM     11  C   UNL     1       7.258  -5.274  26.756  0.00  0.00    +0.051 C 
ATOM     12  C   UNL     1       5.833  -5.445  27.018  0.00  0.00    +0.179 C 
ATOM     13  C   UNL     1       5.285  -6.313  25.713  0.00  0.00    +0.047 C 
ATOM     14  O   UNL     1       5.186  -4.952  27.929  0.00  0.00    -0.288 OA
ATOM     15  C   UNL     1       8.338  -4.991  24.479  0.00  0.00    +0.032 C 
ATOM     16  C   UNL     1       5.514  -5.448  24.662  0.00  0.00    -0.012 C 
ATOM     17  C   UNL     1       9.333  -4.031  25.065  0.00  0.00    +0.008 C 
ATOM     18  C   UNL     1      10.486  -0.880  23.964  0.00  0.00    +0.008 C 
ATOM     19  C   UNL     1       6.437  -0.383  23.840  0.00  0.00    +0.039 C 
ATOM     20  C   UNL     1       9.977   0.489  24.141  0.00  0.00    -0.000 C 
ATOM     21  C   UNL     1      10.883   1.629  23.970  0.00  0.00    +0.008 C 
ATOM     22  C   UNL     1       8.414  -0.887  22.238  0.00  0.00    +0.020 C 
ENDROOT
BRANCH   1  23
ATOM     23  C   UNL     1       8.241   1.629  22.518  0.00  0.00    +0.140 C 
ATOM     24  O   UNL     1       8.525   1.658  21.316  0.00  0.00    -0.297 OA
BRANCH  23  26
ATOM     25  C   UNL     1       6.375   3.247  22.275  0.00  0.00    +0.012 C 
ATOM     26  C   UNL     1       7.560   2.850  23.102  0.00  0.00    +0.071 C 
ENDBRANCH  23  26
ENDBRANCH   1  23
BRANCH   7  27
ATOM     27  O   UNL     1       4.930  -1.204  25.291  0.00  0.00    -0.391 OA
ATOM     28  H   UNL     1       5.212  -1.395  26.199  0.00  0.00    +0.210 HD
ENDBRANCH   7  27
TORSDOF 3
ENDMDL
MODEL 9
REMARK VINA RESULT:      -7.1      1.957      6.974
REMARK  Name = 
REMARK  8 active torsions:
REMARK  status: ('A' for Active; 'I' for Inactive)
REMARK    1  A    between atoms: C_1  and  C_2
REMARK    2  A    between atoms: C_2  and  C_3
REMARK    3  A    between atoms: C_3  and  C_5
REMARK    4  A    between atoms: C_5  and  C_6
REMARK    5  A    between atoms: C_7  and  C_9
REMARK    6  A    between atoms: C_21  and  C_22
REMARK    7  A    between atoms: C_24  and  O_26
REMARK    8  A    between atoms: C_28  and  C_29
REMARK                            x       y       z     vdW  Elec       q    Type
REMARK                         _______ _______ _______ _____ _____    ______ ____
ROOT
ATOM      1  C   UNL     1       8.418   0.038  23.763  0.00  0.00    +0.034 C 
ATOM      2  C   UNL     1       7.957  -1.408  23.546  0.00  0.00    -0.014 C 
ATOM      3  C   UNL     1       8.180  -2.126  22.134  0.00  0.00    +0.012 C 
ATOM      4  C   UNL     1       6.256  -0.925  24.191  0.00  0.00    -0.000 C 
ATOM      5  C   UNL     1       6.047  -1.521  25.571  0.00  0.00    -0.000 C 
ATOM      6  C   UNL     1       7.005  -3.060  25.555  0.00  0.00    +0.035 C 
ATOM      7  C   UNL     1       8.492  -3.278  25.097  0.00  0.00    +0.120 C 
ATOM      8  C   UNL     1       6.681  -4.288  26.539  0.00  0.00    +0.013 C 
ATOM      9  C   UNL     1       7.526  -5.547  26.051  0.00  0.00    +0.020 C 
ATOM     10  C   UNL     1       5.239  -3.860  26.589  0.00  0.00    -0.056 C 
ATOM     11  C   UNL     1       4.261  -4.705  26.241  0.00  0.00    +0.051 C 
ATOM     12  C   UNL     1       4.901  -6.010  26.371  0.00  0.00    +0.179 C 
ATOM     13  C   UNL     1       5.518  -6.003  27.914  0.00  0.00    +0.047 C 
ATOM     14  O   UNL     1       5.047  -6.850  25.498  0.00  0.00    -0.288 OA
ATOM     15  C   UNL     1       5.046  -2.539  27.302  0.00  0.00    +0.032 C 
ATOM     16  C   UNL     1       6.442  -4.980  27.861  0.00  0.00    -0.012 C 
ATOM     17  C   UNL     1       4.614  -1.779  26.083  0.00  0.00    +0.008 C 
ATOM     18  C   UNL     1       6.228   0.716  24.175  0.00  0.00    +0.008 C 
ATOM     19  C   UNL     1       9.073  -2.208  24.314  0.00  0.00    +0.039 C 
ATOM     20  C   UNL     1       7.181   0.659  23.055  0.00  0.00    -0.000 C 
ATOM     21  C   UNL     1       7.333   1.819  22.170  0.00  0.00    +0.008 C 
ATOM     22  C   UNL     1       8.493   0.039  25.474  0.00  0.00    +0.020 C 
ENDROOT
BRANCH   1  23
ATOM     23  C   UNL     1       9.797   0.552  23.359  0.00  0.00    +0.140 C 
ATOM     24  O   UNL     1      10.322   0.093  22.340  0.00  0.00    -0.297 OA
BRANCH  23  26
ATOM     25  C   UNL     1      10.671   2.872  23.464  0.00  0.00    +0.012 C 
ATOM     26  C   UNL     1      10.600   1.550  24.166  0.00  0.00    +0.071 C 
ENDBRANCH  23  26
ENDBRANCH   1  23
BRANCH   7  27
ATOM     27  O   UNL     1       8.734  -4.428  24.228  0.00  0.00    -0.391 OA
ATOM     28  H   UNL     1       8.584  -5.284  24.657  0.00  0.00    +0.210 HD
ENDBRANCH   7  27
TORSDOF 3
ENDMDL
