MODEL 1
REMARK VINA RESULT:      -6.3      0.000      0.000
REMARK  Name = 
REMARK  6 active torsions:
REMARK  status: ('A' for Active; 'I' for Inactive)
REMARK    1  A    between atoms: O_1  and  C_2
REMARK    2  A    between atoms: C_4  and  C_5
REMARK    3  A    between atoms: C_6  and  C_7
REMARK    4  A    between atoms: C_10  and  O_11
REMARK    5  A    between atoms: C_12  and  O_13
REMARK    6  A    between atoms: C_16  and  O_17
REMARK                            x       y       z     vdW  Elec       q    Type
REMARK                         _______ _______ _______ _____ _____    ______ ____
ROOT
ATOM      1  C   UNL     1       9.650   2.294  23.346  0.00  0.00    +0.009 C 
ATOM      2  C   UNL     1      10.196   1.093  23.599  0.00  0.00    +0.008 C 
ENDROOT
BRANCH   1   7
ATOM      3  C   UNL     1      12.364   4.895  23.508  0.00  0.00    +0.121 A 
ATOM      4  C   UNL     1      11.668   6.033  23.894  0.00  0.00    +0.090 A 
ATOM      5  C   UNL     1      10.301   5.946  24.115  0.00  0.00    +0.121 A 
ATOM      6  C   UNL     1       9.624   4.736  23.959  0.00  0.00    +0.053 A 
ATOM      7  C   UNL     1      10.328   3.580  23.583  0.00  0.00    -0.018 A 
ATOM      8  C   UNL     1      11.708   3.674  23.346  0.00  0.00    +0.053 A 
BRANCH   3   9
ATOM      9  O   UNL     1      13.704   5.015  23.287  0.00  0.00    -0.507 OA
ATOM     10  H   UNL     1      13.978   5.923  23.499  0.00  0.00    +0.292 HD
ENDBRANCH   3   9
BRANCH   5  11
ATOM     11  O   UNL     1       9.642   7.084  24.480  0.00  0.00    -0.507 OA
ATOM     12  H   UNL     1       9.985   7.827  23.958  0.00  0.00    +0.292 HD
ENDBRANCH   5  11
ENDBRANCH   1   7
BRANCH   2  13
ATOM     13  C   UNL     1       9.494  -0.191  23.428  0.00  0.00    -0.021 A 
ATOM     14  C   UNL     1      10.101  -1.352  23.927  0.00  0.00    +0.057 A 
ATOM     15  C   UNL     1       9.462  -2.578  23.793  0.00  0.00    +0.159 A 
ATOM     16  C   UNL     1       8.229  -2.676  23.157  0.00  0.00    +0.158 A 
ATOM     17  C   UNL     1       7.624  -1.543  22.629  0.00  0.00    +0.050 A 
ATOM     18  C   UNL     1       8.262  -0.304  22.762  0.00  0.00    +0.012 A 
BRANCH  15  19
ATOM     19  O   UNL     1      10.056  -3.697  24.303  0.00  0.00    -0.503 OA
ATOM     20  H   UNL     1      10.391  -3.420  25.179  0.00  0.00    +0.292 HD
ENDBRANCH  15  19
BRANCH  16  21
ATOM     21  O   UNL     1       7.650  -3.912  23.076  0.00  0.00    -0.503 OA
ATOM     22  H   UNL     1       7.537  -4.253  23.980  0.00  0.00    +0.292 HD
ENDBRANCH  16  21
ENDBRANCH   2  13
TORSDOF 6
ENDMDL
MODEL 2
REMARK VINA RESULT:      -6.3      0.195      1.946
REMARK  Name = 
REMARK  6 active torsions:
REMARK  status: ('A' for Active; 'I' for Inactive)
REMARK    1  A    between atoms: O_1  and  C_2
REMARK    2  A    between atoms: C_4  and  C_5
REMARK    3  A    between atoms: C_6  and  C_7
REMARK    4  A    between atoms: C_10  and  O_11
REMARK    5  A    between atoms: C_12  and  O_13
REMARK    6  A    between atoms: C_16  and  O_17
REMARK                            x       y       z     vdW  Elec       q    Type
REMARK                         _______ _______ _______ _____ _____    ______ ____
ROOT
ATOM      1  C   UNL     1       9.572   2.220  23.454  0.00  0.00    +0.009 C 
ATOM      2  C   UNL     1      10.152   1.050  23.142  0.00  0.00    +0.008 C 
ENDROOT
BRANCH   1   7
ATOM      3  C   UNL     1      10.223   5.890  23.966  0.00  0.00    +0.121 A 
ATOM      4  C   UNL     1      11.596   5.982  23.777  0.00  0.00    +0.090 A 
ATOM      5  C   UNL     1      12.313   4.836  23.467  0.00  0.00    +0.121 A 
ATOM      6  C   UNL     1      11.675   3.602  23.341  0.00  0.00    +0.053 A 
ATOM      7  C   UNL     1      10.284   3.509  23.517  0.00  0.00    -0.018 A 
ATOM      8  C   UNL     1       9.563   4.667  23.844  0.00  0.00    +0.053 A 
BRANCH   3   9
ATOM      9  O   UNL     1       9.548   7.033  24.281  0.00  0.00    -0.507 OA
ATOM     10  H   UNL     1      10.168   7.780  24.261  0.00  0.00    +0.292 HD
ENDBRANCH   3   9
BRANCH   5  11
ATOM     11  O   UNL     1      13.662   4.955  23.300  0.00  0.00    -0.507 OA
ATOM     12  H   UNL     1      14.029   4.085  23.076  0.00  0.00    +0.292 HD
ENDBRANCH   5  11
ENDBRANCH   1   7
BRANCH   2  13
ATOM     13  C   UNL     1       9.456  -0.249  23.146  0.00  0.00    -0.021 A 
ATOM     14  C   UNL     1      10.122  -1.359  23.686  0.00  0.00    +0.057 A 
ATOM     15  C   UNL     1       9.491  -2.596  23.716  0.00  0.00    +0.159 A 
ATOM     16  C   UNL     1       8.207  -2.756  23.205  0.00  0.00    +0.158 A 
ATOM     17  C   UNL     1       7.542  -1.677  22.639  0.00  0.00    +0.050 A 
ATOM     18  C   UNL     1       8.171  -0.427  22.606  0.00  0.00    +0.012 A 
BRANCH  15  19
ATOM     19  O   UNL     1      10.144  -3.662  24.264  0.00  0.00    -0.503 OA
ATOM     20  H   UNL     1      10.872  -3.852  23.639  0.00  0.00    +0.292 HD
ENDBRANCH  15  19
BRANCH  16  21
ATOM     21  O   UNL     1       7.642  -3.999  23.283  0.00  0.00    -0.503 OA
ATOM     22  H   UNL     1       7.980  -4.435  24.084  0.00  0.00    +0.292 HD
ENDBRANCH  16  21
ENDBRANCH   2  13
TORSDOF 6
ENDMDL
MODEL 3
REMARK VINA RESULT:      -6.2      3.364      5.412
REMARK  Name = 
REMARK  6 active torsions:
REMARK  status: ('A' for Active; 'I' for Inactive)
REMARK    1  A    between atoms: O_1  and  C_2
REMARK    2  A    between atoms: C_4  and  C_5
REMARK    3  A    between atoms: C_6  and  C_7
REMARK    4  A    between atoms: C_10  and  O_11
REMARK    5  A    between atoms: C_12  and  O_13
REMARK    6  A    between atoms: C_16  and  O_17
REMARK                            x       y       z     vdW  Elec       q    Type
REMARK                         _______ _______ _______ _____ _____    ______ ____
ROOT
ATOM      1  C   UNL     1       8.038  -2.421  23.165  0.00  0.00    +0.009 C 
ATOM      2  C   UNL     1       7.506  -3.001  24.252  0.00  0.00    +0.008 C 
ENDROOT
BRANCH   1   7
ATOM      3  C   UNL     1       9.413   0.944  22.193  0.00  0.00    +0.121 A 
ATOM      4  C   UNL     1      10.272   1.234  23.244  0.00  0.00    +0.090 A 
ATOM      5  C   UNL     1      10.413   0.315  24.274  0.00  0.00    +0.121 A 
ATOM      6  C   UNL     1       9.708  -0.889  24.264  0.00  0.00    +0.053 A 
ATOM      7  C   UNL     1       8.850  -1.191  23.194  0.00  0.00    -0.018 A 
ATOM      8  C   UNL     1       8.698  -0.254  22.161  0.00  0.00    +0.053 A 
BRANCH   3   9
ATOM      9  O   UNL     1       9.287   1.873  21.202  0.00  0.00    -0.507 OA
ATOM     10  H   UNL     1       9.278   1.418  20.344  0.00  0.00    +0.292 HD
ENDBRANCH   3   9
BRANCH   5  11
ATOM     11  O   UNL     1      11.254   0.634  25.301  0.00  0.00    -0.507 OA
ATOM     12  H   UNL     1      10.789   1.223  25.916  0.00  0.00    +0.292 HD
ENDBRANCH   5  11
ENDBRANCH   1   7
BRANCH   2  13
ATOM     13  C   UNL     1       6.638  -4.191  24.218  0.00  0.00    -0.021 A 
ATOM     14  C   UNL     1       6.214  -4.671  22.971  0.00  0.00    +0.057 A 
ATOM     15  C   UNL     1       5.404  -5.797  22.902  0.00  0.00    +0.159 A 
ATOM     16  C   UNL     1       4.993  -6.454  24.058  0.00  0.00    +0.158 A 
ATOM     17  C   UNL     1       5.377  -5.979  25.304  0.00  0.00    +0.050 A 
ATOM     18  C   UNL     1       6.194  -4.845  25.381  0.00  0.00    +0.012 A 
BRANCH  15  19
ATOM     19  O   UNL     1       5.017  -6.264  21.679  0.00  0.00    -0.503 OA
ATOM     20  H   UNL     1       4.117  -5.901  21.551  0.00  0.00    +0.292 HD
ENDBRANCH  15  19
BRANCH  16  21
ATOM     21  O   UNL     1       4.211  -7.566  23.913  0.00  0.00    -0.503 OA
ATOM     22  H   UNL     1       4.303  -7.884  22.998  0.00  0.00    +0.292 HD
ENDBRANCH  16  21
ENDBRANCH   2  13
TORSDOF 6
ENDMDL
MODEL 4
REMARK VINA RESULT:      -6.2      2.900      8.618
REMARK  Name = 
REMARK  6 active torsions:
REMARK  status: ('A' for Active; 'I' for Inactive)
REMARK    1  A    between atoms: O_1  and  C_2
REMARK    2  A    between atoms: C_4  and  C_5
REMARK    3  A    between atoms: C_6  and  C_7
REMARK    4  A    between atoms: C_10  and  O_11
REMARK    5  A    between atoms: C_12  and  O_13
REMARK    6  A    between atoms: C_16  and  O_17
REMARK                            x       y       z     vdW  Elec       q    Type
REMARK                         _______ _______ _______ _____ _____    ______ ____
ROOT
ATOM      1  C   UNL     1       7.415  -2.269  23.442  0.00  0.00    +0.009 C 
ATOM      2  C   UNL     1       8.724  -2.057  23.235  0.00  0.00    +0.008 C 
ENDROOT
BRANCH   1   7
ATOM      3  C   UNL     1       6.043  -5.298  21.681  0.00  0.00    +0.121 A 
ATOM      4  C   UNL     1       5.570  -6.070  22.734  0.00  0.00    +0.090 A 
ATOM      5  C   UNL     1       5.690  -5.591  24.030  0.00  0.00    +0.121 A 
ATOM      6  C   UNL     1       6.273  -4.349  24.285  0.00  0.00    +0.053 A 
ATOM      7  C   UNL     1       6.738  -3.559  23.221  0.00  0.00    -0.018 A 
ATOM      8  C   UNL     1       6.629  -4.053  21.913  0.00  0.00    +0.053 A 
BRANCH   3   9
ATOM      9  O   UNL     1       5.922  -5.803  20.420  0.00  0.00    -0.507 OA
ATOM     10  H   UNL     1       5.344  -5.220  19.902  0.00  0.00    +0.292 HD
ENDBRANCH   3   9
BRANCH   5  11
ATOM     11  O   UNL     1       5.229  -6.378  25.045  0.00  0.00    -0.507 OA
ATOM     12  H   UNL     1       5.934  -6.988  25.315  0.00  0.00    +0.292 HD
ENDBRANCH   5  11
ENDBRANCH   1   7
BRANCH   2  13
ATOM     13  C   UNL     1       9.389  -0.750  23.388  0.00  0.00    -0.021 A 
ATOM     14  C   UNL     1       9.342   0.151  22.316  0.00  0.00    +0.057 A 
ATOM     15  C   UNL     1       9.947   1.396  22.432  0.00  0.00    +0.159 A 
ATOM     16  C   UNL     1      10.616   1.759  23.596  0.00  0.00    +0.158 A 
ATOM     17  C   UNL     1      10.701   0.870  24.659  0.00  0.00    +0.050 A 
ATOM     18  C   UNL     1      10.091  -0.385  24.549  0.00  0.00    +0.012 A 
BRANCH  15  19
ATOM     19  O   UNL     1       9.875   2.271  21.386  0.00  0.00    -0.503 OA
ATOM     20  H   UNL     1      10.678   2.090  20.858  0.00  0.00    +0.292 HD
ENDBRANCH  15  19
BRANCH  16  21
ATOM     21  O   UNL     1      11.175   3.007  23.646  0.00  0.00    -0.503 OA
ATOM     22  H   UNL     1      10.520   3.616  24.029  0.00  0.00    +0.292 HD
ENDBRANCH  16  21
ENDBRANCH   2  13
TORSDOF 6
ENDMDL
MODEL 5
REMARK VINA RESULT:      -6.1      3.052      8.853
REMARK  Name = 
REMARK  6 active torsions:
REMARK  status: ('A' for Active; 'I' for Inactive)
REMARK    1  A    between atoms: O_1  and  C_2
REMARK    2  A    between atoms: C_4  and  C_5
REMARK    3  A    between atoms: C_6  and  C_7
REMARK    4  A    between atoms: C_10  and  O_11
REMARK    5  A    between atoms: C_12  and  O_13
REMARK    6  A    between atoms: C_16  and  O_17
REMARK                            x       y       z     vdW  Elec       q    Type
REMARK                         _______ _______ _______ _____ _____    ______ ____
ROOT
ATOM      1  C   UNL     1       8.117  -3.041  23.888  0.00  0.00    +0.009 C 
ATOM      2  C   UNL     1       8.098  -1.946  23.112  0.00  0.00    +0.008 C 
ENDROOT
BRANCH   1   7
ATOM      3  C   UNL     1       5.663  -5.777  24.694  0.00  0.00    +0.121 A 
ATOM      4  C   UNL     1       5.398  -6.322  23.444  0.00  0.00    +0.090 A 
ATOM      5  C   UNL     1       6.037  -5.798  22.330  0.00  0.00    +0.121 A 
ATOM      6  C   UNL     1       6.938  -4.740  22.450  0.00  0.00    +0.053 A 
ATOM      7  C   UNL     1       7.220  -4.197  23.715  0.00  0.00    -0.018 A 
ATOM      8  C   UNL     1       6.562  -4.719  24.838  0.00  0.00    +0.053 A 
BRANCH   3   9
ATOM      9  O   UNL     1       5.010  -6.306  25.768  0.00  0.00    -0.507 OA
ATOM     10  H   UNL     1       4.221  -6.778  25.456  0.00  0.00    +0.292 HD
ENDBRANCH   3   9
BRANCH   5  11
ATOM     11  O   UNL     1       5.746  -6.345  21.114  0.00  0.00    -0.507 OA
ATOM     12  H   UNL     1       5.437  -5.642  20.520  0.00  0.00    +0.292 HD
ENDBRANCH   5  11
ENDBRANCH   1   7
BRANCH   2  13
ATOM     13  C   UNL     1       8.947  -0.760  23.326  0.00  0.00    -0.021 A 
ATOM     14  C   UNL     1       9.077   0.163  22.280  0.00  0.00    +0.057 A 
ATOM     15  C   UNL     1       9.860   1.297  22.452  0.00  0.00    +0.159 A 
ATOM     16  C   UNL     1      10.532   1.527  23.648  0.00  0.00    +0.158 A 
ATOM     17  C   UNL     1      10.441   0.610  24.687  0.00  0.00    +0.050 A 
ATOM     18  C   UNL     1       9.653  -0.534  24.520  0.00  0.00    +0.012 A 
BRANCH  15  19
ATOM     19  O   UNL     1       9.960   2.198  21.430  0.00  0.00    -0.503 OA
ATOM     20  H   UNL     1      10.312   1.679  20.679  0.00  0.00    +0.292 HD
ENDBRANCH  15  19
BRANCH  16  21
ATOM     21  O   UNL     1      11.271   2.673  23.752  0.00  0.00    -0.503 OA
ATOM     22  H   UNL     1      11.074   3.082  24.613  0.00  0.00    +0.292 HD
ENDBRANCH  16  21
ENDBRANCH   2  13
TORSDOF 6
ENDMDL
MODEL 6
REMARK VINA RESULT:      -6.1      3.300      8.612
REMARK  Name = 
REMARK  6 active torsions:
REMARK  status: ('A' for Active; 'I' for Inactive)
REMARK    1  A    between atoms: O_1  and  C_2
REMARK    2  A    between atoms: C_4  and  C_5
REMARK    3  A    between atoms: C_6  and  C_7
REMARK    4  A    between atoms: C_10  and  O_11
REMARK    5  A    between atoms: C_12  and  O_13
REMARK    6  A    between atoms: C_16  and  O_17
REMARK                            x       y       z     vdW  Elec       q    Type
REMARK                         _______ _______ _______ _____ _____    ______ ____
ROOT
ATOM      1  C   UNL     1       7.413  -2.354  24.460  0.00  0.00    +0.009 C 
ATOM      2  C   UNL     1       8.656  -1.881  24.640  0.00  0.00    +0.008 C 
ENDROOT
BRANCH   1   7
ATOM      3  C   UNL     1       5.296  -5.405  25.069  0.00  0.00    +0.121 A 
ATOM      4  C   UNL     1       5.914  -5.986  26.168  0.00  0.00    +0.090 A 
ATOM      5  C   UNL     1       7.026  -5.368  26.723  0.00  0.00    +0.121 A 
ATOM      6  C   UNL     1       7.523  -4.177  26.194  0.00  0.00    +0.053 A 
ATOM      7  C   UNL     1       6.891  -3.579  25.092  0.00  0.00    -0.018 A 
ATOM      8  C   UNL     1       5.776  -4.213  24.524  0.00  0.00    +0.053 A 
BRANCH   3   9
ATOM      9  O   UNL     1       4.213  -6.043  24.539  0.00  0.00    -0.507 OA
ATOM     10  H   UNL     1       3.530  -6.126  25.225  0.00  0.00    +0.292 HD
ENDBRANCH   3   9
BRANCH   5  11
ATOM     11  O   UNL     1       7.620  -5.970  27.794  0.00  0.00    -0.507 OA
ATOM     12  H   UNL     1       7.128  -6.777  28.013  0.00  0.00    +0.292 HD
ENDBRANCH   5  11
ENDBRANCH   1   7
BRANCH   2  13
ATOM     13  C   UNL     1       9.201  -0.695  23.956  0.00  0.00    -0.021 A 
ATOM     14  C   UNL     1       8.749  -0.408  22.660  0.00  0.00    +0.057 A 
ATOM     15  C   UNL     1       9.233   0.709  21.991  0.00  0.00    +0.159 A 
ATOM     16  C   UNL     1      10.176   1.544  22.582  0.00  0.00    +0.158 A 
ATOM     17  C   UNL     1      10.659   1.261  23.853  0.00  0.00    +0.050 A 
ATOM     18  C   UNL     1      10.174   0.138  24.534  0.00  0.00    +0.012 A 
BRANCH  15  19
ATOM     19  O   UNL     1       8.768   0.987  20.738  0.00  0.00    -0.503 OA
ATOM     20  H   UNL     1       7.820   1.193  20.868  0.00  0.00    +0.292 HD
ENDBRANCH  15  19
BRANCH  16  21
ATOM     21  O   UNL     1      10.596   2.634  21.871  0.00  0.00    -0.503 OA
ATOM     22  H   UNL     1      11.434   2.943  22.257  0.00  0.00    +0.292 HD
ENDBRANCH  16  21
ENDBRANCH   2  13
TORSDOF 6
ENDMDL
MODEL 7
REMARK VINA RESULT:      -6.0      3.253      5.076
REMARK  Name = 
REMARK  6 active torsions:
REMARK  status: ('A' for Active; 'I' for Inactive)
REMARK    1  A    between atoms: O_1  and  C_2
REMARK    2  A    between atoms: C_4  and  C_5
REMARK    3  A    between atoms: C_6  and  C_7
REMARK    4  A    between atoms: C_10  and  O_11
REMARK    5  A    between atoms: C_12  and  O_13
REMARK    6  A    between atoms: C_16  and  O_17
REMARK                            x       y       z     vdW  Elec       q    Type
REMARK                         _______ _______ _______ _____ _____    ______ ____
ROOT
ATOM      1  C   UNL     1       7.483  -1.740  23.459  0.00  0.00    +0.009 C 
ATOM      2  C   UNL     1       7.856  -3.029  23.497  0.00  0.00    +0.008 C 
ENDROOT
BRANCH   1   7
ATOM      3  C   UNL     1      10.335   0.538  24.369  0.00  0.00    +0.121 A 
ATOM      4  C   UNL     1      10.325   1.463  23.333  0.00  0.00    +0.090 A 
ATOM      5  C   UNL     1       9.369   1.347  22.335  0.00  0.00    +0.121 A 
ATOM      6  C   UNL     1       8.423   0.322  22.362  0.00  0.00    +0.053 A 
ATOM      7  C   UNL     1       8.422  -0.605  23.416  0.00  0.00    -0.018 A 
ATOM      8  C   UNL     1       9.398  -0.494  24.417  0.00  0.00    +0.053 A 
BRANCH   3   9
ATOM      9  O   UNL     1      11.295   0.672  25.329  0.00  0.00    -0.507 OA
ATOM     10  H   UNL     1      11.547  -0.210  25.647  0.00  0.00    +0.292 HD
ENDBRANCH   3   9
BRANCH   5  11
ATOM     11  O   UNL     1       9.392   2.262  21.322  0.00  0.00    -0.507 OA
ATOM     12  H   UNL     1       8.774   1.980  20.629  0.00  0.00    +0.292 HD
ENDBRANCH   5  11
ENDBRANCH   1   7
BRANCH   2  13
ATOM     13  C   UNL     1       6.921  -4.163  23.609  0.00  0.00    -0.021 A 
ATOM     14  C   UNL     1       6.445  -4.753  22.430  0.00  0.00    +0.057 A 
ATOM     15  C   UNL     1       5.572  -5.830  22.499  0.00  0.00    +0.159 A 
ATOM     16  C   UNL     1       5.148  -6.328  23.727  0.00  0.00    +0.158 A 
ATOM     17  C   UNL     1       5.583  -5.740  24.907  0.00  0.00    +0.050 A 
ATOM     18  C   UNL     1       6.465  -4.655  24.844  0.00  0.00    +0.012 A 
BRANCH  15  19
ATOM     19  O   UNL     1       5.134  -6.407  21.342  0.00  0.00    -0.503 OA
ATOM     20  H   UNL     1       4.158  -6.379  21.408  0.00  0.00    +0.292 HD
ENDBRANCH  15  19
BRANCH  16  21
ATOM     21  O   UNL     1       4.300  -7.402  23.720  0.00  0.00    -0.503 OA
ATOM     22  H   UNL     1       3.882  -7.451  22.843  0.00  0.00    +0.292 HD
ENDBRANCH  16  21
ENDBRANCH   2  13
TORSDOF 6
ENDMDL
MODEL 8
REMARK VINA RESULT:      -5.9      2.920      8.255
REMARK  Name = 
REMARK  6 active torsions:
REMARK  status: ('A' for Active; 'I' for Inactive)
REMARK    1  A    between atoms: O_1  and  C_2
REMARK    2  A    between atoms: C_4  and  C_5
REMARK    3  A    between atoms: C_6  and  C_7
REMARK    4  A    between atoms: C_10  and  O_11
REMARK    5  A    between atoms: C_12  and  O_13
REMARK    6  A    between atoms: C_16  and  O_17
REMARK                            x       y       z     vdW  Elec       q    Type
REMARK                         _______ _______ _______ _____ _____    ______ ____
ROOT
ATOM      1  C   UNL     1       8.335  -1.422  25.603  0.00  0.00    +0.009 C 
ATOM      2  C   UNL     1       9.200  -0.907  24.715  0.00  0.00    +0.008 C 
ENDROOT
BRANCH   1   7
ATOM      3  C   UNL     1       7.042  -4.653  27.034  0.00  0.00    +0.121 A 
ATOM      4  C   UNL     1       7.928  -5.588  26.516  0.00  0.00    +0.090 A 
ATOM      5  C   UNL     1       8.965  -5.157  25.701  0.00  0.00    +0.121 A 
ATOM      6  C   UNL     1       9.127  -3.804  25.402  0.00  0.00    +0.053 A 
ATOM      7  C   UNL     1       8.242  -2.854  25.937  0.00  0.00    -0.018 A 
ATOM      8  C   UNL     1       7.186  -3.294  26.749  0.00  0.00    +0.053 A 
BRANCH   3   9
ATOM      9  O   UNL     1       6.027  -5.109  27.822  0.00  0.00    -0.507 OA
ATOM     10  H   UNL     1       6.292  -5.035  28.753  0.00  0.00    +0.292 HD
ENDBRANCH   3   9
BRANCH   5  11
ATOM     11  O   UNL     1       9.811  -6.100  25.195  0.00  0.00    -0.507 OA
ATOM     12  H   UNL     1       9.333  -6.941  25.116  0.00  0.00    +0.292 HD
ENDBRANCH   5  11
ENDBRANCH   1   7
BRANCH   2  13
ATOM     13  C   UNL     1       9.248   0.514  24.329  0.00  0.00    -0.021 A 
ATOM     14  C   UNL     1       9.920   0.861  23.149  0.00  0.00    +0.057 A 
ATOM     15  C   UNL     1       9.974   2.190  22.749  0.00  0.00    +0.159 A 
ATOM     16  C   UNL     1       9.380   3.191  23.512  0.00  0.00    +0.158 A 
ATOM     17  C   UNL     1       8.734   2.873  24.699  0.00  0.00    +0.050 A 
ATOM     18  C   UNL     1       8.675   1.535  25.107  0.00  0.00    +0.012 A 
BRANCH  15  19
ATOM     19  O   UNL     1      10.614   2.510  21.586  0.00  0.00    -0.503 OA
ATOM     20  H   UNL     1       9.953   2.335  20.886  0.00  0.00    +0.292 HD
ENDBRANCH  15  19
BRANCH  16  21
ATOM     21  O   UNL     1       9.458   4.475  23.049  0.00  0.00    -0.503 OA
ATOM     22  H   UNL     1       9.097   5.066  23.733  0.00  0.00    +0.292 HD
ENDBRANCH  16  21
ENDBRANCH   2  13
TORSDOF 6
ENDMDL
MODEL 9
REMARK VINA RESULT:      -5.9      4.065      9.267
REMARK  Name = 
REMARK  6 active torsions:
REMARK  status: ('A' for Active; 'I' for Inactive)
REMARK    1  A    between atoms: O_1  and  C_2
REMARK    2  A    between atoms: C_4  and  C_5
REMARK    3  A    between atoms: C_6  and  C_7
REMARK    4  A    between atoms: C_10  and  O_11
REMARK    5  A    between atoms: C_12  and  O_13
REMARK    6  A    between atoms: C_16  and  O_17
REMARK                            x       y       z     vdW  Elec       q    Type
REMARK                         _______ _______ _______ _____ _____    ______ ____
ROOT
ATOM      1  C   UNL     1       6.221  -3.016  23.670  0.00  0.00    +0.009 C 
ATOM      2  C   UNL     1       7.393  -2.863  23.034  0.00  0.00    +0.008 C 
ENDROOT
BRANCH   1   7
ATOM      3  C   UNL     1       5.412  -6.094  25.677  0.00  0.00    +0.121 A 
ATOM      4  C   UNL     1       4.483  -6.742  24.874  0.00  0.00    +0.090 A 
ATOM      5  C   UNL     1       4.126  -6.173  23.660  0.00  0.00    +0.121 A 
ATOM      6  C   UNL     1       4.690  -4.969  23.239  0.00  0.00    +0.053 A 
ATOM      7  C   UNL     1       5.642  -4.319  24.042  0.00  0.00    -0.018 A 
ATOM      8  C   UNL     1       5.990  -4.889  25.276  0.00  0.00    +0.053 A 
BRANCH   3   9
ATOM      9  O   UNL     1       5.733  -6.673  26.870  0.00  0.00    -0.507 OA
ATOM     10  H   UNL     1       5.533  -6.049  27.586  0.00  0.00    +0.292 HD
ENDBRANCH   3   9
BRANCH   5  11
ATOM     11  O   UNL     1       3.200  -6.826  22.899  0.00  0.00    -0.507 OA
ATOM     12  H   UNL     1       2.313  -6.541  23.172  0.00  0.00    +0.292 HD
ENDBRANCH   5  11
ENDBRANCH   1   7
BRANCH   2  13
ATOM     13  C   UNL     1       7.940  -1.566  22.600  0.00  0.00    -0.021 A 
ATOM     14  C   UNL     1       7.215  -0.404  22.899  0.00  0.00    +0.057 A 
ATOM     15  C   UNL     1       7.708   0.837  22.516  0.00  0.00    +0.159 A 
ATOM     16  C   UNL     1       8.910   0.945  21.824  0.00  0.00    +0.158 A 
ATOM     17  C   UNL     1       9.630  -0.195  21.492  0.00  0.00    +0.050 A 
ATOM     18  C   UNL     1       9.139  -1.448  21.877  0.00  0.00    +0.012 A 
BRANCH  15  19
ATOM     19  O   UNL     1       7.001   1.960  22.833  0.00  0.00    -0.503 OA
ATOM     20  H   UNL     1       7.381   2.259  23.683  0.00  0.00    +0.292 HD
ENDBRANCH  15  19
BRANCH  16  21
ATOM     21  O   UNL     1       9.343   2.200  21.493  0.00  0.00    -0.503 OA
ATOM     22  H   UNL     1      10.291   2.259  21.706  0.00  0.00    +0.292 HD
ENDBRANCH  16  21
ENDBRANCH   2  13
TORSDOF 6
ENDMDL
