MODEL 1
REMARK VINA RESULT:      -4.8      0.000      0.000
REMARK  Name = 
REMARK  11 active torsions:
REMARK  status: ('A' for Active; 'I' for Inactive)
REMARK    1  A    between atoms: CA_2  and  C_3
REMARK    2  A    between atoms: CA_2  and  N_6
REMARK    3  A    between atoms: CA_2  and  C_14
REMARK    4  A    between atoms: C_3  and  C_4
REMARK    5  A    between atoms: C_4  and  S_5
REMARK    6  A    between atoms: C_7  and  C_9
REMARK    7  A    between atoms: C_9  and  C_10
REMARK    8  A    between atoms: C_10  and  C_11
REMARK    9  A    between atoms: C_11  and  C_12
REMARK   10  A    between atoms: C_12  and  C_13
REMARK   11  A    between atoms: C_14  and  O_15
REMARK                            x       y       z     vdW  Elec       q    Type
REMARK                         _______ _______ _______ _____ _____    ______ ____
ROOT
ATOM      1  CA  UNL     1       8.400  -3.811  24.588  0.00  0.00    +0.182 C 
ENDROOT
BRANCH   1   2
ATOM      2  N   UNL     1       9.227  -3.047  23.661  0.00  0.00    -0.302 N 
ATOM      3  H   UNL     1       9.568  -3.528  22.833  0.00  0.00    +0.150 HD
ATOM      4  C   UNL     1       9.447  -1.703  23.820  0.00  0.00    +0.214 C 
ATOM      5  O   UNL     1       9.023  -1.076  24.787  0.00  0.00    -0.276 OA
BRANCH   4   6
ATOM      6  C   UNL     1      10.290  -1.059  22.738  0.00  0.00    +0.096 C 
BRANCH   6   7
ATOM      7  C   UNL     1       9.499  -0.671  21.489  0.00  0.00    +0.009 C 
BRANCH   7   8
ATOM      8  C   UNL     1       9.059   0.795  21.502  0.00  0.00    +0.000 C 
BRANCH   8   9
ATOM      9  C   UNL     1      10.130   1.686  22.130  0.00  0.00    -0.003 C 
ATOM     10  C   UNL     1       9.549   2.560  23.229  0.00  0.00    +0.004 C 
ENDBRANCH   8   9
ENDBRANCH   7   8
ENDBRANCH   6   7
ENDBRANCH   4   6
ENDBRANCH   1   2
BRANCH   1  11
ATOM     11  C   UNL     1       9.362  -4.554  25.516  0.00  0.00    +0.325 C 
ATOM     12  OXT UNL     1       9.233  -4.594  26.732  0.00  0.00    -0.249 OA
BRANCH  11  13
ATOM     13  O   UNL     1      10.350  -5.218  24.874  0.00  0.00    -0.479 OA
ATOM     14  H   UNL     1      11.243  -5.090  25.249  0.00  0.00    +0.295 HD
ENDBRANCH  11  13
ENDBRANCH   1  11
BRANCH   1  15
ATOM     15  C   UNL     1       7.494  -4.788  23.828  0.00  0.00    +0.044 C 
BRANCH  15  16
ATOM     16  C   UNL     1       7.239  -4.333  22.392  0.00  0.00    +0.068 C 
BRANCH  16  17
ATOM     17  S   UNL     1       6.471  -5.660  21.420  0.00  0.00    -0.178 S 
ATOM     18  H   UNL     1       7.533  -5.931  20.647  0.00  0.00    +0.102 HD
ENDBRANCH  16  17
ENDBRANCH  15  16
ENDBRANCH   1  15
TORSDOF 10
ENDMDL
MODEL 2
REMARK VINA RESULT:      -4.6      2.280      3.241
REMARK  Name = 
REMARK  11 active torsions:
REMARK  status: ('A' for Active; 'I' for Inactive)
REMARK    1  A    between atoms: CA_2  and  C_3
REMARK    2  A    between atoms: CA_2  and  N_6
REMARK    3  A    between atoms: CA_2  and  C_14
REMARK    4  A    between atoms: C_3  and  C_4
REMARK    5  A    between atoms: C_4  and  S_5
REMARK    6  A    between atoms: C_7  and  C_9
REMARK    7  A    between atoms: C_9  and  C_10
REMARK    8  A    between atoms: C_10  and  C_11
REMARK    9  A    between atoms: C_11  and  C_12
REMARK   10  A    between atoms: C_12  and  C_13
REMARK   11  A    between atoms: C_14  and  O_15
REMARK                            x       y       z     vdW  Elec       q    Type
REMARK                         _______ _______ _______ _____ _____    ______ ____
ROOT
ATOM      1  CA  UNL     1       7.759  -3.315  22.705  0.00  0.00    +0.182 C 
ENDROOT
BRANCH   1   2
ATOM      2  N   UNL     1       8.242  -2.281  23.613  0.00  0.00    -0.302 N 
ATOM      3  H   UNL     1       7.624  -1.994  24.367  0.00  0.00    +0.150 HD
ATOM      4  C   UNL     1       9.520  -1.790  23.541  0.00  0.00    +0.214 C 
ATOM      5  O   UNL     1      10.311  -2.135  22.668  0.00  0.00    -0.276 OA
BRANCH   4   6
ATOM      6  C   UNL     1       9.868  -0.755  24.592  0.00  0.00    +0.096 C 
BRANCH   6   7
ATOM      7  C   UNL     1      10.775   0.364  24.080  0.00  0.00    +0.009 C 
BRANCH   7   8
ATOM      8  C   UNL     1       9.990   1.602  23.635  0.00  0.00    +0.000 C 
BRANCH   8   9
ATOM      9  C   UNL     1      10.039   1.769  22.118  0.00  0.00    -0.003 C 
ATOM     10  C   UNL     1       8.879   1.053  21.444  0.00  0.00    +0.004 C 
ENDBRANCH   8   9
ENDBRANCH   7   8
ENDBRANCH   6   7
ENDBRANCH   4   6
ENDBRANCH   1   2
BRANCH   1  11
ATOM     11  C   UNL     1       6.346  -2.902  22.290  0.00  0.00    +0.325 C 
ATOM     12  OXT UNL     1       5.618  -3.594  21.590  0.00  0.00    -0.249 OA
BRANCH  11  13
ATOM     13  O   UNL     1       5.939  -1.721  22.806  0.00  0.00    -0.479 OA
ATOM     14  H   UNL     1       6.476  -0.949  22.543  0.00  0.00    +0.295 HD
ENDBRANCH  11  13
ENDBRANCH   1  11
BRANCH   1  15
ATOM     15  C   UNL     1       7.758  -4.685  23.395  0.00  0.00    +0.044 C 
BRANCH  15  16
ATOM     16  C   UNL     1       7.323  -4.590  24.856  0.00  0.00    +0.068 C 
BRANCH  16  17
ATOM     17  S   UNL     1       5.751  -5.459  25.120  0.00  0.00    -0.178 S 
ATOM     18  H   UNL     1       5.903  -5.674  26.436  0.00  0.00    +0.102 HD
ENDBRANCH  16  17
ENDBRANCH  15  16
ENDBRANCH   1  15
TORSDOF 10
ENDMDL
MODEL 3
REMARK VINA RESULT:      -4.6      2.519      3.162
REMARK  Name = 
REMARK  11 active torsions:
REMARK  status: ('A' for Active; 'I' for Inactive)
REMARK    1  A    between atoms: CA_2  and  C_3
REMARK    2  A    between atoms: CA_2  and  N_6
REMARK    3  A    between atoms: CA_2  and  C_14
REMARK    4  A    between atoms: C_3  and  C_4
REMARK    5  A    between atoms: C_4  and  S_5
REMARK    6  A    between atoms: C_7  and  C_9
REMARK    7  A    between atoms: C_9  and  C_10
REMARK    8  A    between atoms: C_10  and  C_11
REMARK    9  A    between atoms: C_11  and  C_12
REMARK   10  A    between atoms: C_12  and  C_13
REMARK   11  A    between atoms: C_14  and  O_15
REMARK                            x       y       z     vdW  Elec       q    Type
REMARK                         _______ _______ _______ _____ _____    ______ ____
ROOT
ATOM      1  CA  UNL     1       7.668  -3.611  22.858  0.00  0.00    +0.182 C 
ENDROOT
BRANCH   1   2
ATOM      2  N   UNL     1       8.027  -2.430  22.082  0.00  0.00    -0.302 N 
ATOM      3  H   UNL     1       7.328  -2.060  21.443  0.00  0.00    +0.150 HD
ATOM      4  C   UNL     1       9.208  -1.762  22.277  0.00  0.00    +0.214 C 
ATOM      5  O   UNL     1      10.065  -2.155  23.064  0.00  0.00    -0.276 OA
BRANCH   4   6
ATOM      6  C   UNL     1       9.396  -0.529  21.417  0.00  0.00    +0.096 C 
BRANCH   6   7
ATOM      7  C   UNL     1       8.982   0.771  22.104  0.00  0.00    +0.009 C 
BRANCH   7   8
ATOM      8  C   UNL     1      10.117   1.798  22.157  0.00  0.00    +0.000 C 
BRANCH   8   9
ATOM      9  C   UNL     1      10.436   2.192  23.598  0.00  0.00    -0.003 C 
ATOM     10  C   UNL     1      10.845   0.984  24.425  0.00  0.00    +0.004 C 
ENDBRANCH   8   9
ENDBRANCH   7   8
ENDBRANCH   6   7
ENDBRANCH   4   6
ENDBRANCH   1   2
BRANCH   1  11
ATOM     11  C   UNL     1       6.843  -4.506  21.933  0.00  0.00    +0.325 C 
ATOM     12  OXT UNL     1       7.167  -5.647  21.630  0.00  0.00    -0.249 OA
BRANCH  11  13
ATOM     13  O   UNL     1       5.685  -3.950  21.511  0.00  0.00    -0.479 OA
ATOM     14  H   UNL     1       5.248  -4.418  20.774  0.00  0.00    +0.295 HD
ENDBRANCH  11  13
ENDBRANCH   1  11
BRANCH   1  15
ATOM     15  C   UNL     1       6.870  -3.217  24.108  0.00  0.00    +0.044 C 
BRANCH  15  16
ATOM     16  C   UNL     1       7.651  -3.486  25.393  0.00  0.00    +0.068 C 
BRANCH  16  17
ATOM     17  S   UNL     1       8.810  -4.865  25.169  0.00  0.00    -0.178 S 
ATOM     18  H   UNL     1       9.591  -4.596  26.226  0.00  0.00    +0.102 HD
ENDBRANCH  16  17
ENDBRANCH  15  16
ENDBRANCH   1  15
TORSDOF 10
ENDMDL
MODEL 4
REMARK VINA RESULT:      -4.5      1.941      2.180
REMARK  Name = 
REMARK  11 active torsions:
REMARK  status: ('A' for Active; 'I' for Inactive)
REMARK    1  A    between atoms: CA_2  and  C_3
REMARK    2  A    between atoms: CA_2  and  N_6
REMARK    3  A    between atoms: CA_2  and  C_14
REMARK    4  A    between atoms: C_3  and  C_4
REMARK    5  A    between atoms: C_4  and  S_5
REMARK    6  A    between atoms: C_7  and  C_9
REMARK    7  A    between atoms: C_9  and  C_10
REMARK    8  A    between atoms: C_10  and  C_11
REMARK    9  A    between atoms: C_11  and  C_12
REMARK   10  A    between atoms: C_12  and  C_13
REMARK   11  A    between atoms: C_14  and  O_15
REMARK                            x       y       z     vdW  Elec       q    Type
REMARK                         _______ _______ _______ _____ _____    ______ ____
ROOT
ATOM      1  CA  UNL     1       7.943  -4.029  24.998  0.00  0.00    +0.182 C 
ENDROOT
BRANCH   1   2
ATOM      2  N   UNL     1       8.265  -3.492  23.680  0.00  0.00    -0.302 N 
ATOM      3  H   UNL     1       8.031  -4.063  22.872  0.00  0.00    +0.150 HD
ATOM      4  C   UNL     1       8.755  -2.223  23.512  0.00  0.00    +0.214 C 
ATOM      5  O   UNL     1       9.018  -1.487  24.459  0.00  0.00    -0.276 OA
BRANCH   4   6
ATOM      6  C   UNL     1       8.989  -1.812  22.072  0.00  0.00    +0.096 C 
BRANCH   6   7
ATOM      7  C   UNL     1       9.974  -0.655  21.913  0.00  0.00    +0.009 C 
BRANCH   7   8
ATOM      8  C   UNL     1       9.278   0.672  21.599  0.00  0.00    +0.000 C 
BRANCH   8   9
ATOM      9  C   UNL     1      10.093   1.856  22.117  0.00  0.00    -0.003 C 
ATOM     10  C   UNL     1      10.329   1.753  23.615  0.00  0.00    +0.004 C 
ENDBRANCH   8   9
ENDBRANCH   7   8
ENDBRANCH   6   7
ENDBRANCH   4   6
ENDBRANCH   1   2
BRANCH   1  11
ATOM     11  C   UNL     1       9.082  -4.979  25.370  0.00  0.00    +0.325 C 
ATOM     12  OXT UNL     1      10.213  -4.891  24.911  0.00  0.00    -0.249 OA
BRANCH  11  13
ATOM     13  O   UNL     1       8.752  -5.902  26.301  0.00  0.00    -0.479 OA
ATOM     14  H   UNL     1       9.372  -6.653  26.375  0.00  0.00    +0.295 HD
ENDBRANCH  11  13
ENDBRANCH   1  11
BRANCH   1  15
ATOM     15  C   UNL     1       6.595  -4.760  24.970  0.00  0.00    +0.044 C 
BRANCH  15  16
ATOM     16  C   UNL     1       5.586  -4.137  25.933  0.00  0.00    +0.068 C 
BRANCH  16  17
ATOM     17  S   UNL     1       6.253  -2.620  26.675  0.00  0.00    -0.178 S 
ATOM     18  H   UNL     1       5.198  -1.833  26.415  0.00  0.00    +0.102 HD
ENDBRANCH  16  17
ENDBRANCH  15  16
ENDBRANCH   1  15
TORSDOF 10
ENDMDL
MODEL 5
REMARK VINA RESULT:      -4.4      2.698      3.332
REMARK  Name = 
REMARK  11 active torsions:
REMARK  status: ('A' for Active; 'I' for Inactive)
REMARK    1  A    between atoms: CA_2  and  C_3
REMARK    2  A    between atoms: CA_2  and  N_6
REMARK    3  A    between atoms: CA_2  and  C_14
REMARK    4  A    between atoms: C_3  and  C_4
REMARK    5  A    between atoms: C_4  and  S_5
REMARK    6  A    between atoms: C_7  and  C_9
REMARK    7  A    between atoms: C_9  and  C_10
REMARK    8  A    between atoms: C_10  and  C_11
REMARK    9  A    between atoms: C_11  and  C_12
REMARK   10  A    between atoms: C_12  and  C_13
REMARK   11  A    between atoms: C_14  and  O_15
REMARK                            x       y       z     vdW  Elec       q    Type
REMARK                         _______ _______ _______ _____ _____    ______ ____
ROOT
ATOM      1  CA  UNL     1       6.816  -4.926  23.579  0.00  0.00    +0.182 C 
ENDROOT
BRANCH   1   2
ATOM      2  N   UNL     1       7.523  -3.684  23.291  0.00  0.00    -0.302 N 
ATOM      3  H   UNL     1       7.018  -2.965  22.779  0.00  0.00    +0.150 HD
ATOM      4  C   UNL     1       8.777  -3.430  23.785  0.00  0.00    +0.214 C 
ATOM      5  O   UNL     1       9.408  -4.256  24.438  0.00  0.00    -0.276 OA
BRANCH   4   6
ATOM      6  C   UNL     1       9.343  -2.071  23.426  0.00  0.00    +0.096 C 
BRANCH   6   7
ATOM      7  C   UNL     1       8.513  -1.310  22.393  0.00  0.00    +0.009 C 
BRANCH   7   8
ATOM      8  C   UNL     1       9.380  -0.552  21.383  0.00  0.00    +0.000 C 
BRANCH   8   9
ATOM      9  C   UNL     1       9.074   0.944  21.409  0.00  0.00    -0.003 C 
ATOM     10  C   UNL     1      10.130   1.712  22.187  0.00  0.00    +0.004 C 
ENDBRANCH   8   9
ENDBRANCH   7   8
ENDBRANCH   6   7
ENDBRANCH   4   6
ENDBRANCH   1   2
BRANCH   1  11
ATOM     11  C   UNL     1       6.152  -5.361  22.271  0.00  0.00    +0.325 C 
ATOM     12  OXT UNL     1       5.712  -4.576  21.443  0.00  0.00    -0.249 OA
BRANCH  11  13
ATOM     13  O   UNL     1       6.138  -6.699  22.075  0.00  0.00    -0.479 OA
ATOM     14  H   UNL     1       5.408  -7.172  22.518  0.00  0.00    +0.295 HD
ENDBRANCH  11  13
ENDBRANCH   1  11
BRANCH   1  15
ATOM     15  C   UNL     1       5.776  -4.714  24.686  0.00  0.00    +0.044 C 
BRANCH  15  16
ATOM     16  C   UNL     1       5.906  -5.751  25.800  0.00  0.00    +0.068 C 
BRANCH  16  17
ATOM     17  S   UNL     1       4.460  -6.849  25.832  0.00  0.00    -0.178 S 
ATOM     18  H   UNL     1       3.686  -6.124  25.012  0.00  0.00    +0.102 HD
ENDBRANCH  16  17
ENDBRANCH  15  16
ENDBRANCH   1  15
TORSDOF 10
ENDMDL
MODEL 6
REMARK VINA RESULT:      -4.3      3.263      5.965
REMARK  Name = 
REMARK  11 active torsions:
REMARK  status: ('A' for Active; 'I' for Inactive)
REMARK    1  A    between atoms: CA_2  and  C_3
REMARK    2  A    between atoms: CA_2  and  N_6
REMARK    3  A    between atoms: CA_2  and  C_14
REMARK    4  A    between atoms: C_3  and  C_4
REMARK    5  A    between atoms: C_4  and  S_5
REMARK    6  A    between atoms: C_7  and  C_9
REMARK    7  A    between atoms: C_9  and  C_10
REMARK    8  A    between atoms: C_10  and  C_11
REMARK    9  A    between atoms: C_11  and  C_12
REMARK   10  A    between atoms: C_12  and  C_13
REMARK   11  A    between atoms: C_14  and  O_15
REMARK                            x       y       z     vdW  Elec       q    Type
REMARK                         _______ _______ _______ _____ _____    ______ ____
ROOT
ATOM      1  CA  UNL     1       9.441   0.540  23.069  0.00  0.00    +0.182 C 
ENDROOT
BRANCH   1   2
ATOM      2  N   UNL     1       9.389  -0.714  23.812  0.00  0.00    -0.302 N 
ATOM      3  H   UNL     1       8.823  -0.734  24.657  0.00  0.00    +0.150 HD
ATOM      4  C   UNL     1       9.974  -1.862  23.344  0.00  0.00    +0.214 C 
ATOM      5  O   UNL     1      10.636  -1.890  22.310  0.00  0.00    -0.276 OA
BRANCH   4   6
ATOM      6  C   UNL     1       9.782  -3.082  24.221  0.00  0.00    +0.096 C 
BRANCH   6   7
ATOM      7  C   UNL     1       8.326  -3.529  24.345  0.00  0.00    +0.009 C 
BRANCH   7   8
ATOM      8  C   UNL     1       7.687  -3.841  22.989  0.00  0.00    +0.000 C 
BRANCH   8   9
ATOM      9  C   UNL     1       7.145  -5.269  22.951  0.00  0.00    -0.003 C 
ATOM     10  C   UNL     1       7.091  -5.804  21.529  0.00  0.00    +0.004 C 
ENDBRANCH   8   9
ENDBRANCH   7   8
ENDBRANCH   6   7
ENDBRANCH   4   6
ENDBRANCH   1   2
BRANCH   1  11
ATOM     11  C   UNL     1       9.954   1.602  24.042  0.00  0.00    +0.325 C 
ATOM     12  OXT UNL     1      10.912   2.326  23.809  0.00  0.00    -0.249 OA
BRANCH  11  13
ATOM     13  O   UNL     1       9.223   1.716  25.174  0.00  0.00    -0.479 OA
ATOM     14  H   UNL     1       8.474   2.341  25.119  0.00  0.00    +0.295 HD
ENDBRANCH  11  13
ENDBRANCH   1  11
BRANCH   1  15
ATOM     15  C   UNL     1       8.053   0.907  22.526  0.00  0.00    +0.044 C 
BRANCH  15  16
ATOM     16  C   UNL     1       8.085   2.187  21.694  0.00  0.00    +0.068 C 
BRANCH  16  17
ATOM     17  S   UNL     1       6.812   3.354  22.255  0.00  0.00    -0.178 S 
ATOM     18  H   UNL     1       6.741   2.922  23.523  0.00  0.00    +0.102 HD
ENDBRANCH  16  17
ENDBRANCH  15  16
ENDBRANCH   1  15
TORSDOF 10
ENDMDL
MODEL 7
REMARK VINA RESULT:      -4.2      2.679      3.377
REMARK  Name = 
REMARK  11 active torsions:
REMARK  status: ('A' for Active; 'I' for Inactive)
REMARK    1  A    between atoms: CA_2  and  C_3
REMARK    2  A    between atoms: CA_2  and  N_6
REMARK    3  A    between atoms: CA_2  and  C_14
REMARK    4  A    between atoms: C_3  and  C_4
REMARK    5  A    between atoms: C_4  and  S_5
REMARK    6  A    between atoms: C_7  and  C_9
REMARK    7  A    between atoms: C_9  and  C_10
REMARK    8  A    between atoms: C_10  and  C_11
REMARK    9  A    between atoms: C_11  and  C_12
REMARK   10  A    between atoms: C_12  and  C_13
REMARK   11  A    between atoms: C_14  and  O_15
REMARK                            x       y       z     vdW  Elec       q    Type
REMARK                         _______ _______ _______ _____ _____    ______ ____
ROOT
ATOM      1  CA  UNL     1       9.379  -1.277  24.451  0.00  0.00    +0.182 C 
ENDROOT
BRANCH   1   2
ATOM      2  N   UNL     1       9.397  -0.231  23.436  0.00  0.00    -0.302 N 
ATOM      3  H   UNL     1       8.719  -0.300  22.681  0.00  0.00    +0.150 HD
ATOM      4  C   UNL     1      10.206   0.871  23.541  0.00  0.00    +0.214 C 
ATOM      5  O   UNL     1      11.013   1.011  24.455  0.00  0.00    -0.276 OA
BRANCH   4   6
ATOM      6  C   UNL     1      10.061   1.881  22.420  0.00  0.00    +0.096 C 
BRANCH   6   7
ATOM      7  C   UNL     1       8.810   1.680  21.566  0.00  0.00    +0.009 C 
BRANCH   7   8
ATOM      8  C   UNL     1       7.670   2.623  21.960  0.00  0.00    +0.000 C 
BRANCH   8   9
ATOM      9  C   UNL     1       6.513   1.853  22.595  0.00  0.00    -0.003 C 
ATOM     10  C   UNL     1       6.551   1.948  24.112  0.00  0.00    +0.004 C 
ENDBRANCH   8   9
ENDBRANCH   7   8
ENDBRANCH   6   7
ENDBRANCH   4   6
ENDBRANCH   1   2
BRANCH   1  11
ATOM     11  C   UNL     1       9.976  -2.525  23.799  0.00  0.00    +0.325 C 
ATOM     12  OXT UNL     1       9.882  -3.648  24.278  0.00  0.00    -0.249 OA
BRANCH  11  13
ATOM     13  O   UNL     1      10.576  -2.297  22.610  0.00  0.00    -0.479 OA
ATOM     14  H   UNL     1      10.295  -1.478  22.158  0.00  0.00    +0.295 HD
ENDBRANCH  11  13
ENDBRANCH   1  11
BRANCH   1  15
ATOM     15  C   UNL     1       7.948  -1.534  24.941  0.00  0.00    +0.044 C 
BRANCH  15  16
ATOM     16  C   UNL     1       7.908  -1.909  26.421  0.00  0.00    +0.068 C 
BRANCH  16  17
ATOM     17  S   UNL     1       6.874  -3.377  26.689  0.00  0.00    -0.178 S 
ATOM     18  H   UNL     1       6.407  -3.029  27.897  0.00  0.00    +0.102 HD
ENDBRANCH  16  17
ENDBRANCH  15  16
ENDBRANCH   1  15
TORSDOF 10
ENDMDL
MODEL 8
REMARK VINA RESULT:      -4.1      2.560      5.446
REMARK  Name = 
REMARK  11 active torsions:
REMARK  status: ('A' for Active; 'I' for Inactive)
REMARK    1  A    between atoms: CA_2  and  C_3
REMARK    2  A    between atoms: CA_2  and  N_6
REMARK    3  A    between atoms: CA_2  and  C_14
REMARK    4  A    between atoms: C_3  and  C_4
REMARK    5  A    between atoms: C_4  and  S_5
REMARK    6  A    between atoms: C_7  and  C_9
REMARK    7  A    between atoms: C_9  and  C_10
REMARK    8  A    between atoms: C_10  and  C_11
REMARK    9  A    between atoms: C_11  and  C_12
REMARK   10  A    between atoms: C_12  and  C_13
REMARK   11  A    between atoms: C_14  and  O_15
REMARK                            x       y       z     vdW  Elec       q    Type
REMARK                         _______ _______ _______ _____ _____    ______ ____
ROOT
ATOM      1  CA  UNL     1       9.211  -1.520  24.464  0.00  0.00    +0.182 C 
ENDROOT
BRANCH   1   2
ATOM      2  N   UNL     1       8.398  -2.678  24.817  0.00  0.00    -0.302 N 
ATOM      3  H   UNL     1       7.413  -2.518  25.008  0.00  0.00    +0.150 HD
ATOM      4  C   UNL     1       8.898  -3.955  24.782  0.00  0.00    +0.214 C 
ATOM      5  O   UNL     1      10.073  -4.196  24.521  0.00  0.00    -0.276 OA
BRANCH   4   6
ATOM      6  C   UNL     1       7.902  -5.042  25.133  0.00  0.00    +0.096 C 
BRANCH   6   7
ATOM      7  C   UNL     1       6.444  -4.630  24.934  0.00  0.00    +0.009 C 
BRANCH   7   8
ATOM      8  C   UNL     1       5.768  -5.389  23.789  0.00  0.00    +0.000 C 
BRANCH   8   9
ATOM      9  C   UNL     1       6.202  -4.839  22.432  0.00  0.00    -0.003 C 
ATOM     10  C   UNL     1       6.870  -5.912  21.587  0.00  0.00    +0.004 C 
ENDBRANCH   8   9
ENDBRANCH   7   8
ENDBRANCH   6   7
ENDBRANCH   4   6
ENDBRANCH   1   2
BRANCH   1  11
ATOM     11  C   UNL     1       9.296  -0.651  25.719  0.00  0.00    +0.325 C 
ATOM     12  OXT UNL     1       8.739  -0.929  26.773  0.00  0.00    -0.249 OA
BRANCH  11  13
ATOM     13  O   UNL     1      10.090   0.436  25.589  0.00  0.00    -0.479 OA
ATOM     14  H   UNL     1      10.003   0.910  24.739  0.00  0.00    +0.295 HD
ENDBRANCH  11  13
ENDBRANCH   1  11
BRANCH   1  15
ATOM     15  C   UNL     1       8.579  -0.750  23.296  0.00  0.00    +0.044 C 
BRANCH  15  16
ATOM     16  C   UNL     1       9.601  -0.423  22.209  0.00  0.00    +0.068 C 
BRANCH  16  17
ATOM     17  S   UNL     1       9.847   1.370  22.071  0.00  0.00    -0.178 S 
ATOM     18  H   UNL     1       8.992   1.728  23.041  0.00  0.00    +0.102 HD
ENDBRANCH  16  17
ENDBRANCH  15  16
ENDBRANCH   1  15
TORSDOF 10
ENDMDL
MODEL 9
REMARK VINA RESULT:      -4.1      2.803      5.440
REMARK  Name = 
REMARK  11 active torsions:
REMARK  status: ('A' for Active; 'I' for Inactive)
REMARK    1  A    between atoms: CA_2  and  C_3
REMARK    2  A    between atoms: CA_2  and  N_6
REMARK    3  A    between atoms: CA_2  and  C_14
REMARK    4  A    between atoms: C_3  and  C_4
REMARK    5  A    between atoms: C_4  and  S_5
REMARK    6  A    between atoms: C_7  and  C_9
REMARK    7  A    between atoms: C_9  and  C_10
REMARK    8  A    between atoms: C_10  and  C_11
REMARK    9  A    between atoms: C_11  and  C_12
REMARK   10  A    between atoms: C_12  and  C_13
REMARK   11  A    between atoms: C_14  and  O_15
REMARK                            x       y       z     vdW  Elec       q    Type
REMARK                         _______ _______ _______ _____ _____    ______ ____
ROOT
ATOM      1  CA  UNL     1       9.345  -0.606  23.470  0.00  0.00    +0.182 C 
ENDROOT
BRANCH   1   2
ATOM      2  N   UNL     1       8.814  -1.216  24.683  0.00  0.00    -0.302 N 
ATOM      3  H   UNL     1       9.483  -1.512  25.390  0.00  0.00    +0.150 HD
ATOM      4  C   UNL     1       7.467  -1.288  24.932  0.00  0.00    +0.214 C 
ATOM      5  O   UNL     1       6.627  -0.910  24.121  0.00  0.00    -0.276 OA
BRANCH   4   6
ATOM      6  C   UNL     1       7.094  -1.911  26.262  0.00  0.00    +0.096 C 
BRANCH   6   7
ATOM      7  C   UNL     1       7.699  -3.296  26.486  0.00  0.00    +0.009 C 
BRANCH   7   8
ATOM      8  C   UNL     1       7.050  -4.371  25.610  0.00  0.00    +0.000 C 
BRANCH   8   9
ATOM      9  C   UNL     1       8.040  -4.914  24.581  0.00  0.00    -0.003 C 
ATOM     10  C   UNL     1       7.568  -4.646  23.162  0.00  0.00    +0.004 C 
ENDBRANCH   8   9
ENDBRANCH   7   8
ENDBRANCH   6   7
ENDBRANCH   4   6
ENDBRANCH   1   2
BRANCH   1  11
ATOM     11  C   UNL     1      10.097  -1.708  22.722  0.00  0.00    +0.325 C 
ATOM     12  OXT UNL     1      10.559  -2.701  23.269  0.00  0.00    -0.249 OA
BRANCH  11  13
ATOM     13  O   UNL     1      10.165  -1.524  21.385  0.00  0.00    -0.479 OA
ATOM     14  H   UNL     1       9.302  -1.477  20.931  0.00  0.00    +0.295 HD
ENDBRANCH  11  13
ENDBRANCH   1  11
BRANCH   1  15
ATOM     15  C   UNL     1      10.274   0.566  23.814  0.00  0.00    +0.044 C 
BRANCH  15  16
ATOM     16  C   UNL     1      10.099   1.737  22.848  0.00  0.00    +0.068 C 
BRANCH  16  17
ATOM     17  S   UNL     1       8.470   1.678  22.049  0.00  0.00    -0.178 S 
ATOM     18  H   UNL     1       8.055   2.894  22.434  0.00  0.00    +0.102 HD
ENDBRANCH  16  17
ENDBRANCH  15  16
ENDBRANCH   1  15
TORSDOF 10
ENDMDL
