MODEL 1
REMARK VINA RESULT:      -6.8      0.000      0.000
REMARK  Name = 
REMARK  12 active torsions:
REMARK  status: ('A' for Active; 'I' for Inactive)
REMARK    1  A    between atoms: C_2  and  C_3
REMARK    2  A    between atoms: C_2  and  N_4
REMARK    3  A    between atoms: C_2  and  C_20
REMARK    4  A    between atoms: C_5  and  C_7
REMARK    5  A    between atoms: C_7  and  C_9
REMARK    6  A    between atoms: C_7  and  C_16
REMARK    7  A    between atoms: C_9  and  C_10
REMARK    8  A    between atoms: N_18  and  O_19
REMARK    9  A    between atoms: N_22  and  C_23
REMARK   10  A    between atoms: C_23  and  C_24
REMARK   11  A    between atoms: N_26  and  C_27
REMARK   12  A    between atoms: C_30  and  N_33
REMARK                            x       y       z     vdW  Elec       q    Type
REMARK                         _______ _______ _______ _____ _____    ______ ____
ROOT
ATOM      1  C   UNL     1       6.863   5.706  24.038  0.00  0.00    +0.156 C 
ATOM      2  C   UNL     1       6.531   7.107  23.535  0.00  0.00    +0.038 C 
ENDROOT
BRANCH   1   3
ATOM      3  C   UNL     1       5.728   4.741  23.629  0.00  0.00    +0.233 C 
ATOM      4  N   UNL     1       5.359   3.838  24.603  0.00  0.00    -0.305 N 
ATOM      5  H   UNL     1       5.960   3.717  25.416  0.00  0.00    +0.149 HD
ATOM      6  O   UNL     1       5.262   4.700  22.494  0.00  0.00    -0.274 OA
BRANCH   4   7
ATOM      7  C   UNL     1       4.406   2.771  24.334  0.00  0.00    +0.200 C 
BRANCH   7   8
ATOM      8  C   UNL     1       4.957   1.457  24.887  0.00  0.00    +0.234 C 
ATOM      9  N   UNL     1       6.068   0.977  24.202  0.00  0.00    -0.284 N 
ATOM     10  H   UNL     1       6.163   1.270  23.236  0.00  0.00    +0.155 HD
ATOM     11  O   UNL     1       4.418   0.901  25.845  0.00  0.00    -0.274 OA
BRANCH   9  12
ATOM     12  C   UNL     1       6.693  -0.233  24.566  0.00  0.00    +0.034 A 
ATOM     13  C   UNL     1       6.452  -1.419  23.862  0.00  0.00    +0.030 A 
ATOM     14  C   UNL     1       7.171  -2.579  24.161  0.00  0.00    +0.086 A 
ATOM     15  C   UNL     1       8.151  -2.538  25.157  0.00  0.00    +0.273 A 
ATOM     16  C   UNL     1       8.356  -1.371  25.907  0.00  0.00    +0.086 A 
ATOM     17  C   UNL     1       7.599  -0.227  25.629  0.00  0.00    +0.030 A 
BRANCH  15  18
ATOM     18  N   UNL     1       8.999  -3.714  25.390  0.00  0.00    +0.080 N 
ATOM     19  O   UNL     1       9.689  -4.125  24.446  0.00  0.00    +0.041 OA
ATOM     20  O   UNL     1       8.986  -4.217  26.523  0.00  0.00    -0.576 OA
ENDBRANCH  15  18
ENDBRANCH   9  12
ENDBRANCH   7   8
ENDBRANCH   4   7
ENDBRANCH   1   3
BRANCH   1  21
ATOM     21  N   UNL     1       8.133   5.218  23.484  0.00  0.00    -0.304 N 
ATOM     22  H   UNL     1       8.210   5.318  22.481  0.00  0.00    +0.149 HD
ATOM     23  C   UNL     1       8.842   4.197  24.084  0.00  0.00    +0.226 C 
ATOM     24  O   UNL     1       8.500   3.720  25.166  0.00  0.00    -0.275 OA
BRANCH  23  25
ATOM     25  C   UNL     1      10.161   3.796  23.424  0.00  0.00    +0.167 C 
BRANCH  25  26
ATOM     26  C   UNL     1      11.201   4.883  23.659  0.00  0.00    +0.248 C 
ATOM     27  N   UNL     1      12.483   4.551  23.285  0.00  0.00    -0.197 N 
ATOM     28  H   UNL     1      12.802   3.619  23.048  0.00  0.00    +0.182 HD
ATOM     29  O   UNL     1      10.937   5.989  24.132  0.00  0.00    -0.273 OA
BRANCH  27  30
ATOM     30  O   UNL     1      13.482   5.516  23.552  0.00  0.00    -0.295 OA
ATOM     31  H   UNL     1      12.950   6.329  23.696  0.00  0.00    +0.241 HD
ENDBRANCH  27  30
ENDBRANCH  25  26
BRANCH  25  32
ATOM     32  C   UNL     1      10.707   2.444  23.905  0.00  0.00    +0.057 C 
BRANCH  32  33
ATOM     33  C   UNL     1      10.236   1.254  23.104  0.00  0.00    -0.046 A 
ATOM     34  C   UNL     1      10.667  -0.043  23.416  0.00  0.00    +0.003 A 
ATOM     35  C   UNL     1      10.236  -1.130  22.654  0.00  0.00    +0.000 A 
ATOM     36  C   UNL     1       9.386  -0.929  21.569  0.00  0.00    +0.000 A 
ATOM     37  C   UNL     1       8.966   0.357  21.242  0.00  0.00    +0.000 A 
ATOM     38  C   UNL     1       9.387   1.445  22.007  0.00  0.00    +0.003 A 
ENDBRANCH  32  33
ENDBRANCH  25  32
ENDBRANCH  23  25
ENDBRANCH   1  21
TORSDOF 11
ENDMDL
MODEL 2
REMARK VINA RESULT:      -6.7      3.719      9.283
REMARK  Name = 
REMARK  12 active torsions:
REMARK  status: ('A' for Active; 'I' for Inactive)
REMARK    1  A    between atoms: C_2  and  C_3
REMARK    2  A    between atoms: C_2  and  N_4
REMARK    3  A    between atoms: C_2  and  C_20
REMARK    4  A    between atoms: C_5  and  C_7
REMARK    5  A    between atoms: C_7  and  C_9
REMARK    6  A    between atoms: C_7  and  C_16
REMARK    7  A    between atoms: C_9  and  C_10
REMARK    8  A    between atoms: N_18  and  O_19
REMARK    9  A    between atoms: N_22  and  C_23
REMARK   10  A    between atoms: C_23  and  C_24
REMARK   11  A    between atoms: N_26  and  C_27
REMARK   12  A    between atoms: C_30  and  N_33
REMARK                            x       y       z     vdW  Elec       q    Type
REMARK                         _______ _______ _______ _____ _____    ______ ____
ROOT
ATOM      1  C   UNL     1       4.555  -5.892  23.394  0.00  0.00    +0.156 C 
ATOM      2  C   UNL     1       3.232  -5.217  23.044  0.00  0.00    +0.038 C 
ENDROOT
BRANCH   1   3
ATOM      3  C   UNL     1       5.620  -5.486  22.350  0.00  0.00    +0.233 C 
ATOM      4  N   UNL     1       6.497  -4.509  22.770  0.00  0.00    -0.305 N 
ATOM      5  H   UNL     1       6.281  -3.983  23.615  0.00  0.00    +0.149 HD
ATOM      6  O   UNL     1       5.624  -5.914  21.200  0.00  0.00    -0.274 OA
BRANCH   4   7
ATOM      7  C   UNL     1       7.469  -3.915  21.865  0.00  0.00    +0.200 C 
BRANCH   7   8
ATOM      8  C   UNL     1       7.776  -2.491  22.326  0.00  0.00    +0.234 C 
ATOM      9  N   UNL     1       9.017  -2.018  21.913  0.00  0.00    -0.284 N 
ATOM     10  H   UNL     1       9.725  -2.718  21.722  0.00  0.00    +0.155 HD
ATOM     11  O   UNL     1       6.973  -1.865  23.019  0.00  0.00    -0.274 OA
BRANCH   9  12
ATOM     12  C   UNL     1       9.471  -0.731  22.266  0.00  0.00    +0.034 A 
ATOM     13  C   UNL     1       9.211   0.382  21.457  0.00  0.00    +0.030 A 
ATOM     14  C   UNL     1       9.563   1.665  21.882  0.00  0.00    +0.086 A 
ATOM     15  C   UNL     1      10.158   1.830  23.137  0.00  0.00    +0.273 A 
ATOM     16  C   UNL     1      10.475   0.715  23.927  0.00  0.00    +0.086 A 
ATOM     17  C   UNL     1      10.159  -0.569  23.472  0.00  0.00    +0.030 A 
BRANCH  15  18
ATOM     18  N   UNL     1      10.413   3.183  23.647  0.00  0.00    +0.080 N 
ATOM     19  O   UNL     1      11.490   3.719  23.349  0.00  0.00    +0.041 OA
ATOM     20  O   UNL     1       9.529   3.715  24.334  0.00  0.00    -0.576 OA
ENDBRANCH  15  18
ENDBRANCH   9  12
ENDBRANCH   7   8
ENDBRANCH   4   7
ENDBRANCH   1   3
BRANCH   1  21
ATOM     21  N   UNL     1       5.022  -5.507  24.733  0.00  0.00    -0.304 N 
ATOM     22  H   UNL     1       5.818  -4.885  24.728  0.00  0.00    +0.149 HD
ATOM     23  C   UNL     1       4.863  -6.339  25.823  0.00  0.00    +0.226 C 
ATOM     24  O   UNL     1       4.231  -7.393  25.747  0.00  0.00    -0.275 OA
BRANCH  23  25
ATOM     25  C   UNL     1       5.370  -5.815  27.166  0.00  0.00    +0.167 C 
BRANCH  25  26
ATOM     26  C   UNL     1       5.105  -6.851  28.250  0.00  0.00    +0.248 C 
ATOM     27  N   UNL     1       3.781  -7.020  28.582  0.00  0.00    -0.197 N 
ATOM     28  H   UNL     1       3.024  -6.406  28.304  0.00  0.00    +0.182 HD
ATOM     29  O   UNL     1       5.992  -7.512  28.792  0.00  0.00    -0.273 OA
BRANCH  27  30
ATOM     30  O   UNL     1       3.510  -7.927  29.632  0.00  0.00    -0.295 OA
ATOM     31  H   UNL     1       4.412  -8.145  29.954  0.00  0.00    +0.241 HD
ENDBRANCH  27  30
ENDBRANCH  25  26
BRANCH  25  32
ATOM     32  C   UNL     1       6.858  -5.439  27.161  0.00  0.00    +0.057 C 
BRANCH  32  33
ATOM     33  C   UNL     1       7.139  -3.983  26.875  0.00  0.00    -0.046 A 
ATOM     34  C   UNL     1       8.399  -3.565  26.424  0.00  0.00    +0.003 A 
ATOM     35  C   UNL     1       8.646  -2.213  26.181  0.00  0.00    +0.000 A 
ATOM     36  C   UNL     1       7.646  -1.270  26.400  0.00  0.00    +0.000 A 
ATOM     37  C   UNL     1       6.396  -1.674  26.862  0.00  0.00    +0.000 A 
ATOM     38  C   UNL     1       6.143  -3.025  27.097  0.00  0.00    +0.003 A 
ENDBRANCH  32  33
ENDBRANCH  25  32
ENDBRANCH  23  25
ENDBRANCH   1  21
TORSDOF 11
ENDMDL
MODEL 3
REMARK VINA RESULT:      -6.5      3.810      8.740
REMARK  Name = 
REMARK  12 active torsions:
REMARK  status: ('A' for Active; 'I' for Inactive)
REMARK    1  A    between atoms: C_2  and  C_3
REMARK    2  A    between atoms: C_2  and  N_4
REMARK    3  A    between atoms: C_2  and  C_20
REMARK    4  A    between atoms: C_5  and  C_7
REMARK    5  A    between atoms: C_7  and  C_9
REMARK    6  A    between atoms: C_7  and  C_16
REMARK    7  A    between atoms: C_9  and  C_10
REMARK    8  A    between atoms: N_18  and  O_19
REMARK    9  A    between atoms: N_22  and  C_23
REMARK   10  A    between atoms: C_23  and  C_24
REMARK   11  A    between atoms: N_26  and  C_27
REMARK   12  A    between atoms: C_30  and  N_33
REMARK                            x       y       z     vdW  Elec       q    Type
REMARK                         _______ _______ _______ _____ _____    ______ ____
ROOT
ATOM      1  C   UNL     1       4.305  -6.945  24.558  0.00  0.00    +0.156 C 
ATOM      2  C   UNL     1       2.913  -7.557  24.672  0.00  0.00    +0.038 C 
ENDROOT
BRANCH   1   3
ATOM      3  C   UNL     1       4.424  -6.214  23.202  0.00  0.00    +0.233 C 
ATOM      4  N   UNL     1       5.596  -6.453  22.518  0.00  0.00    -0.305 N 
ATOM      5  H   UNL     1       6.369  -6.901  23.006  0.00  0.00    +0.149 HD
ATOM      6  O   UNL     1       3.596  -5.397  22.808  0.00  0.00    -0.274 OA
BRANCH   4   7
ATOM      7  C   UNL     1       5.928  -5.737  21.296  0.00  0.00    +0.200 C 
BRANCH   7   8
ATOM      8  C   UNL     1       6.377  -4.320  21.653  0.00  0.00    +0.234 C 
ATOM      9  N   UNL     1       7.468  -4.274  22.515  0.00  0.00    -0.284 N 
ATOM     10  H   UNL     1       7.604  -5.081  23.114  0.00  0.00    +0.155 HD
ATOM     11  O   UNL     1       5.781  -3.338  21.209  0.00  0.00    -0.274 OA
BRANCH   9  12
ATOM     12  C   UNL     1       8.002  -3.049  22.964  0.00  0.00    +0.034 A 
ATOM     13  C   UNL     1       9.160  -3.001  23.750  0.00  0.00    +0.030 A 
ATOM     14  C   UNL     1       9.741  -1.775  24.083  0.00  0.00    +0.086 A 
ATOM     15  C   UNL     1       9.167  -0.594  23.603  0.00  0.00    +0.273 A 
ATOM     16  C   UNL     1       7.974  -0.630  22.865  0.00  0.00    +0.086 A 
ATOM     17  C   UNL     1       7.376  -1.861  22.575  0.00  0.00    +0.030 A 
BRANCH  15  18
ATOM     18  N   UNL     1       9.841   0.689  23.839  0.00  0.00    +0.080 N 
ATOM     19  O   UNL     1       9.221   1.726  23.564  0.00  0.00    +0.041 OA
ATOM     20  O   UNL     1      10.986   0.658  24.312  0.00  0.00    -0.576 OA
ENDBRANCH  15  18
ENDBRANCH   9  12
ENDBRANCH   7   8
ENDBRANCH   4   7
ENDBRANCH   1   3
BRANCH   1  21
ATOM     21  N   UNL     1       4.569  -5.991  25.644  0.00  0.00    -0.304 N 
ATOM     22  H   UNL     1       3.754  -5.474  25.943  0.00  0.00    +0.149 HD
ATOM     23  C   UNL     1       5.804  -5.395  25.802  0.00  0.00    +0.226 C 
ATOM     24  O   UNL     1       6.770  -5.713  25.107  0.00  0.00    -0.275 OA
BRANCH  23  25
ATOM     25  C   UNL     1       5.959  -4.440  26.984  0.00  0.00    +0.167 C 
BRANCH  25  26
ATOM     26  C   UNL     1       6.049  -5.238  28.277  0.00  0.00    +0.248 C 
ATOM     27  N   UNL     1       6.687  -6.452  28.168  0.00  0.00    -0.197 N 
ATOM     28  H   UNL     1       6.927  -6.912  27.298  0.00  0.00    +0.182 HD
ATOM     29  O   UNL     1       5.606  -4.841  29.356  0.00  0.00    -0.273 OA
BRANCH  27  30
ATOM     30  O   UNL     1       6.727  -7.245  29.338  0.00  0.00    -0.295 OA
ATOM     31  H   UNL     1       5.779  -7.286  29.591  0.00  0.00    +0.241 HD
ENDBRANCH  27  30
ENDBRANCH  25  26
BRANCH  25  32
ATOM     32  C   UNL     1       7.171  -3.504  26.867  0.00  0.00    +0.057 C 
BRANCH  32  33
ATOM     33  C   UNL     1       6.830  -2.068  26.555  0.00  0.00    -0.046 A 
ATOM     34  C   UNL     1       5.669  -1.739  25.841  0.00  0.00    +0.003 A 
ATOM     35  C   UNL     1       5.378  -0.407  25.545  0.00  0.00    +0.000 A 
ATOM     36  C   UNL     1       6.248   0.604  25.945  0.00  0.00    +0.000 A 
ATOM     37  C   UNL     1       7.411   0.286  26.642  0.00  0.00    +0.000 A 
ATOM     38  C   UNL     1       7.701  -1.043  26.947  0.00  0.00    +0.003 A 
ENDBRANCH  32  33
ENDBRANCH  25  32
ENDBRANCH  23  25
ENDBRANCH   1  21
TORSDOF 11
ENDMDL
MODEL 4
REMARK VINA RESULT:      -6.3      2.375      7.778
REMARK  Name = 
REMARK  12 active torsions:
REMARK  status: ('A' for Active; 'I' for Inactive)
REMARK    1  A    between atoms: C_2  and  C_3
REMARK    2  A    between atoms: C_2  and  N_4
REMARK    3  A    between atoms: C_2  and  C_20
REMARK    4  A    between atoms: C_5  and  C_7
REMARK    5  A    between atoms: C_7  and  C_9
REMARK    6  A    between atoms: C_7  and  C_16
REMARK    7  A    between atoms: C_9  and  C_10
REMARK    8  A    between atoms: N_18  and  O_19
REMARK    9  A    between atoms: N_22  and  C_23
REMARK   10  A    between atoms: C_23  and  C_24
REMARK   11  A    between atoms: N_26  and  C_27
REMARK   12  A    between atoms: C_30  and  N_33
REMARK                            x       y       z     vdW  Elec       q    Type
REMARK                         _______ _______ _______ _____ _____    ______ ____
ROOT
ATOM      1  C   UNL     1       6.320  -0.743  27.037  0.00  0.00    +0.156 C 
ATOM      2  C   UNL     1       7.204   0.349  27.632  0.00  0.00    +0.038 C 
ENDROOT
BRANCH   1   3
ATOM      3  C   UNL     1       5.713  -0.234  25.710  0.00  0.00    +0.233 C 
ATOM      4  N   UNL     1       6.613  -0.111  24.674  0.00  0.00    -0.305 N 
ATOM      5  H   UNL     1       7.609  -0.154  24.878  0.00  0.00    +0.149 HD
ATOM      6  O   UNL     1       4.548   0.139  25.609  0.00  0.00    -0.274 OA
BRANCH   4   7
ATOM      7  C   UNL     1       6.235   0.486  23.402  0.00  0.00    +0.200 C 
BRANCH   7   8
ATOM      8  C   UNL     1       7.306   1.494  22.986  0.00  0.00    +0.234 C 
ATOM      9  N   UNL     1       8.111   1.929  24.033  0.00  0.00    -0.284 N 
ATOM     10  H   UNL     1       7.706   1.881  24.962  0.00  0.00    +0.155 HD
ATOM     11  O   UNL     1       7.396   1.873  21.817  0.00  0.00    -0.274 OA
BRANCH   9  12
ATOM     12  C   UNL     1       9.136   2.875  23.832  0.00  0.00    +0.034 A 
ATOM     13  C   UNL     1       8.942   4.233  24.110  0.00  0.00    +0.030 A 
ATOM     14  C   UNL     1      10.005   5.135  24.020  0.00  0.00    +0.086 A 
ATOM     15  C   UNL     1      11.274   4.662  23.670  0.00  0.00    +0.273 A 
ATOM     16  C   UNL     1      11.463   3.314  23.332  0.00  0.00    +0.086 A 
ATOM     17  C   UNL     1      10.382   2.428  23.383  0.00  0.00    +0.030 A 
BRANCH  15  18
ATOM     18  N   UNL     1      12.422   5.577  23.698  0.00  0.00    +0.080 N 
ATOM     19  O   UNL     1      13.378   5.327  22.949  0.00  0.00    +0.041 OA
ATOM     20  O   UNL     1      12.361   6.554  24.458  0.00  0.00    -0.576 OA
ENDBRANCH  15  18
ENDBRANCH   9  12
ENDBRANCH   7   8
ENDBRANCH   4   7
ENDBRANCH   1   3
BRANCH   1  21
ATOM     21  N   UNL     1       7.079  -1.974  26.778  0.00  0.00    -0.304 N 
ATOM     22  H   UNL     1       7.946  -1.826  26.281  0.00  0.00    +0.149 HD
ATOM     23  C   UNL     1       6.452  -3.195  26.628  0.00  0.00    +0.226 C 
ATOM     24  O   UNL     1       5.242  -3.328  26.808  0.00  0.00    -0.275 OA
BRANCH  23  25
ATOM     25  C   UNL     1       7.354  -4.404  26.386  0.00  0.00    +0.167 C 
BRANCH  25  26
ATOM     26  C   UNL     1       6.815  -5.605  27.152  0.00  0.00    +0.248 C 
ATOM     27  N   UNL     1       5.746  -6.239  26.561  0.00  0.00    -0.197 N 
ATOM     28  H   UNL     1       5.202  -5.874  25.788  0.00  0.00    +0.182 HD
ATOM     29  O   UNL     1       7.292  -6.007  28.214  0.00  0.00    -0.273 OA
BRANCH  27  30
ATOM     30  O   UNL     1       5.182  -7.316  27.282  0.00  0.00    -0.295 OA
ATOM     31  H   UNL     1       5.166  -8.030  26.607  0.00  0.00    +0.241 HD
ENDBRANCH  27  30
ENDBRANCH  25  26
BRANCH  25  32
ATOM     32  C   UNL     1       7.517  -4.767  24.903  0.00  0.00    +0.057 C 
BRANCH  32  33
ATOM     33  C   UNL     1       8.178  -3.702  24.063  0.00  0.00    -0.046 A 
ATOM     34  C   UNL     1       7.556  -3.200  22.911  0.00  0.00    +0.003 A 
ATOM     35  C   UNL     1       8.189  -2.227  22.136  0.00  0.00    +0.000 A 
ATOM     36  C   UNL     1       9.451  -1.760  22.495  0.00  0.00    +0.000 A 
ATOM     37  C   UNL     1      10.083  -2.264  23.629  0.00  0.00    +0.000 A 
ATOM     38  C   UNL     1       9.449  -3.229  24.411  0.00  0.00    +0.003 A 
ENDBRANCH  32  33
ENDBRANCH  25  32
ENDBRANCH  23  25
ENDBRANCH   1  21
TORSDOF 11
ENDMDL
MODEL 5
REMARK VINA RESULT:      -6.2      3.663      7.011
REMARK  Name = 
REMARK  12 active torsions:
REMARK  status: ('A' for Active; 'I' for Inactive)
REMARK    1  A    between atoms: C_2  and  C_3
REMARK    2  A    between atoms: C_2  and  N_4
REMARK    3  A    between atoms: C_2  and  C_20
REMARK    4  A    between atoms: C_5  and  C_7
REMARK    5  A    between atoms: C_7  and  C_9
REMARK    6  A    between atoms: C_7  and  C_16
REMARK    7  A    between atoms: C_9  and  C_10
REMARK    8  A    between atoms: N_18  and  O_19
REMARK    9  A    between atoms: N_22  and  C_23
REMARK   10  A    between atoms: C_23  and  C_24
REMARK   11  A    between atoms: N_26  and  C_27
REMARK   12  A    between atoms: C_30  and  N_33
REMARK                            x       y       z     vdW  Elec       q    Type
REMARK                         _______ _______ _______ _____ _____    ______ ____
ROOT
ATOM      1  C   UNL     1       6.373  -4.683  22.303  0.00  0.00    +0.156 C 
ATOM      2  C   UNL     1       6.646  -6.027  21.635  0.00  0.00    +0.038 C 
ENDROOT
BRANCH   1   3
ATOM      3  C   UNL     1       5.165  -4.829  23.255  0.00  0.00    +0.233 C 
ATOM      4  N   UNL     1       4.637  -3.638  23.704  0.00  0.00    -0.305 N 
ATOM      5  H   UNL     1       5.169  -2.780  23.567  0.00  0.00    +0.149 HD
ATOM      6  O   UNL     1       4.769  -5.914  23.670  0.00  0.00    -0.274 OA
BRANCH   4   7
ATOM      7  C   UNL     1       3.589  -3.599  24.713  0.00  0.00    +0.200 C 
BRANCH   7   8
ATOM      8  C   UNL     1       4.010  -2.650  25.835  0.00  0.00    +0.234 C 
ATOM      9  N   UNL     1       4.946  -1.696  25.447  0.00  0.00    -0.284 N 
ATOM     10  H   UNL     1       5.533  -1.937  24.657  0.00  0.00    +0.155 HD
ATOM     11  O   UNL     1       3.550  -2.772  26.971  0.00  0.00    -0.274 OA
BRANCH   9  12
ATOM     12  C   UNL     1       5.459  -0.753  26.360  0.00  0.00    +0.034 A 
ATOM     13  C   UNL     1       6.766  -0.851  26.853  0.00  0.00    +0.030 A 
ATOM     14  C   UNL     1       7.296   0.158  27.661  0.00  0.00    +0.086 A 
ATOM     15  C   UNL     1       6.514   1.280  27.955  0.00  0.00    +0.273 A 
ATOM     16  C   UNL     1       5.184   1.356  27.515  0.00  0.00    +0.086 A 
ATOM     17  C   UNL     1       4.649   0.319  26.743  0.00  0.00    +0.030 A 
BRANCH  15  18
ATOM     18  N   UNL     1       7.105   2.403  28.694  0.00  0.00    +0.080 N 
ATOM     19  O   UNL     1       7.253   3.476  28.093  0.00  0.00    +0.041 OA
ATOM     20  O   UNL     1       7.407   2.214  29.881  0.00  0.00    -0.576 OA
ENDBRANCH  15  18
ENDBRANCH   9  12
ENDBRANCH   7   8
ENDBRANCH   4   7
ENDBRANCH   1   3
BRANCH   1  21
ATOM     21  N   UNL     1       7.536  -4.213  23.069  0.00  0.00    -0.304 N 
ATOM     22  H   UNL     1       7.941  -4.915  23.673  0.00  0.00    +0.149 HD
ATOM     23  C   UNL     1       7.676  -2.890  23.437  0.00  0.00    +0.226 C 
ATOM     24  O   UNL     1       6.889  -2.024  23.051  0.00  0.00    -0.275 OA
BRANCH  23  25
ATOM     25  C   UNL     1       8.940  -2.522  24.211  0.00  0.00    +0.167 C 
BRANCH  25  26
ATOM     26  C   UNL     1       9.411  -3.724  25.020  0.00  0.00    +0.248 C 
ATOM     27  N   UNL     1       8.864  -3.829  26.278  0.00  0.00    -0.197 N 
ATOM     28  H   UNL     1       8.339  -3.103  26.751  0.00  0.00    +0.182 HD
ATOM     29  O   UNL     1      10.208  -4.561  24.595  0.00  0.00    -0.273 OA
BRANCH  27  30
ATOM     30  O   UNL     1       9.332  -4.897  27.077  0.00  0.00    -0.295 OA
ATOM     31  H   UNL     1      10.220  -4.577  27.349  0.00  0.00    +0.241 HD
ENDBRANCH  27  30
ENDBRANCH  25  26
BRANCH  25  32
ATOM     32  C   UNL     1      10.085  -2.015  23.322  0.00  0.00    +0.057 C 
BRANCH  32  33
ATOM     33  C   UNL     1      10.135  -0.516  23.153  0.00  0.00    -0.046 A 
ATOM     34  C   UNL     1       9.797   0.086  21.933  0.00  0.00    +0.003 A 
ATOM     35  C   UNL     1       9.865   1.472  21.789  0.00  0.00    +0.000 A 
ATOM     36  C   UNL     1      10.284   2.265  22.854  0.00  0.00    +0.000 A 
ATOM     37  C   UNL     1      10.637   1.674  24.065  0.00  0.00    +0.000 A 
ATOM     38  C   UNL     1      10.561   0.290  24.216  0.00  0.00    +0.003 A 
ENDBRANCH  32  33
ENDBRANCH  25  32
ENDBRANCH  23  25
ENDBRANCH   1  21
TORSDOF 11
ENDMDL
MODEL 6
REMARK VINA RESULT:      -6.2      2.222      7.045
REMARK  Name = 
REMARK  12 active torsions:
REMARK  status: ('A' for Active; 'I' for Inactive)
REMARK    1  A    between atoms: C_2  and  C_3
REMARK    2  A    between atoms: C_2  and  N_4
REMARK    3  A    between atoms: C_2  and  C_20
REMARK    4  A    between atoms: C_5  and  C_7
REMARK    5  A    between atoms: C_7  and  C_9
REMARK    6  A    between atoms: C_7  and  C_16
REMARK    7  A    between atoms: C_9  and  C_10
REMARK    8  A    between atoms: N_18  and  O_19
REMARK    9  A    between atoms: N_22  and  C_23
REMARK   10  A    between atoms: C_23  and  C_24
REMARK   11  A    between atoms: N_26  and  C_27
REMARK   12  A    between atoms: C_30  and  N_33
REMARK                            x       y       z     vdW  Elec       q    Type
REMARK                         _______ _______ _______ _____ _____    ______ ____
ROOT
ATOM      1  C   UNL     1       4.576  -3.965  24.664  0.00  0.00    +0.156 C 
ATOM      2  C   UNL     1       4.144  -5.249  25.364  0.00  0.00    +0.038 C 
ENDROOT
BRANCH   1   3
ATOM      3  C   UNL     1       3.956  -2.756  25.400  0.00  0.00    +0.233 C 
ATOM      4  N   UNL     1       4.869  -1.890  25.960  0.00  0.00    -0.305 N 
ATOM      5  H   UNL     1       5.841  -2.184  26.041  0.00  0.00    +0.149 HD
ATOM      6  O   UNL     1       2.747  -2.628  25.572  0.00  0.00    -0.274 OA
BRANCH   4   7
ATOM      7  C   UNL     1       4.453  -0.781  26.804  0.00  0.00    +0.200 C 
BRANCH   7   8
ATOM      8  C   UNL     1       4.914   0.531  26.171  0.00  0.00    +0.234 C 
ATOM      9  N   UNL     1       6.015   0.397  25.332  0.00  0.00    -0.284 N 
ATOM     10  H   UNL     1       6.626  -0.391  25.513  0.00  0.00    +0.155 HD
ATOM     11  O   UNL     1       4.341   1.591  26.427  0.00  0.00    -0.274 OA
BRANCH   9  12
ATOM     12  C   UNL     1       6.585   1.509  24.679  0.00  0.00    +0.034 A 
ATOM     13  C   UNL     1       6.296   1.796  23.339  0.00  0.00    +0.030 A 
ATOM     14  C   UNL     1       6.773   2.968  22.746  0.00  0.00    +0.086 A 
ATOM     15  C   UNL     1       7.524   3.865  23.513  0.00  0.00    +0.273 A 
ATOM     16  C   UNL     1       7.867   3.556  24.837  0.00  0.00    +0.086 A 
ATOM     17  C   UNL     1       7.422   2.359  25.408  0.00  0.00    +0.030 A 
BRANCH  15  18
ATOM     18  N   UNL     1       7.920   5.157  22.938  0.00  0.00    +0.080 N 
ATOM     19  O   UNL     1       8.782   5.816  23.536  0.00  0.00    +0.041 OA
ATOM     20  O   UNL     1       7.378   5.504  21.879  0.00  0.00    -0.576 OA
ENDBRANCH  15  18
ENDBRANCH   9  12
ENDBRANCH   7   8
ENDBRANCH   4   7
ENDBRANCH   1   3
BRANCH   1  21
ATOM     21  N   UNL     1       6.038  -3.821  24.649  0.00  0.00    -0.304 N 
ATOM     22  H   UNL     1       6.489  -4.117  25.504  0.00  0.00    +0.149 HD
ATOM     23  C   UNL     1       6.664  -2.849  23.895  0.00  0.00    +0.226 C 
ATOM     24  O   UNL     1       6.037  -2.127  23.120  0.00  0.00    -0.275 OA
BRANCH  23  25
ATOM     25  C   UNL     1       8.191  -2.817  23.946  0.00  0.00    +0.167 C 
BRANCH  25  26
ATOM     26  C   UNL     1       8.724  -4.227  24.163  0.00  0.00    +0.248 C 
ATOM     27  N   UNL     1       9.698  -4.338  25.129  0.00  0.00    -0.197 N 
ATOM     28  H   UNL     1      10.192  -3.562  25.556  0.00  0.00    +0.182 HD
ATOM     29  O   UNL     1       8.319  -5.212  23.545  0.00  0.00    -0.273 OA
BRANCH  27  30
ATOM     30  O   UNL     1      10.259  -5.623  25.307  0.00  0.00    -0.295 OA
ATOM     31  H   UNL     1      11.031  -5.597  24.700  0.00  0.00    +0.241 HD
ENDBRANCH  27  30
ENDBRANCH  25  26
BRANCH  25  32
ATOM     32  C   UNL     1       8.839  -2.205  22.696  0.00  0.00    +0.057 C 
BRANCH  32  33
ATOM     33  C   UNL     1       9.417  -0.826  22.898  0.00  0.00    -0.046 A 
ATOM     34  C   UNL     1       9.432   0.112  21.856  0.00  0.00    +0.003 A 
ATOM     35  C   UNL     1       9.986   1.377  22.055  0.00  0.00    +0.000 A 
ATOM     36  C   UNL     1      10.543   1.710  23.287  0.00  0.00    +0.000 A 
ATOM     37  C   UNL     1      10.548   0.780  24.323  0.00  0.00    +0.000 A 
ATOM     38  C   UNL     1       9.986  -0.482  24.131  0.00  0.00    +0.003 A 
ENDBRANCH  32  33
ENDBRANCH  25  32
ENDBRANCH  23  25
ENDBRANCH   1  21
TORSDOF 11
ENDMDL
MODEL 7
REMARK VINA RESULT:      -6.2      2.983      5.852
REMARK  Name = 
REMARK  12 active torsions:
REMARK  status: ('A' for Active; 'I' for Inactive)
REMARK    1  A    between atoms: C_2  and  C_3
REMARK    2  A    between atoms: C_2  and  N_4
REMARK    3  A    between atoms: C_2  and  C_20
REMARK    4  A    between atoms: C_5  and  C_7
REMARK    5  A    between atoms: C_7  and  C_9
REMARK    6  A    between atoms: C_7  and  C_16
REMARK    7  A    between atoms: C_9  and  C_10
REMARK    8  A    between atoms: N_18  and  O_19
REMARK    9  A    between atoms: N_22  and  C_23
REMARK   10  A    between atoms: C_23  and  C_24
REMARK   11  A    between atoms: N_26  and  C_27
REMARK   12  A    between atoms: C_30  and  N_33
REMARK                            x       y       z     vdW  Elec       q    Type
REMARK                         _______ _______ _______ _____ _____    ______ ____
ROOT
ATOM      1  C   UNL     1       8.695   2.300  24.033  0.00  0.00    +0.156 C 
ATOM      2  C   UNL     1       9.490   3.593  24.191  0.00  0.00    +0.038 C 
ENDROOT
BRANCH   1   3
ATOM      3  C   UNL     1       9.622   1.206  23.458  0.00  0.00    +0.233 C 
ATOM      4  N   UNL     1       9.052   0.424  22.476  0.00  0.00    -0.305 N 
ATOM      5  H   UNL     1       8.043   0.464  22.338  0.00  0.00    +0.149 HD
ATOM      6  O   UNL     1      10.739   0.971  23.909  0.00  0.00    -0.274 OA
BRANCH   4   7
ATOM      7  C   UNL     1       9.737  -0.737  21.930  0.00  0.00    +0.200 C 
BRANCH   7   8
ATOM      8  C   UNL     1       9.597  -1.905  22.906  0.00  0.00    +0.234 C 
ATOM      9  N   UNL     1       8.322  -2.042  23.445  0.00  0.00    -0.284 N 
ATOM     10  H   UNL     1       7.755  -1.202  23.479  0.00  0.00    +0.155 HD
ATOM     11  O   UNL     1      10.562  -2.621  23.176  0.00  0.00    -0.274 OA
BRANCH   9  12
ATOM     12  C   UNL     1       8.020  -3.055  24.378  0.00  0.00    +0.034 A 
ATOM     13  C   UNL     1       8.157  -2.842  25.755  0.00  0.00    +0.030 A 
ATOM     14  C   UNL     1       7.739  -3.815  26.667  0.00  0.00    +0.086 A 
ATOM     15  C   UNL     1       7.160  -4.995  26.191  0.00  0.00    +0.273 A 
ATOM     16  C   UNL     1       7.074  -5.240  24.812  0.00  0.00    +0.086 A 
ATOM     17  C   UNL     1       7.537  -4.278  23.907  0.00  0.00    +0.030 A 
BRANCH  15  18
ATOM     18  N   UNL     1       6.601  -5.965  27.141  0.00  0.00    +0.080 N 
ATOM     19  O   UNL     1       5.697  -6.712  26.740  0.00  0.00    +0.041 OA
ATOM     20  O   UNL     1       7.077  -5.988  28.285  0.00  0.00    -0.576 OA
ENDBRANCH  15  18
ENDBRANCH   9  12
ENDBRANCH   7   8
ENDBRANCH   4   7
ENDBRANCH   1   3
BRANCH   1  21
ATOM     21  N   UNL     1       8.146   1.841  25.316  0.00  0.00    -0.304 N 
ATOM     22  H   UNL     1       8.795   1.909  26.088  0.00  0.00    +0.149 HD
ATOM     23  C   UNL     1       7.168   0.870  25.381  0.00  0.00    +0.226 C 
ATOM     24  O   UNL     1       6.635   0.419  24.366  0.00  0.00    -0.275 OA
BRANCH  23  25
ATOM     25  C   UNL     1       6.662   0.496  26.773  0.00  0.00    +0.167 C 
BRANCH  25  26
ATOM     26  C   UNL     1       7.114   1.546  27.780  0.00  0.00    +0.248 C 
ATOM     27  N   UNL     1       7.821   1.055  28.853  0.00  0.00    -0.197 N 
ATOM     28  H   UNL     1       7.900   0.077  29.106  0.00  0.00    +0.182 HD
ATOM     29  O   UNL     1       6.890   2.750  27.655  0.00  0.00    -0.273 OA
BRANCH  27  30
ATOM     30  O   UNL     1       8.196   1.998  29.838  0.00  0.00    -0.295 OA
ATOM     31  H   UNL     1       8.141   2.845  29.344  0.00  0.00    +0.241 HD
ENDBRANCH  27  30
ENDBRANCH  25  26
BRANCH  25  32
ATOM     32  C   UNL     1       5.138   0.324  26.853  0.00  0.00    +0.057 C 
BRANCH  32  33
ATOM     33  C   UNL     1       4.667  -1.109  26.886  0.00  0.00    -0.046 A 
ATOM     34  C   UNL     1       4.413  -1.759  28.103  0.00  0.00    +0.003 A 
ATOM     35  C   UNL     1       3.994  -3.090  28.117  0.00  0.00    +0.000 A 
ATOM     36  C   UNL     1       3.842  -3.786  26.920  0.00  0.00    +0.000 A 
ATOM     37  C   UNL     1       4.108  -3.155  25.708  0.00  0.00    +0.000 A 
ATOM     38  C   UNL     1       4.517  -1.822  25.690  0.00  0.00    +0.003 A 
ENDBRANCH  32  33
ENDBRANCH  25  32
ENDBRANCH  23  25
ENDBRANCH   1  21
TORSDOF 11
ENDMDL
MODEL 8
REMARK VINA RESULT:      -6.2      2.544      3.749
REMARK  Name = 
REMARK  12 active torsions:
REMARK  status: ('A' for Active; 'I' for Inactive)
REMARK    1  A    between atoms: C_2  and  C_3
REMARK    2  A    between atoms: C_2  and  N_4
REMARK    3  A    between atoms: C_2  and  C_20
REMARK    4  A    between atoms: C_5  and  C_7
REMARK    5  A    between atoms: C_7  and  C_9
REMARK    6  A    between atoms: C_7  and  C_16
REMARK    7  A    between atoms: C_9  and  C_10
REMARK    8  A    between atoms: N_18  and  O_19
REMARK    9  A    between atoms: N_22  and  C_23
REMARK   10  A    between atoms: C_23  and  C_24
REMARK   11  A    between atoms: N_26  and  C_27
REMARK   12  A    between atoms: C_30  and  N_33
REMARK                            x       y       z     vdW  Elec       q    Type
REMARK                         _______ _______ _______ _____ _____    ______ ____
ROOT
ATOM      1  C   UNL     1       6.505   4.071  27.564  0.00  0.00    +0.156 C 
ATOM      2  C   UNL     1       5.052   4.374  27.915  0.00  0.00    +0.038 C 
ENDROOT
BRANCH   1   3
ATOM      3  C   UNL     1       6.945   2.788  28.303  0.00  0.00    +0.233 C 
ATOM      4  N   UNL     1       7.107   1.683  27.494  0.00  0.00    -0.305 N 
ATOM      5  H   UNL     1       6.744   1.711  26.543  0.00  0.00    +0.149 HD
ATOM      6  O   UNL     1       7.038   2.719  29.525  0.00  0.00    -0.274 OA
BRANCH   4   7
ATOM      7  C   UNL     1       7.381   0.366  28.047  0.00  0.00    +0.200 C 
BRANCH   7   8
ATOM      8  C   UNL     1       7.057  -0.695  26.995  0.00  0.00    +0.234 C 
ATOM      9  N   UNL     1       7.805  -0.581  25.828  0.00  0.00    -0.284 N 
ATOM     10  H   UNL     1       8.164   0.342  25.612  0.00  0.00    +0.155 HD
ATOM     11  O   UNL     1       6.187  -1.543  27.201  0.00  0.00    -0.274 OA
BRANCH   9  12
ATOM     12  C   UNL     1       7.622  -1.465  24.746  0.00  0.00    +0.034 A 
ATOM     13  C   UNL     1       8.282  -2.699  24.692  0.00  0.00    +0.030 A 
ATOM     14  C   UNL     1       7.996  -3.612  23.673  0.00  0.00    +0.086 A 
ATOM     15  C   UNL     1       7.024  -3.290  22.720  0.00  0.00    +0.273 A 
ATOM     16  C   UNL     1       6.403  -2.032  22.733  0.00  0.00    +0.086 A 
ATOM     17  C   UNL     1       6.730  -1.108  23.731  0.00  0.00    +0.030 A 
BRANCH  15  18
ATOM     18  N   UNL     1       6.625  -4.292  21.724  0.00  0.00    +0.080 N 
ATOM     19  O   UNL     1       7.249  -5.362  21.698  0.00  0.00    +0.041 OA
ATOM     20  O   UNL     1       5.676  -4.013  20.976  0.00  0.00    -0.576 OA
ENDBRANCH  15  18
ENDBRANCH   9  12
ENDBRANCH   7   8
ENDBRANCH   4   7
ENDBRANCH   1   3
BRANCH   1  21
ATOM     21  N   UNL     1       6.686   3.881  26.119  0.00  0.00    -0.304 N 
ATOM     22  H   UNL     1       6.245   3.047  25.755  0.00  0.00    +0.149 HD
ATOM     23  C   UNL     1       7.799   4.360  25.457  0.00  0.00    +0.226 C 
ATOM     24  O   UNL     1       8.639   5.059  26.025  0.00  0.00    -0.275 OA
BRANCH  23  25
ATOM     25  C   UNL     1       7.859   4.119  23.950  0.00  0.00    +0.167 C 
BRANCH  25  26
ATOM     26  C   UNL     1       7.246   5.305  23.218  0.00  0.00    +0.248 C 
ATOM     27  N   UNL     1       7.683   5.478  21.924  0.00  0.00    -0.197 N 
ATOM     28  H   UNL     1       8.477   5.009  21.506  0.00  0.00    +0.182 HD
ATOM     29  O   UNL     1       6.409   6.058  23.718  0.00  0.00    -0.273 OA
BRANCH  27  30
ATOM     30  O   UNL     1       7.182   6.610  21.241  0.00  0.00    -0.295 OA
ATOM     31  H   UNL     1       7.928   6.838  20.644  0.00  0.00    +0.241 HD
ENDBRANCH  27  30
ENDBRANCH  25  26
BRANCH  25  32
ATOM     32  C   UNL     1       9.277   3.860  23.421  0.00  0.00    +0.057 C 
BRANCH  32  33
ATOM     33  C   UNL     1       9.578   2.415  23.107  0.00  0.00    -0.046 A 
ATOM     34  C   UNL     1      10.343   1.629  23.981  0.00  0.00    +0.003 A 
ATOM     35  C   UNL     1      10.626   0.299  23.667  0.00  0.00    +0.000 A 
ATOM     36  C   UNL     1      10.163  -0.251  22.475  0.00  0.00    +0.000 A 
ATOM     37  C   UNL     1       9.416   0.526  21.594  0.00  0.00    +0.000 A 
ATOM     38  C   UNL     1       9.123   1.853  21.908  0.00  0.00    +0.003 A 
ENDBRANCH  32  33
ENDBRANCH  25  32
ENDBRANCH  23  25
ENDBRANCH   1  21
TORSDOF 11
ENDMDL
MODEL 9
REMARK VINA RESULT:      -6.2      2.994      7.612
REMARK  Name = 
REMARK  12 active torsions:
REMARK  status: ('A' for Active; 'I' for Inactive)
REMARK    1  A    between atoms: C_2  and  C_3
REMARK    2  A    between atoms: C_2  and  N_4
REMARK    3  A    between atoms: C_2  and  C_20
REMARK    4  A    between atoms: C_5  and  C_7
REMARK    5  A    between atoms: C_7  and  C_9
REMARK    6  A    between atoms: C_7  and  C_16
REMARK    7  A    between atoms: C_9  and  C_10
REMARK    8  A    between atoms: N_18  and  O_19
REMARK    9  A    between atoms: N_22  and  C_23
REMARK   10  A    between atoms: C_23  and  C_24
REMARK   11  A    between atoms: N_26  and  C_27
REMARK   12  A    between atoms: C_30  and  N_33
REMARK                            x       y       z     vdW  Elec       q    Type
REMARK                         _______ _______ _______ _____ _____    ______ ____
ROOT
ATOM      1  C   UNL     1       4.915  -5.175  25.832  0.00  0.00    +0.156 C 
ATOM      2  C   UNL     1       4.822  -6.601  26.366  0.00  0.00    +0.038 C 
ENDROOT
BRANCH   1   3
ATOM      3  C   UNL     1       5.222  -4.216  27.004  0.00  0.00    +0.233 C 
ATOM      4  N   UNL     1       4.398  -3.114  27.080  0.00  0.00    -0.305 N 
ATOM      5  H   UNL     1       3.803  -2.889  26.285  0.00  0.00    +0.149 HD
ATOM      6  O   UNL     1       6.189  -4.358  27.747  0.00  0.00    -0.274 OA
BRANCH   4   7
ATOM      7  C   UNL     1       4.639  -2.045  28.037  0.00  0.00    +0.200 C 
BRANCH   7   8
ATOM      8  C   UNL     1       4.943  -0.754  27.277  0.00  0.00    +0.234 C 
ATOM      9  N   UNL     1       6.069  -0.828  26.464  0.00  0.00    -0.284 N 
ATOM     10  H   UNL     1       6.771  -1.510  26.728  0.00  0.00    +0.155 HD
ATOM     11  O   UNL     1       4.235   0.244  27.421  0.00  0.00    -0.274 OA
BRANCH   9  12
ATOM     12  C   UNL     1       6.506   0.278  25.707  0.00  0.00    +0.034 A 
ATOM     13  C   UNL     1       7.501   1.141  26.182  0.00  0.00    +0.030 A 
ATOM     14  C   UNL     1       8.005   2.158  25.368  0.00  0.00    +0.086 A 
ATOM     15  C   UNL     1       7.522   2.292  24.063  0.00  0.00    +0.273 A 
ATOM     16  C   UNL     1       6.483   1.470  23.600  0.00  0.00    +0.086 A 
ATOM     17  C   UNL     1       5.954   0.483  24.439  0.00  0.00    +0.030 A 
BRANCH  15  18
ATOM     18  N   UNL     1       8.135   3.273  23.159  0.00  0.00    +0.080 N 
ATOM     19  O   UNL     1       9.191   3.812  23.521  0.00  0.00    +0.041 OA
ATOM     20  O   UNL     1       7.568   3.493  22.079  0.00  0.00    -0.576 OA
ENDBRANCH  15  18
ENDBRANCH   9  12
ENDBRANCH   7   8
ENDBRANCH   4   7
ENDBRANCH   1   3
BRANCH   1  21
ATOM     21  N   UNL     1       5.967  -5.044  24.815  0.00  0.00    -0.304 N 
ATOM     22  H   UNL     1       6.767  -5.641  24.971  0.00  0.00    +0.149 HD
ATOM     23  C   UNL     1       6.170  -3.864  24.128  0.00  0.00    +0.226 C 
ATOM     24  O   UNL     1       5.414  -2.900  24.260  0.00  0.00    -0.275 OA
BRANCH  23  25
ATOM     25  C   UNL     1       7.280  -3.862  23.079  0.00  0.00    +0.167 C 
BRANCH  25  26
ATOM     26  C   UNL     1       7.088  -5.038  22.131  0.00  0.00    +0.248 C 
ATOM     27  N   UNL     1       6.193  -4.820  21.108  0.00  0.00    -0.197 N 
ATOM     28  H   UNL     1       5.548  -4.042  21.050  0.00  0.00    +0.182 HD
ATOM     29  O   UNL     1       7.690  -6.107  22.240  0.00  0.00    -0.273 OA
BRANCH  27  30
ATOM     30  O   UNL     1       5.945  -5.917  20.251  0.00  0.00    -0.295 OA
ATOM     31  H   UNL     1       5.988  -6.677  20.871  0.00  0.00    +0.241 HD
ENDBRANCH  27  30
ENDBRANCH  25  26
BRANCH  25  32
ATOM     32  C   UNL     1       7.368  -2.557  22.274  0.00  0.00    +0.057 C 
BRANCH  32  33
ATOM     33  C   UNL     1       8.480  -1.629  22.698  0.00  0.00    -0.046 A 
ATOM     34  C   UNL     1       9.019  -1.690  23.991  0.00  0.00    +0.003 A 
ATOM     35  C   UNL     1      10.036  -0.813  24.372  0.00  0.00    +0.000 A 
ATOM     36  C   UNL     1      10.511   0.138  23.472  0.00  0.00    +0.000 A 
ATOM     37  C   UNL     1       9.971   0.216  22.191  0.00  0.00    +0.000 A 
ATOM     38  C   UNL     1       8.962  -0.665  21.804  0.00  0.00    +0.003 A 
ENDBRANCH  32  33
ENDBRANCH  25  32
ENDBRANCH  23  25
ENDBRANCH   1  21
TORSDOF 11
ENDMDL
