MODEL 1
REMARK VINA RESULT:      -6.1      0.000      0.000
REMARK  Name = 
REMARK  18 active torsions:
REMARK  status: ('A' for Active; 'I' for Inactive)
REMARK    1  A    between atoms: C_1  and  C_2
REMARK    2  A    between atoms: C_2  and  C_3
REMARK    3  A    between atoms: C_2  and  N_4
REMARK    4  A    between atoms: N_4  and  C_5
REMARK    5  A    between atoms: N_4  and  C_29
REMARK    6  A    between atoms: C_5  and  C_6
REMARK    7  A    between atoms: C_6  and  C_7
REMARK    8  A    between atoms: C_7  and  C_9
REMARK    9  A    between atoms: C_7  and  C_15
REMARK   10  A    between atoms: C_16  and  O_17
REMARK   11  A    between atoms: O_17  and  C_18
REMARK   12  A    between atoms: C_18  and  C_20
REMARK   13  A    between atoms: C_20  and  C_21
REMARK   14  A    between atoms: C_20  and  C_22
REMARK   15  A    between atoms: C_25  and  C_26
REMARK   16  A    between atoms: C_26  and  O_27
REMARK   17  A    between atoms: C_29  and  C_30
REMARK   18  A    between atoms: C_29  and  C_31
REMARK                            x       y       z     vdW  Elec       q    Type
REMARK                         _______ _______ _______ _____ _____    ______ ____
ROOT
ATOM      1  C   UNL     1       7.132  -1.831  24.130  0.00  0.00    +0.054 C 
ENDROOT
BRANCH   1   2
ATOM      2  C   UNL     1       6.983  -0.383  24.684  0.00  0.00    +0.003 A 
ATOM      3  C   UNL     1       5.731   0.099  25.128  0.00  0.00    +0.013 A 
ATOM      4  C   UNL     1       5.546   1.355  25.731  0.00  0.00    -0.022 A 
ATOM      5  C   UNL     1       6.640   2.210  25.828  0.00  0.00    +0.009 A 
ATOM      6  C   UNL     1       7.886   1.803  25.358  0.00  0.00    +0.047 A 
ATOM      7  C   UNL     1       8.064   0.529  24.787  0.00  0.00    +0.135 A 
BRANCH   4   8
ATOM      8  C   UNL     1       4.235   1.739  26.376  0.00  0.00    +0.191 C 
BRANCH   8   9
ATOM      9  O   UNL     1       3.201   1.989  25.432  0.00  0.00    -0.390 OA
ATOM     10  H   UNL     1       3.543   1.728  24.560  0.00  0.00    +0.210 HD
ENDBRANCH   8   9
ENDBRANCH   4   8
BRANCH   7  11
ATOM     11  O   UNL     1       9.374   0.153  24.377  0.00  0.00    -0.425 OA
BRANCH  11  12
ATOM     12  C   UNL     1      10.101   1.015  23.535  0.00  0.00    +0.315 C 
ATOM     13  O   UNL     1      10.854   1.907  23.911  0.00  0.00    -0.250 OA
BRANCH  12  14
ATOM     14  C   UNL     1       9.910   0.666  22.059  0.00  0.00    +0.092 C 
ATOM     15  C   UNL     1       8.684   1.408  21.510  0.00  0.00    +0.019 C 
ATOM     16  C   UNL     1       9.750  -0.830  21.811  0.00  0.00    +0.019 C 
ENDBRANCH  12  14
ENDBRANCH  11  12
ENDBRANCH   7  11
ENDBRANCH   1   2
BRANCH   1  17
ATOM     17  C   UNL     1       7.821  -2.896  25.042  0.00  0.00    -0.040 A 
ATOM     18  C   UNL     1       7.221  -3.445  26.187  0.00  0.00    +0.004 A 
ATOM     19  C   UNL     1       7.710  -4.626  26.767  0.00  0.00    +0.000 A 
ATOM     20  C   UNL     1       8.870  -5.222  26.286  0.00  0.00    +0.000 A 
ATOM     21  C   UNL     1       9.601  -4.563  25.311  0.00  0.00    +0.000 A 
ATOM     22  C   UNL     1       9.102  -3.383  24.753  0.00  0.00    +0.004 A 
ENDBRANCH   1  17
BRANCH   1  23
ATOM     23  C   UNL     1       5.748  -2.317  23.561  0.00  0.00    +0.028 C 
BRANCH  23  24
ATOM     24  C   UNL     1       5.812  -3.258  22.329  0.00  0.00    +0.086 C 
BRANCH  24  25
ATOM     25  N   UNL     1       5.082  -4.554  22.461  0.00  0.00    -0.297 NA
BRANCH  25  27
ATOM     26  C   UNL     1       2.845  -4.899  23.577  0.00  0.00    +0.024 C 
ATOM     27  C   UNL     1       4.365  -4.683  23.768  0.00  0.00    +0.051 C 
ATOM     28  C   UNL     1       4.781  -5.846  24.684  0.00  0.00    +0.024 C 
ENDBRANCH  25  27
BRANCH  25  29
ATOM     29  C   UNL     1       5.928  -5.707  22.023  0.00  0.00    +0.051 C 
ATOM     30  C   UNL     1       7.392  -5.577  22.533  0.00  0.00    +0.024 C 
ATOM     31  C   UNL     1       6.072  -5.920  20.506  0.00  0.00    +0.024 C 
ENDBRANCH  25  29
ENDBRANCH  24  25
ENDBRANCH  23  24
ENDBRANCH   1  23
TORSDOF 12
ENDMDL
MODEL 2
REMARK VINA RESULT:      -6.0      3.440      7.000
REMARK  Name = 
REMARK  18 active torsions:
REMARK  status: ('A' for Active; 'I' for Inactive)
REMARK    1  A    between atoms: C_1  and  C_2
REMARK    2  A    between atoms: C_2  and  C_3
REMARK    3  A    between atoms: C_2  and  N_4
REMARK    4  A    between atoms: N_4  and  C_5
REMARK    5  A    between atoms: N_4  and  C_29
REMARK    6  A    between atoms: C_5  and  C_6
REMARK    7  A    between atoms: C_6  and  C_7
REMARK    8  A    between atoms: C_7  and  C_9
REMARK    9  A    between atoms: C_7  and  C_15
REMARK   10  A    between atoms: C_16  and  O_17
REMARK   11  A    between atoms: O_17  and  C_18
REMARK   12  A    between atoms: C_18  and  C_20
REMARK   13  A    between atoms: C_20  and  C_21
REMARK   14  A    between atoms: C_20  and  C_22
REMARK   15  A    between atoms: C_25  and  C_26
REMARK   16  A    between atoms: C_26  and  O_27
REMARK   17  A    between atoms: C_29  and  C_30
REMARK   18  A    between atoms: C_29  and  C_31
REMARK                            x       y       z     vdW  Elec       q    Type
REMARK                         _______ _______ _______ _____ _____    ______ ____
ROOT
ATOM      1  C   UNL     1       9.153   2.555  24.410  0.00  0.00    +0.054 C 
ENDROOT
BRANCH   1   2
ATOM      2  C   UNL     1       9.942   3.893  24.300  0.00  0.00    +0.003 A 
ATOM      3  C   UNL     1      11.171   3.955  23.605  0.00  0.00    +0.013 A 
ATOM      4  C   UNL     1      11.883   5.146  23.380  0.00  0.00    -0.022 A 
ATOM      5  C   UNL     1      11.396   6.324  23.940  0.00  0.00    +0.009 A 
ATOM      6  C   UNL     1      10.216   6.307  24.679  0.00  0.00    +0.047 A 
ATOM      7  C   UNL     1       9.496   5.113  24.867  0.00  0.00    +0.135 A 
BRANCH   4   8
ATOM      8  C   UNL     1      13.077   5.193  22.456  0.00  0.00    +0.191 C 
BRANCH   8   9
ATOM      9  O   UNL     1      14.319   5.122  23.146  0.00  0.00    -0.390 OA
ATOM     10  H   UNL     1      14.285   5.779  23.861  0.00  0.00    +0.210 HD
ENDBRANCH   8   9
ENDBRANCH   4   8
BRANCH   7  11
ATOM     11  O   UNL     1       8.268   5.174  25.585  0.00  0.00    -0.425 OA
BRANCH  11  12
ATOM     12  C   UNL     1       7.158   5.801  24.989  0.00  0.00    +0.315 C 
ATOM     13  O   UNL     1       7.103   6.198  23.830  0.00  0.00    -0.250 OA
BRANCH  12  14
ATOM     14  C   UNL     1       5.964   5.873  25.942  0.00  0.00    +0.092 C 
ATOM     15  C   UNL     1       6.041   4.721  26.951  0.00  0.00    +0.019 C 
ATOM     16  C   UNL     1       4.620   5.830  25.225  0.00  0.00    +0.019 C 
ENDBRANCH  12  14
ENDBRANCH  11  12
ENDBRANCH   7  11
ENDBRANCH   1   2
BRANCH   1  17
ATOM     17  C   UNL     1       7.714   2.502  23.803  0.00  0.00    -0.040 A 
ATOM     18  C   UNL     1       6.591   2.031  24.503  0.00  0.00    +0.004 A 
ATOM     19  C   UNL     1       5.290   2.320  24.064  0.00  0.00    +0.000 A 
ATOM     20  C   UNL     1       5.080   2.986  22.863  0.00  0.00    +0.000 A 
ATOM     21  C   UNL     1       6.169   3.247  22.049  0.00  0.00    +0.000 A 
ATOM     22  C   UNL     1       7.457   2.944  22.499  0.00  0.00    +0.004 A 
ENDBRANCH   1  17
BRANCH   1  23
ATOM     23  C   UNL     1      10.064   1.369  23.924  0.00  0.00    +0.028 C 
BRANCH  23  24
ATOM     24  C   UNL     1      10.114   0.125  24.851  0.00  0.00    +0.086 C 
BRANCH  24  25
ATOM     25  N   UNL     1       9.300  -1.047  24.411  0.00  0.00    -0.297 NA
BRANCH  25  27
ATOM     26  C   UNL     1       9.323  -1.753  21.987  0.00  0.00    +0.024 C 
ATOM     27  C   UNL     1       8.679  -0.847  23.064  0.00  0.00    +0.051 C 
ATOM     28  C   UNL     1       7.177  -1.146  22.933  0.00  0.00    +0.024 C 
ENDBRANCH  25  27
BRANCH  25  29
ATOM     29  C   UNL     1       8.416  -1.544  25.509  0.00  0.00    +0.051 C 
ATOM     30  C   UNL     1       8.657  -0.773  26.839  0.00  0.00    +0.024 C 
ATOM     31  C   UNL     1       8.565  -3.026  25.897  0.00  0.00    +0.024 C 
ENDBRANCH  25  29
ENDBRANCH  24  25
ENDBRANCH  23  24
ENDBRANCH   1  23
TORSDOF 12
ENDMDL
MODEL 3
REMARK VINA RESULT:      -5.9      2.255      5.921
REMARK  Name = 
REMARK  18 active torsions:
REMARK  status: ('A' for Active; 'I' for Inactive)
REMARK    1  A    between atoms: C_1  and  C_2
REMARK    2  A    between atoms: C_2  and  C_3
REMARK    3  A    between atoms: C_2  and  N_4
REMARK    4  A    between atoms: N_4  and  C_5
REMARK    5  A    between atoms: N_4  and  C_29
REMARK    6  A    between atoms: C_5  and  C_6
REMARK    7  A    between atoms: C_6  and  C_7
REMARK    8  A    between atoms: C_7  and  C_9
REMARK    9  A    between atoms: C_7  and  C_15
REMARK   10  A    between atoms: C_16  and  O_17
REMARK   11  A    between atoms: O_17  and  C_18
REMARK   12  A    between atoms: C_18  and  C_20
REMARK   13  A    between atoms: C_20  and  C_21
REMARK   14  A    between atoms: C_20  and  C_22
REMARK   15  A    between atoms: C_25  and  C_26
REMARK   16  A    between atoms: C_26  and  O_27
REMARK   17  A    between atoms: C_29  and  C_30
REMARK   18  A    between atoms: C_29  and  C_31
REMARK                            x       y       z     vdW  Elec       q    Type
REMARK                         _______ _______ _______ _____ _____    ______ ____
ROOT
ATOM      1  C   UNL     1       6.442  -1.415  23.554  0.00  0.00    +0.054 C 
ENDROOT
BRANCH   1   2
ATOM      2  C   UNL     1       7.909  -0.897  23.622  0.00  0.00    +0.003 A 
ATOM      3  C   UNL     1       8.397   0.025  22.669  0.00  0.00    +0.013 A 
ATOM      4  C   UNL     1       9.675   0.609  22.729  0.00  0.00    -0.022 A 
ATOM      5  C   UNL     1      10.541   0.202  23.739  0.00  0.00    +0.009 A 
ATOM      6  C   UNL     1      10.126  -0.743  24.674  0.00  0.00    +0.047 A 
ATOM      7  C   UNL     1       8.833  -1.295  24.621  0.00  0.00    +0.135 A 
BRANCH   4   8
ATOM      8  C   UNL     1      10.072   1.740  21.811  0.00  0.00    +0.191 C 
BRANCH   8   9
ATOM      9  O   UNL     1       9.010   2.649  21.553  0.00  0.00    -0.390 OA
ATOM     10  H   UNL     1       8.267   2.128  21.206  0.00  0.00    +0.210 HD
ENDBRANCH   8   9
ENDBRANCH   4   8
BRANCH   7  11
ATOM     11  O   UNL     1       8.451  -2.214  25.639  0.00  0.00    -0.425 OA
BRANCH  11  12
ATOM     12  C   UNL     1       8.792  -3.572  25.497  0.00  0.00    +0.315 C 
ATOM     13  O   UNL     1       9.697  -4.008  24.793  0.00  0.00    -0.250 OA
BRANCH  12  14
ATOM     14  C   UNL     1       7.941  -4.470  26.396  0.00  0.00    +0.092 C 
ATOM     15  C   UNL     1       7.419  -5.663  25.584  0.00  0.00    +0.019 C 
ATOM     16  C   UNL     1       6.766  -3.740  27.036  0.00  0.00    +0.019 C 
ENDBRANCH  12  14
ENDBRANCH  11  12
ENDBRANCH   7  11
ENDBRANCH   1   2
BRANCH   1  17
ATOM     17  C   UNL     1       6.213  -2.922  23.213  0.00  0.00    -0.040 A 
ATOM     18  C   UNL     1       5.108  -3.664  23.665  0.00  0.00    +0.004 A 
ATOM     19  C   UNL     1       4.760  -4.884  23.066  0.00  0.00    +0.000 A 
ATOM     20  C   UNL     1       5.565  -5.444  22.082  0.00  0.00    +0.000 A 
ATOM     21  C   UNL     1       6.779  -4.843  21.794  0.00  0.00    +0.000 A 
ATOM     22  C   UNL     1       7.113  -3.633  22.408  0.00  0.00    +0.004 A 
ENDBRANCH   1  17
BRANCH   1  23
ATOM     23  C   UNL     1       5.665  -0.956  24.842  0.00  0.00    +0.028 C 
BRANCH  23  24
ATOM     24  C   UNL     1       5.493   0.576  25.023  0.00  0.00    +0.086 C 
BRANCH  24  25
ATOM     25  N   UNL     1       6.570   1.265  25.794  0.00  0.00    -0.297 NA
BRANCH  25  27
ATOM     26  C   UNL     1       7.515   0.307  27.929  0.00  0.00    +0.024 C 
ATOM     27  C   UNL     1       6.391   1.144  27.274  0.00  0.00    +0.051 C 
ATOM     28  C   UNL     1       6.392   2.448  28.089  0.00  0.00    +0.024 C 
ENDBRANCH  25  27
BRANCH  25  29
ATOM     29  C   UNL     1       6.853   2.627  25.243  0.00  0.00    +0.051 C 
ATOM     30  C   UNL     1       6.223   2.823  23.835  0.00  0.00    +0.024 C 
ATOM     31  C   UNL     1       8.333   3.000  25.052  0.00  0.00    +0.024 C 
ENDBRANCH  25  29
ENDBRANCH  24  25
ENDBRANCH  23  24
ENDBRANCH   1  23
TORSDOF 12
ENDMDL
MODEL 4
REMARK VINA RESULT:      -5.9      3.582      6.712
REMARK  Name = 
REMARK  18 active torsions:
REMARK  status: ('A' for Active; 'I' for Inactive)
REMARK    1  A    between atoms: C_1  and  C_2
REMARK    2  A    between atoms: C_2  and  C_3
REMARK    3  A    between atoms: C_2  and  N_4
REMARK    4  A    between atoms: N_4  and  C_5
REMARK    5  A    between atoms: N_4  and  C_29
REMARK    6  A    between atoms: C_5  and  C_6
REMARK    7  A    between atoms: C_6  and  C_7
REMARK    8  A    between atoms: C_7  and  C_9
REMARK    9  A    between atoms: C_7  and  C_15
REMARK   10  A    between atoms: C_16  and  O_17
REMARK   11  A    between atoms: O_17  and  C_18
REMARK   12  A    between atoms: C_18  and  C_20
REMARK   13  A    between atoms: C_20  and  C_21
REMARK   14  A    between atoms: C_20  and  C_22
REMARK   15  A    between atoms: C_25  and  C_26
REMARK   16  A    between atoms: C_26  and  O_27
REMARK   17  A    between atoms: C_29  and  C_30
REMARK   18  A    between atoms: C_29  and  C_31
REMARK                            x       y       z     vdW  Elec       q    Type
REMARK                         _______ _______ _______ _____ _____    ______ ____
ROOT
ATOM      1  C   UNL     1       8.853   2.751  23.855  0.00  0.00    +0.054 C 
ENDROOT
BRANCH   1   2
ATOM      2  C   UNL     1       9.764   4.011  23.934  0.00  0.00    +0.003 A 
ATOM      3  C   UNL     1      11.063   4.003  23.380  0.00  0.00    +0.013 A 
ATOM      4  C   UNL     1      11.898   5.133  23.326  0.00  0.00    -0.022 A 
ATOM      5  C   UNL     1      11.456   6.311  23.921  0.00  0.00    +0.009 A 
ATOM      6  C   UNL     1      10.203   6.357  24.527  0.00  0.00    +0.047 A 
ATOM      7  C   UNL     1       9.364   5.227  24.544  0.00  0.00    +0.135 A 
BRANCH   4   8
ATOM      8  C   UNL     1      13.188   5.128  22.541  0.00  0.00    +0.191 C 
BRANCH   8   9
ATOM      9  O   UNL     1      14.340   4.984  23.361  0.00  0.00    -0.390 OA
ATOM     10  H   UNL     1      14.842   5.814  23.295  0.00  0.00    +0.210 HD
ENDBRANCH   8   9
ENDBRANCH   4   8
BRANCH   7  11
ATOM     11  O   UNL     1       8.073   5.356  25.130  0.00  0.00    -0.425 OA
BRANCH  11  12
ATOM     12  C   UNL     1       7.097   6.127  24.471  0.00  0.00    +0.315 C 
ATOM     13  O   UNL     1       6.489   7.073  24.960  0.00  0.00    -0.250 OA
BRANCH  12  14
ATOM     14  C   UNL     1       6.920   5.697  23.015  0.00  0.00    +0.092 C 
ATOM     15  C   UNL     1       6.675   6.934  22.140  0.00  0.00    +0.019 C 
ATOM     16  C   UNL     1       5.783   4.702  22.815  0.00  0.00    +0.019 C 
ENDBRANCH  12  14
ENDBRANCH  11  12
ENDBRANCH   7  11
ENDBRANCH   1   2
BRANCH   1  17
ATOM     17  C   UNL     1       9.431   1.472  23.168  0.00  0.00    -0.040 A 
ATOM     18  C   UNL     1      10.226   0.523  23.831  0.00  0.00    +0.004 A 
ATOM     19  C   UNL     1      10.428  -0.757  23.293  0.00  0.00    +0.000 A 
ATOM     20  C   UNL     1       9.936  -1.081  22.035  0.00  0.00    +0.000 A 
ATOM     21  C   UNL     1       9.355  -0.083  21.271  0.00  0.00    +0.000 A 
ATOM     22  C   UNL     1       9.171   1.189  21.820  0.00  0.00    +0.004 A 
ENDBRANCH   1  17
BRANCH   1  23
ATOM     23  C   UNL     1       8.242   2.457  25.275  0.00  0.00    +0.028 C 
BRANCH  23  24
ATOM     24  C   UNL     1       6.960   1.583  25.296  0.00  0.00    +0.086 C 
BRANCH  24  25
ATOM     25  N   UNL     1       6.954   0.460  26.279  0.00  0.00    -0.297 NA
BRANCH  25  27
ATOM     26  C   UNL     1       6.561  -0.758  24.104  0.00  0.00    +0.024 C 
ATOM     27  C   UNL     1       6.789  -0.877  25.629  0.00  0.00    +0.051 C 
ATOM     28  C   UNL     1       7.966  -1.861  25.741  0.00  0.00    +0.024 C 
ENDBRANCH  25  27
BRANCH  25  29
ATOM     29  C   UNL     1       6.083   0.766  27.456  0.00  0.00    +0.051 C 
ATOM     30  C   UNL     1       6.920   1.136  28.714  0.00  0.00    +0.024 C 
ATOM     31  C   UNL     1       5.153  -0.362  27.937  0.00  0.00    +0.024 C 
ENDBRANCH  25  29
ENDBRANCH  24  25
ENDBRANCH  23  24
ENDBRANCH   1  23
TORSDOF 12
ENDMDL
MODEL 5
REMARK VINA RESULT:      -5.9      2.865      6.075
REMARK  Name = 
REMARK  18 active torsions:
REMARK  status: ('A' for Active; 'I' for Inactive)
REMARK    1  A    between atoms: C_1  and  C_2
REMARK    2  A    between atoms: C_2  and  C_3
REMARK    3  A    between atoms: C_2  and  N_4
REMARK    4  A    between atoms: N_4  and  C_5
REMARK    5  A    between atoms: N_4  and  C_29
REMARK    6  A    between atoms: C_5  and  C_6
REMARK    7  A    between atoms: C_6  and  C_7
REMARK    8  A    between atoms: C_7  and  C_9
REMARK    9  A    between atoms: C_7  and  C_15
REMARK   10  A    between atoms: C_16  and  O_17
REMARK   11  A    between atoms: O_17  and  C_18
REMARK   12  A    between atoms: C_18  and  C_20
REMARK   13  A    between atoms: C_20  and  C_21
REMARK   14  A    between atoms: C_20  and  C_22
REMARK   15  A    between atoms: C_25  and  C_26
REMARK   16  A    between atoms: C_26  and  O_27
REMARK   17  A    between atoms: C_29  and  C_30
REMARK   18  A    between atoms: C_29  and  C_31
REMARK                            x       y       z     vdW  Elec       q    Type
REMARK                         _______ _______ _______ _____ _____    ______ ____
ROOT
ATOM      1  C   UNL     1       7.574  -2.933  25.606  0.00  0.00    +0.054 C 
ENDROOT
BRANCH   1   2
ATOM      2  C   UNL     1       6.413  -2.755  26.629  0.00  0.00    +0.003 A 
ATOM      3  C   UNL     1       5.879  -1.476  26.904  0.00  0.00    +0.013 A 
ATOM      4  C   UNL     1       4.768  -1.255  27.736  0.00  0.00    -0.022 A 
ATOM      5  C   UNL     1       4.205  -2.346  28.392  0.00  0.00    +0.009 A 
ATOM      6  C   UNL     1       4.727  -3.622  28.194  0.00  0.00    +0.047 A 
ATOM      7  C   UNL     1       5.819  -3.832  27.332  0.00  0.00    +0.135 A 
BRANCH   4   8
ATOM      8  C   UNL     1       4.108   0.101  27.833  0.00  0.00    +0.191 C 
BRANCH   8   9
ATOM      9  O   UNL     1       3.366   0.445  26.670  0.00  0.00    -0.390 OA
ATOM     10  H   UNL     1       2.481   0.058  26.773  0.00  0.00    +0.210 HD
ENDBRANCH   8   9
ENDBRANCH   4   8
BRANCH   7  11
ATOM     11  O   UNL     1       6.269  -5.168  27.131  0.00  0.00    -0.425 OA
BRANCH  11  12
ATOM     12  C   UNL     1       5.373  -6.121  26.614  0.00  0.00    +0.315 C 
ATOM     13  O   UNL     1       5.001  -7.136  27.194  0.00  0.00    -0.250 OA
BRANCH  12  14
ATOM     14  C   UNL     1       4.834  -5.712  25.242  0.00  0.00    +0.092 C 
ATOM     15  C   UNL     1       3.368  -5.280  25.373  0.00  0.00    +0.019 C 
ATOM     16  C   UNL     1       4.946  -6.817  24.199  0.00  0.00    +0.019 C 
ENDBRANCH  12  14
ENDBRANCH  11  12
ENDBRANCH   7  11
ENDBRANCH   1   2
BRANCH   1  17
ATOM     17  C   UNL     1       7.201  -3.287  24.130  0.00  0.00    -0.040 A 
ATOM     18  C   UNL     1       7.850  -4.283  23.381  0.00  0.00    +0.004 A 
ATOM     19  C   UNL     1       7.273  -4.803  22.213  0.00  0.00    +0.000 A 
ATOM     20  C   UNL     1       6.095  -4.267  21.707  0.00  0.00    +0.000 A 
ATOM     21  C   UNL     1       5.571  -3.133  22.303  0.00  0.00    +0.000 A 
ATOM     22  C   UNL     1       6.165  -2.623  23.461  0.00  0.00    +0.004 A 
ENDBRANCH   1  17
BRANCH   1  23
ATOM     23  C   UNL     1       8.555  -1.708  25.710  0.00  0.00    +0.028 C 
BRANCH  23  24
ATOM     24  C   UNL     1       9.251  -1.280  24.391  0.00  0.00    +0.086 C 
BRANCH  24  25
ATOM     25  N   UNL     1       8.911   0.085  23.890  0.00  0.00    -0.297 NA
BRANCH  25  27
ATOM     26  C   UNL     1       8.262   2.191  25.120  0.00  0.00    +0.024 C 
ATOM     27  C   UNL     1       7.855   0.756  24.709  0.00  0.00    +0.051 C 
ATOM     28  C   UNL     1       6.476   0.947  24.055  0.00  0.00    +0.024 C 
ENDBRANCH  25  27
BRANCH  25  29
ATOM     29  C   UNL     1       8.742   0.097  22.404  0.00  0.00    +0.051 C 
ATOM     30  C   UNL     1       9.235  -1.228  21.755  0.00  0.00    +0.024 C 
ATOM     31  C   UNL     1       9.489   1.199  21.633  0.00  0.00    +0.024 C 
ENDBRANCH  25  29
ENDBRANCH  24  25
ENDBRANCH  23  24
ENDBRANCH   1  23
TORSDOF 12
ENDMDL
MODEL 6
REMARK VINA RESULT:      -5.8      2.208      4.508
REMARK  Name = 
REMARK  18 active torsions:
REMARK  status: ('A' for Active; 'I' for Inactive)
REMARK    1  A    between atoms: C_1  and  C_2
REMARK    2  A    between atoms: C_2  and  C_3
REMARK    3  A    between atoms: C_2  and  N_4
REMARK    4  A    between atoms: N_4  and  C_5
REMARK    5  A    between atoms: N_4  and  C_29
REMARK    6  A    between atoms: C_5  and  C_6
REMARK    7  A    between atoms: C_6  and  C_7
REMARK    8  A    between atoms: C_7  and  C_9
REMARK    9  A    between atoms: C_7  and  C_15
REMARK   10  A    between atoms: C_16  and  O_17
REMARK   11  A    between atoms: O_17  and  C_18
REMARK   12  A    between atoms: C_18  and  C_20
REMARK   13  A    between atoms: C_20  and  C_21
REMARK   14  A    between atoms: C_20  and  C_22
REMARK   15  A    between atoms: C_25  and  C_26
REMARK   16  A    between atoms: C_26  and  O_27
REMARK   17  A    between atoms: C_29  and  C_30
REMARK   18  A    between atoms: C_29  and  C_31
REMARK                            x       y       z     vdW  Elec       q    Type
REMARK                         _______ _______ _______ _____ _____    ______ ____
ROOT
ATOM      1  C   UNL     1       7.799  -0.503  25.270  0.00  0.00    +0.054 C 
ENDROOT
BRANCH   1   2
ATOM      2  C   UNL     1       7.018   0.402  26.268  0.00  0.00    +0.003 A 
ATOM      3  C   UNL     1       7.441   0.536  27.610  0.00  0.00    +0.013 A 
ATOM      4  C   UNL     1       6.846   1.411  28.535  0.00  0.00    -0.022 A 
ATOM      5  C   UNL     1       5.725   2.133  28.135  0.00  0.00    +0.009 A 
ATOM      6  C   UNL     1       5.236   1.998  26.838  0.00  0.00    +0.047 A 
ATOM      7  C   UNL     1       5.862   1.142  25.913  0.00  0.00    +0.135 A 
BRANCH   4   8
ATOM      8  C   UNL     1       7.462   1.672  29.889  0.00  0.00    +0.191 C 
BRANCH   8   9
ATOM      9  O   UNL     1       8.734   1.058  30.050  0.00  0.00    -0.390 OA
ATOM     10  H   UNL     1       9.342   1.495  29.431  0.00  0.00    +0.210 HD
ENDBRANCH   8   9
ENDBRANCH   4   8
BRANCH   7  11
ATOM     11  O   UNL     1       5.347   1.091  24.587  0.00  0.00    -0.425 OA
BRANCH  11  12
ATOM     12  C   UNL     1       5.196   2.291  23.866  0.00  0.00    +0.315 C 
ATOM     13  O   UNL     1       4.130   2.850  23.632  0.00  0.00    -0.250 OA
BRANCH  12  14
ATOM     14  C   UNL     1       6.544   2.882  23.455  0.00  0.00    +0.092 C 
ATOM     15  C   UNL     1       6.816   4.156  24.267  0.00  0.00    +0.019 C 
ATOM     16  C   UNL     1       6.633   3.202  21.967  0.00  0.00    +0.019 C 
ENDBRANCH  12  14
ENDBRANCH  11  12
ENDBRANCH   7  11
ENDBRANCH   1   2
BRANCH   1  17
ATOM     17  C   UNL     1       8.755   0.190  24.247  0.00  0.00    -0.040 A 
ATOM     18  C   UNL     1       8.800  -0.133  22.881  0.00  0.00    +0.004 A 
ATOM     19  C   UNL     1       9.400   0.729  21.951  0.00  0.00    +0.000 A 
ATOM     20  C   UNL     1      10.063   1.874  22.374  0.00  0.00    +0.000 A 
ATOM     21  C   UNL     1      10.230   2.083  23.733  0.00  0.00    +0.000 A 
ATOM     22  C   UNL     1       9.633   1.207  24.644  0.00  0.00    +0.004 A 
ENDBRANCH   1  17
BRANCH   1  23
ATOM     23  C   UNL     1       8.494  -1.673  26.059  0.00  0.00    +0.028 C 
BRANCH  23  24
ATOM     24  C   UNL     1       8.300  -3.097  25.475  0.00  0.00    +0.086 C 
BRANCH  24  25
ATOM     25  N   UNL     1       6.885  -3.543  25.305  0.00  0.00    -0.297 NA
BRANCH  25  27
ATOM     26  C   UNL     1       5.726  -5.767  25.593  0.00  0.00    +0.024 C 
ATOM     27  C   UNL     1       6.494  -4.612  26.277  0.00  0.00    +0.051 C 
ATOM     28  C   UNL     1       7.630  -5.328  27.026  0.00  0.00    +0.024 C 
ENDBRANCH  25  27
BRANCH  25  29
ATOM     29  C   UNL     1       6.550  -3.767  23.865  0.00  0.00    +0.051 C 
ATOM     30  C   UNL     1       7.826  -3.835  22.978  0.00  0.00    +0.024 C 
ATOM     31  C   UNL     1       5.672  -2.700  23.187  0.00  0.00    +0.024 C 
ENDBRANCH  25  29
ENDBRANCH  24  25
ENDBRANCH  23  24
ENDBRANCH   1  23
TORSDOF 12
ENDMDL
MODEL 7
REMARK VINA RESULT:      -5.8      1.991      3.096
REMARK  Name = 
REMARK  18 active torsions:
REMARK  status: ('A' for Active; 'I' for Inactive)
REMARK    1  A    between atoms: C_1  and  C_2
REMARK    2  A    between atoms: C_2  and  C_3
REMARK    3  A    between atoms: C_2  and  N_4
REMARK    4  A    between atoms: N_4  and  C_5
REMARK    5  A    between atoms: N_4  and  C_29
REMARK    6  A    between atoms: C_5  and  C_6
REMARK    7  A    between atoms: C_6  and  C_7
REMARK    8  A    between atoms: C_7  and  C_9
REMARK    9  A    between atoms: C_7  and  C_15
REMARK   10  A    between atoms: C_16  and  O_17
REMARK   11  A    between atoms: O_17  and  C_18
REMARK   12  A    between atoms: C_18  and  C_20
REMARK   13  A    between atoms: C_20  and  C_21
REMARK   14  A    between atoms: C_20  and  C_22
REMARK   15  A    between atoms: C_25  and  C_26
REMARK   16  A    between atoms: C_26  and  O_27
REMARK   17  A    between atoms: C_29  and  C_30
REMARK   18  A    between atoms: C_29  and  C_31
REMARK                            x       y       z     vdW  Elec       q    Type
REMARK                         _______ _______ _______ _____ _____    ______ ____
ROOT
ATOM      1  C   UNL     1       6.222  -0.788  24.013  0.00  0.00    +0.054 C 
ENDROOT
BRANCH   1   2
ATOM      2  C   UNL     1       5.775   0.518  24.733  0.00  0.00    +0.003 A 
ATOM      3  C   UNL     1       5.273   0.482  26.054  0.00  0.00    +0.013 A 
ATOM      4  C   UNL     1       4.948   1.629  26.799  0.00  0.00    -0.022 A 
ATOM      5  C   UNL     1       5.048   2.871  26.178  0.00  0.00    +0.009 A 
ATOM      6  C   UNL     1       5.488   2.956  24.859  0.00  0.00    +0.047 A 
ATOM      7  C   UNL     1       5.842   1.802  24.137  0.00  0.00    +0.135 A 
BRANCH   4   8
ATOM      8  C   UNL     1       4.616   1.551  28.270  0.00  0.00    +0.191 C 
BRANCH   8   9
ATOM      9  O   UNL     1       5.590   0.842  29.025  0.00  0.00    -0.390 OA
ATOM     10  H   UNL     1       5.152   0.053  29.385  0.00  0.00    +0.210 HD
ENDBRANCH   8   9
ENDBRANCH   4   8
BRANCH   7  11
ATOM     11  O   UNL     1       6.338   1.963  22.812  0.00  0.00    -0.425 OA
BRANCH  11  12
ATOM     12  C   UNL     1       7.360   2.900  22.574  0.00  0.00    +0.315 C 
ATOM     13  O   UNL     1       7.222   3.967  21.983  0.00  0.00    -0.250 OA
BRANCH  12  14
ATOM     14  C   UNL     1       8.683   2.475  23.210  0.00  0.00    +0.092 C 
ATOM     15  C   UNL     1       9.227   3.617  24.078  0.00  0.00    +0.019 C 
ATOM     16  C   UNL     1       9.739   2.069  22.188  0.00  0.00    +0.019 C 
ENDBRANCH  12  14
ENDBRANCH  11  12
ENDBRANCH   7  11
ENDBRANCH   1   2
BRANCH   1  17
ATOM     17  C   UNL     1       7.728  -0.929  23.622  0.00  0.00    -0.040 A 
ATOM     18  C   UNL     1       8.785  -0.821  24.542  0.00  0.00    +0.004 A 
ATOM     19  C   UNL     1      10.070  -1.291  24.229  0.00  0.00    +0.000 A 
ATOM     20  C   UNL     1      10.355  -1.776  22.958  0.00  0.00    +0.000 A 
ATOM     21  C   UNL     1       9.388  -1.669  21.973  0.00  0.00    +0.000 A 
ATOM     22  C   UNL     1       8.117  -1.189  22.301  0.00  0.00    +0.004 A 
ENDBRANCH   1  17
BRANCH   1  23
ATOM     23  C   UNL     1       5.678  -2.034  24.803  0.00  0.00    +0.028 C 
BRANCH  23  24
ATOM     24  C   UNL     1       5.231  -3.244  23.941  0.00  0.00    +0.086 C 
BRANCH  24  25
ATOM     25  N   UNL     1       6.172  -4.402  23.906  0.00  0.00    -0.297 NA
BRANCH  25  27
ATOM     26  C   UNL     1       6.864  -5.422  26.109  0.00  0.00    +0.024 C 
ATOM     27  C   UNL     1       7.172  -4.369  25.019  0.00  0.00    +0.051 C 
ATOM     28  C   UNL     1       8.639  -4.649  24.652  0.00  0.00    +0.024 C 
ENDBRANCH  25  27
BRANCH  25  29
ATOM     29  C   UNL     1       6.689  -4.648  22.524  0.00  0.00    +0.051 C 
ATOM     30  C   UNL     1       5.936  -3.792  21.465  0.00  0.00    +0.024 C 
ATOM     31  C   UNL     1       6.582  -6.088  21.994  0.00  0.00    +0.024 C 
ENDBRANCH  25  29
ENDBRANCH  24  25
ENDBRANCH  23  24
ENDBRANCH   1  23
TORSDOF 12
ENDMDL
MODEL 8
REMARK VINA RESULT:      -5.6      2.283      4.687
REMARK  Name = 
REMARK  18 active torsions:
REMARK  status: ('A' for Active; 'I' for Inactive)
REMARK    1  A    between atoms: C_1  and  C_2
REMARK    2  A    between atoms: C_2  and  C_3
REMARK    3  A    between atoms: C_2  and  N_4
REMARK    4  A    between atoms: N_4  and  C_5
REMARK    5  A    between atoms: N_4  and  C_29
REMARK    6  A    between atoms: C_5  and  C_6
REMARK    7  A    between atoms: C_6  and  C_7
REMARK    8  A    between atoms: C_7  and  C_9
REMARK    9  A    between atoms: C_7  and  C_15
REMARK   10  A    between atoms: C_16  and  O_17
REMARK   11  A    between atoms: O_17  and  C_18
REMARK   12  A    between atoms: C_18  and  C_20
REMARK   13  A    between atoms: C_20  and  C_21
REMARK   14  A    between atoms: C_20  and  C_22
REMARK   15  A    between atoms: C_25  and  C_26
REMARK   16  A    between atoms: C_26  and  O_27
REMARK   17  A    between atoms: C_29  and  C_30
REMARK   18  A    between atoms: C_29  and  C_31
REMARK                            x       y       z     vdW  Elec       q    Type
REMARK                         _______ _______ _______ _____ _____    ______ ____
ROOT
ATOM      1  C   UNL     1       7.638  -0.213  25.196  0.00  0.00    +0.054 C 
ENDROOT
BRANCH   1   2
ATOM      2  C   UNL     1       7.000   0.744  26.246  0.00  0.00    +0.003 A 
ATOM      3  C   UNL     1       7.353   0.660  27.612  0.00  0.00    +0.013 A 
ATOM      4  C   UNL     1       6.895   1.555  28.595  0.00  0.00    -0.022 A 
ATOM      5  C   UNL     1       5.979   2.534  28.222  0.00  0.00    +0.009 A 
ATOM      6  C   UNL     1       5.559   2.626  26.897  0.00  0.00    +0.047 A 
ATOM      7  C   UNL     1       6.052   1.744  25.918  0.00  0.00    +0.135 A 
BRANCH   4   8
ATOM      8  C   UNL     1       7.461   1.552  29.995  0.00  0.00    +0.191 C 
BRANCH   8   9
ATOM      9  O   UNL     1       8.829   1.166  30.043  0.00  0.00    -0.390 OA
ATOM     10  H   UNL     1       8.889   0.280  29.648  0.00  0.00    +0.210 HD
ENDBRANCH   8   9
ENDBRANCH   4   8
BRANCH   7  11
ATOM     11  O   UNL     1       5.626   1.927  24.572  0.00  0.00    -0.425 OA
BRANCH  11  12
ATOM     12  C   UNL     1       5.668   3.217  24.011  0.00  0.00    +0.315 C 
ATOM     13  O   UNL     1       4.713   3.980  23.907  0.00  0.00    -0.250 OA
BRANCH  12  14
ATOM     14  C   UNL     1       7.086   3.613  23.597  0.00  0.00    +0.092 C 
ATOM     15  C   UNL     1       7.647   4.633  24.596  0.00  0.00    +0.019 C 
ATOM     16  C   UNL     1       7.163   4.188  22.188  0.00  0.00    +0.019 C 
ENDBRANCH  12  14
ENDBRANCH  11  12
ENDBRANCH   7  11
ENDBRANCH   1   2
BRANCH   1  17
ATOM     17  C   UNL     1       8.665   0.391  24.185  0.00  0.00    -0.040 A 
ATOM     18  C   UNL     1       8.586   0.209  22.794  0.00  0.00    +0.004 A 
ATOM     19  C   UNL     1       9.302   1.035  21.913  0.00  0.00    +0.000 A 
ATOM     20  C   UNL     1      10.192   1.984  22.399  0.00  0.00    +0.000 A 
ATOM     21  C   UNL     1      10.455   2.014  23.759  0.00  0.00    +0.000 A 
ATOM     22  C   UNL     1       9.740   1.177  24.619  0.00  0.00    +0.004 A 
ENDBRANCH   1  17
BRANCH   1  23
ATOM     23  C   UNL     1       8.181  -1.499  25.921  0.00  0.00    +0.028 C 
BRANCH  23  24
ATOM     24  C   UNL     1       7.297  -2.769  25.805  0.00  0.00    +0.086 C 
BRANCH  24  25
ATOM     25  N   UNL     1       7.661  -3.717  24.710  0.00  0.00    -0.297 NA
BRANCH  25  27
ATOM     26  C   UNL     1       5.325  -3.045  24.031  0.00  0.00    +0.024 C 
ATOM     27  C   UNL     1       6.624  -3.785  23.634  0.00  0.00    +0.051 C 
ATOM     28  C   UNL     1       6.986  -3.171  22.272  0.00  0.00    +0.024 C 
ENDBRANCH  25  27
BRANCH  25  29
ATOM     29  C   UNL     1       8.174  -5.012  25.255  0.00  0.00    +0.051 C 
ATOM     30  C   UNL     1       7.606  -5.310  26.672  0.00  0.00    +0.024 C 
ATOM     31  C   UNL     1       9.699  -5.133  25.424  0.00  0.00    +0.024 C 
ENDBRANCH  25  29
ENDBRANCH  24  25
ENDBRANCH  23  24
ENDBRANCH   1  23
TORSDOF 12
ENDMDL
MODEL 9
REMARK VINA RESULT:      -5.6      3.407      6.266
REMARK  Name = 
REMARK  18 active torsions:
REMARK  status: ('A' for Active; 'I' for Inactive)
REMARK    1  A    between atoms: C_1  and  C_2
REMARK    2  A    between atoms: C_2  and  C_3
REMARK    3  A    between atoms: C_2  and  N_4
REMARK    4  A    between atoms: N_4  and  C_5
REMARK    5  A    between atoms: N_4  and  C_29
REMARK    6  A    between atoms: C_5  and  C_6
REMARK    7  A    between atoms: C_6  and  C_7
REMARK    8  A    between atoms: C_7  and  C_9
REMARK    9  A    between atoms: C_7  and  C_15
REMARK   10  A    between atoms: C_16  and  O_17
REMARK   11  A    between atoms: O_17  and  C_18
REMARK   12  A    between atoms: C_18  and  C_20
REMARK   13  A    between atoms: C_20  and  C_21
REMARK   14  A    between atoms: C_20  and  C_22
REMARK   15  A    between atoms: C_25  and  C_26
REMARK   16  A    between atoms: C_26  and  O_27
REMARK   17  A    between atoms: C_29  and  C_30
REMARK   18  A    between atoms: C_29  and  C_31
REMARK                            x       y       z     vdW  Elec       q    Type
REMARK                         _______ _______ _______ _____ _____    ______ ____
ROOT
ATOM      1  C   UNL     1       8.092   2.483  23.413  0.00  0.00    +0.054 C 
ENDROOT
BRANCH   1   2
ATOM      2  C   UNL     1       8.739   3.899  23.465  0.00  0.00    +0.003 A 
ATOM      3  C   UNL     1      10.114   4.058  23.750  0.00  0.00    +0.013 A 
ATOM      4  C   UNL     1      10.782   5.295  23.713  0.00  0.00    -0.022 A 
ATOM      5  C   UNL     1      10.036   6.442  23.460  0.00  0.00    +0.009 A 
ATOM      6  C   UNL     1       8.667   6.345  23.223  0.00  0.00    +0.047 A 
ATOM      7  C   UNL     1       8.018   5.096  23.231  0.00  0.00    +0.135 A 
BRANCH   4   8
ATOM      8  C   UNL     1      12.286   5.386  23.820  0.00  0.00    +0.191 C 
BRANCH   8   9
ATOM      9  O   UNL     1      12.721   6.380  24.737  0.00  0.00    -0.390 OA
ATOM     10  H   UNL     1      13.692   6.400  24.696  0.00  0.00    +0.210 HD
ENDBRANCH   8   9
ENDBRANCH   4   8
BRANCH   7  11
ATOM     11  O   UNL     1       6.628   5.060  22.926  0.00  0.00    -0.425 OA
BRANCH  11  12
ATOM     12  C   UNL     1       5.695   5.194  23.972  0.00  0.00    +0.315 C 
ATOM     13  O   UNL     1       5.907   5.745  25.047  0.00  0.00    -0.250 OA
BRANCH  12  14
ATOM     14  C   UNL     1       4.326   4.631  23.590  0.00  0.00    +0.092 C 
ATOM     15  C   UNL     1       4.497   3.534  22.531  0.00  0.00    +0.019 C 
ATOM     16  C   UNL     1       3.364   5.693  23.068  0.00  0.00    +0.019 C 
ENDBRANCH  12  14
ENDBRANCH  11  12
ENDBRANCH   7  11
ENDBRANCH   1   2
BRANCH   1  17
ATOM     17  C   UNL     1       8.990   1.285  22.967  0.00  0.00    -0.040 A 
ATOM     18  C   UNL     1       9.819   0.565  23.844  0.00  0.00    +0.004 A 
ATOM     19  C   UNL     1      10.328  -0.694  23.490  0.00  0.00    +0.000 A 
ATOM     20  C   UNL     1      10.114  -1.212  22.219  0.00  0.00    +0.000 A 
ATOM     21  C   UNL     1       9.500  -0.412  21.270  0.00  0.00    +0.000 A 
ATOM     22  C   UNL     1       9.009   0.843  21.638  0.00  0.00    +0.004 A 
ENDBRANCH   1  17
BRANCH   1  23
ATOM     23  C   UNL     1       7.330   2.207  24.761  0.00  0.00    +0.028 C 
BRANCH  23  24
ATOM     24  C   UNL     1       6.257   1.087  24.717  0.00  0.00    +0.086 C 
BRANCH  24  25
ATOM     25  N   UNL     1       6.417  -0.007  25.720  0.00  0.00    -0.297 NA
BRANCH  25  27
ATOM     26  C   UNL     1       7.019   0.612  28.092  0.00  0.00    +0.024 C 
ATOM     27  C   UNL     1       7.536   0.247  26.681  0.00  0.00    +0.051 C 
ATOM     28  C   UNL     1       8.513  -0.912  26.943  0.00  0.00    +0.024 C 
ENDBRANCH  25  27
BRANCH  25  29
ATOM     29  C   UNL     1       6.357  -1.356  25.076  0.00  0.00    +0.051 C 
ATOM     30  C   UNL     1       6.484  -1.263  23.528  0.00  0.00    +0.024 C 
ATOM     31  C   UNL     1       5.072  -2.171  25.304  0.00  0.00    +0.024 C 
ENDBRANCH  25  29
ENDBRANCH  24  25
ENDBRANCH  23  24
ENDBRANCH   1  23
TORSDOF 12
ENDMDL
