MODEL 1
REMARK VINA RESULT:      -6.4      0.000      0.000
REMARK  Name = 
REMARK  13 active torsions:
REMARK  status: ('A' for Active; 'I' for Inactive)
REMARK    1  A    between atoms: C_1  and  C_2
REMARK    2  A    between atoms: C_2  and  C_3
REMARK    3  A    between atoms: C_3  and  C_4
REMARK    4  A    between atoms: C_4  and  N_5
REMARK    5  A    between atoms: N_5  and  C_6
REMARK    6  A    between atoms: N_5  and  C_10
REMARK    7  A    between atoms: C_6  and  C_7
REMARK    8  A    between atoms: C_7  and  C_8
REMARK    9  A    between atoms: C_8  and  C_9
REMARK   10  A    between atoms: C_10  and  C_11
REMARK   11  A    between atoms: C_11  and  O_12
REMARK   12  A    between atoms: C_11  and  C_13
REMARK   13  A    between atoms: C_21  and  C_22
REMARK                            x       y       z     vdW  Elec       q    Type
REMARK                         _______ _______ _______ _____ _____    ______ ____
ROOT
ATOM      1  C   UNL     1       5.072  -1.300  25.685  0.00  0.00    -0.008 A 
ATOM      2  C   UNL     1       5.440  -0.039  26.229  0.00  0.00    +0.026 A 
ATOM      3  C   UNL     1       6.458   0.737  25.684  0.00  0.00    +0.042 A 
ATOM      4 CL   UNL     1       6.837   2.266  26.374  0.00  0.00    -0.084 Cl
ATOM      5  C   UNL     1       7.148   0.286  24.575  0.00  0.00    +0.029 A 
ATOM      6  C   UNL     1       6.840  -0.954  24.042  0.00  0.00    -0.008 A 
ATOM      7  C   UNL     1       7.436  -1.688  22.894  0.00  0.00    -0.009 C 
ATOM      8  C   UNL     1       6.669  -2.935  22.689  0.00  0.00    -0.008 A 
ATOM      9  C   UNL     1       6.793  -3.922  21.715  0.00  0.00    +0.029 A 
ATOM     10  C   UNL     1       5.952  -5.024  21.789  0.00  0.00    +0.042 A 
ATOM     11 CL   UNL     1       6.059  -6.266  20.602  0.00  0.00    -0.084 Cl
ATOM     12  C   UNL     1       5.024  -5.138  22.827  0.00  0.00    +0.020 A 
ATOM     13  C   UNL     1       4.908  -4.131  23.801  0.00  0.00    +0.010 A 
ATOM     14  C   UNL     1       5.711  -2.999  23.734  0.00  0.00    -0.009 A 
ATOM     15  C   UNL     1       8.537  -1.395  22.173  0.00  0.00    +0.017 C 
ATOM     16  C   UNL     1       5.792  -1.769  24.574  0.00  0.00    -0.004 A 
ENDROOT
BRANCH  15  17
ATOM     17  C   UNL     1       9.394  -0.236  22.422  0.00  0.00    -0.024 A 
ATOM     18  C   UNL     1       9.273   0.904  21.622  0.00  0.00    +0.009 A 
ATOM     19  C   UNL     1       9.899   2.092  22.008  0.00  0.00    +0.020 A 
ATOM     20  C   UNL     1      10.662   2.124  23.178  0.00  0.00    +0.041 A 
ATOM     21 CL   UNL     1      11.336   3.614  23.710  0.00  0.00    -0.084 Cl
ATOM     22  C   UNL     1      10.842   0.972  23.941  0.00  0.00    +0.020 A 
ATOM     23  C   UNL     1      10.208  -0.213  23.563  0.00  0.00    +0.009 A 
ENDBRANCH  15  17
BRANCH   1  24
ATOM     24  C   UNL     1       3.917  -1.985  26.364  0.00  0.00    +0.159 C 
BRANCH  24  25
ATOM     25  O   UNL     1       2.943  -1.004  26.693  0.00  0.00    -0.386 OA
ATOM     26  H   UNL     1       3.011  -0.306  26.019  0.00  0.00    +0.210 HD
ENDBRANCH  24  25
BRANCH  24  27
ATOM     27  C   UNL     1       4.379  -2.854  27.568  0.00  0.00    +0.120 C 
BRANCH  27  28
ATOM     28  N   UNL     1       4.860  -4.229  27.240  0.00  0.00    -0.300 NA
BRANCH  28  29
ATOM     29  C   UNL     1       6.296  -4.337  27.620  0.00  0.00    +0.084 C 
BRANCH  29  30
ATOM     30  C   UNL     1       7.302  -4.742  26.531  0.00  0.00    +0.015 C 
BRANCH  30  32
ATOM     31  C   UNL     1       9.221  -4.091  25.058  0.00  0.00    +0.004 C 
ATOM     32  C   UNL     1       8.396  -3.707  26.279  0.00  0.00    -0.002 C 
ENDBRANCH  30  32
ENDBRANCH  29  30
ENDBRANCH  28  29
BRANCH  28  33
ATOM     33  C   UNL     1       4.059  -5.229  27.993  0.00  0.00    +0.084 C 
BRANCH  33  34
ATOM     34  C   UNL     1       3.299  -6.278  27.160  0.00  0.00    +0.015 C 
BRANCH  34  35
ATOM     35  C   UNL     1       4.147  -6.946  26.077  0.00  0.00    -0.002 C 
ATOM     36  C   UNL     1       3.254  -7.578  25.016  0.00  0.00    +0.004 C 
ENDBRANCH  34  35
ENDBRANCH  33  34
ENDBRANCH  28  33
ENDBRANCH  27  28
ENDBRANCH  24  27
ENDBRANCH   1  24
TORSDOF 11
ENDMDL
MODEL 2
REMARK VINA RESULT:      -6.2      4.014      8.281
REMARK  Name = 
REMARK  13 active torsions:
REMARK  status: ('A' for Active; 'I' for Inactive)
REMARK    1  A    between atoms: C_1  and  C_2
REMARK    2  A    between atoms: C_2  and  C_3
REMARK    3  A    between atoms: C_3  and  C_4
REMARK    4  A    between atoms: C_4  and  N_5
REMARK    5  A    between atoms: N_5  and  C_6
REMARK    6  A    between atoms: N_5  and  C_10
REMARK    7  A    between atoms: C_6  and  C_7
REMARK    8  A    between atoms: C_7  and  C_8
REMARK    9  A    between atoms: C_8  and  C_9
REMARK   10  A    between atoms: C_10  and  C_11
REMARK   11  A    between atoms: C_11  and  O_12
REMARK   12  A    between atoms: C_11  and  C_13
REMARK   13  A    between atoms: C_21  and  C_22
REMARK                            x       y       z     vdW  Elec       q    Type
REMARK                         _______ _______ _______ _____ _____    ______ ____
ROOT
ATOM      1  C   UNL     1       7.255   4.045  26.083  0.00  0.00    -0.008 A 
ATOM      2  C   UNL     1       6.342   3.075  26.582  0.00  0.00    +0.026 A 
ATOM      3  C   UNL     1       6.486   1.717  26.319  0.00  0.00    +0.042 A 
ATOM      4 CL   UNL     1       5.362   0.592  26.974  0.00  0.00    -0.084 Cl
ATOM      5  C   UNL     1       7.543   1.272  25.549  0.00  0.00    +0.029 A 
ATOM      6  C   UNL     1       8.429   2.193  25.017  0.00  0.00    -0.008 A 
ATOM      7  C   UNL     1       9.615   1.999  24.140  0.00  0.00    -0.009 C 
ATOM      8  C   UNL     1      10.268   3.312  23.942  0.00  0.00    -0.008 A 
ATOM      9  C   UNL     1      11.434   3.646  23.259  0.00  0.00    +0.029 A 
ATOM     10  C   UNL     1      11.795   4.985  23.198  0.00  0.00    +0.042 A 
ATOM     11 CL   UNL     1      13.234   5.448  22.374  0.00  0.00    -0.084 Cl
ATOM     12  C   UNL     1      10.993   5.962  23.793  0.00  0.00    +0.020 A 
ATOM     13  C   UNL     1       9.821   5.609  24.483  0.00  0.00    +0.010 A 
ATOM     14  C   UNL     1       9.452   4.274  24.591  0.00  0.00    -0.009 A 
ATOM     15  C   UNL     1      10.039   0.884  23.513  0.00  0.00    +0.017 C 
ATOM     16  C   UNL     1       8.315   3.595  25.278  0.00  0.00    -0.004 A 
ENDROOT
BRANCH  15  17
ATOM     17  C   UNL     1       9.353  -0.405  23.584  0.00  0.00    -0.024 A 
ATOM     18  C   UNL     1       8.385  -0.734  22.630  0.00  0.00    +0.009 A 
ATOM     19  C   UNL     1       7.916  -2.047  22.541  0.00  0.00    +0.020 A 
ATOM     20  C   UNL     1       8.397  -3.015  23.425  0.00  0.00    +0.041 A 
ATOM     21 CL   UNL     1       7.903  -4.652  23.240  0.00  0.00    -0.084 Cl
ATOM     22  C   UNL     1       9.309  -2.677  24.423  0.00  0.00    +0.020 A 
ATOM     23  C   UNL     1       9.788  -1.368  24.505  0.00  0.00    +0.009 A 
ENDBRANCH  15  17
BRANCH   1  24
ATOM     24  C   UNL     1       6.983   5.465  26.503  0.00  0.00    +0.159 C 
BRANCH  24  25
ATOM     25  O   UNL     1       6.210   5.440  27.695  0.00  0.00    -0.386 OA
ATOM     26  H   UNL     1       6.839   5.409  28.435  0.00  0.00    +0.210 HD
ENDBRANCH  24  25
BRANCH  24  27
ATOM     27  C   UNL     1       6.357   6.304  25.353  0.00  0.00    +0.120 C 
BRANCH  27  28
ATOM     28  N   UNL     1       5.639   5.536  24.294  0.00  0.00    -0.300 NA
BRANCH  28  29
ATOM     29  C   UNL     1       4.176   5.775  24.438  0.00  0.00    +0.084 C 
BRANCH  29  30
ATOM     30  C   UNL     1       3.319   4.660  25.057  0.00  0.00    +0.015 C 
BRANCH  30  32
ATOM     31  C   UNL     1       2.838   3.382  22.958  0.00  0.00    +0.004 C 
ATOM     32  C   UNL     1       3.447   3.312  24.351  0.00  0.00    -0.002 C 
ENDBRANCH  30  32
ENDBRANCH  29  30
ENDBRANCH  28  29
BRANCH  28  33
ATOM     33  C   UNL     1       6.099   5.985  22.955  0.00  0.00    +0.084 C 
BRANCH  33  34
ATOM     34  C   UNL     1       6.952   4.992  22.144  0.00  0.00    +0.015 C 
BRANCH  34  35
ATOM     35  C   UNL     1       6.468   3.544  22.226  0.00  0.00    -0.002 C 
ATOM     36  C   UNL     1       7.432   2.618  21.495  0.00  0.00    +0.004 C 
ENDBRANCH  34  35
ENDBRANCH  33  34
ENDBRANCH  28  33
ENDBRANCH  27  28
ENDBRANCH  24  27
ENDBRANCH   1  24
TORSDOF 11
ENDMDL
MODEL 3
REMARK VINA RESULT:      -6.2      4.099      8.095
REMARK  Name = 
REMARK  13 active torsions:
REMARK  status: ('A' for Active; 'I' for Inactive)
REMARK    1  A    between atoms: C_1  and  C_2
REMARK    2  A    between atoms: C_2  and  C_3
REMARK    3  A    between atoms: C_3  and  C_4
REMARK    4  A    between atoms: C_4  and  N_5
REMARK    5  A    between atoms: N_5  and  C_6
REMARK    6  A    between atoms: N_5  and  C_10
REMARK    7  A    between atoms: C_6  and  C_7
REMARK    8  A    between atoms: C_7  and  C_8
REMARK    9  A    between atoms: C_8  and  C_9
REMARK   10  A    between atoms: C_10  and  C_11
REMARK   11  A    between atoms: C_11  and  O_12
REMARK   12  A    between atoms: C_11  and  C_13
REMARK   13  A    between atoms: C_21  and  C_22
REMARK                            x       y       z     vdW  Elec       q    Type
REMARK                         _______ _______ _______ _____ _____    ______ ____
ROOT
ATOM      1  C   UNL     1       7.394   3.575  25.827  0.00  0.00    -0.008 A 
ATOM      2  C   UNL     1       6.539   2.509  26.220  0.00  0.00    +0.026 A 
ATOM      3  C   UNL     1       6.784   1.188  25.858  0.00  0.00    +0.042 A 
ATOM      4 CL   UNL     1       5.725  -0.059  26.386  0.00  0.00    -0.084 Cl
ATOM      5  C   UNL     1       7.891   0.879  25.090  0.00  0.00    +0.029 A 
ATOM      6  C   UNL     1       8.724   1.898  24.660  0.00  0.00    -0.008 A 
ATOM      7  C   UNL     1       9.944   1.855  23.810  0.00  0.00    -0.009 C 
ATOM      8  C   UNL     1      10.508   3.220  23.735  0.00  0.00    -0.008 A 
ATOM      9  C   UNL     1      11.666   3.686  23.118  0.00  0.00    +0.029 A 
ATOM     10  C   UNL     1      11.934   5.047  23.173  0.00  0.00    +0.042 A 
ATOM     11 CL   UNL     1      13.358   5.671  22.435  0.00  0.00    -0.084 Cl
ATOM     12  C   UNL     1      11.050   5.917  23.816  0.00  0.00    +0.020 A 
ATOM     13  C   UNL     1       9.887   5.431  24.438  0.00  0.00    +0.010 A 
ATOM     14  C   UNL     1       9.609   4.070  24.430  0.00  0.00    -0.009 A 
ATOM     15  C   UNL     1      10.461   0.824  23.112  0.00  0.00    +0.017 C 
ATOM     16  C   UNL     1       8.505   3.263  25.025  0.00  0.00    -0.004 A 
ENDROOT
BRANCH  15  17
ATOM     17  C   UNL     1       9.866  -0.510  23.060  0.00  0.00    -0.024 A 
ATOM     18  C   UNL     1      10.193  -1.457  24.036  0.00  0.00    +0.009 A 
ATOM     19  C   UNL     1       9.445  -2.632  24.140  0.00  0.00    +0.020 A 
ATOM     20  C   UNL     1       8.392  -2.864  23.252  0.00  0.00    +0.041 A 
ATOM     21 CL   UNL     1       7.402  -4.255  23.455  0.00  0.00    -0.084 Cl
ATOM     22  C   UNL     1       8.106  -1.955  22.235  0.00  0.00    +0.020 A 
ATOM     23  C   UNL     1       8.846  -0.775  22.136  0.00  0.00    +0.009 A 
ENDBRANCH  15  17
BRANCH   1  24
ATOM     24  C   UNL     1       7.013   4.935  26.347  0.00  0.00    +0.159 C 
BRANCH  24  25
ATOM     25  O   UNL     1       7.568   5.091  27.647  0.00  0.00    -0.386 OA
ATOM     26  H   UNL     1       7.198   5.912  28.012  0.00  0.00    +0.210 HD
ENDBRANCH  24  25
BRANCH  24  27
ATOM     27  C   UNL     1       5.479   5.179  26.276  0.00  0.00    +0.120 C 
BRANCH  27  28
ATOM     28  N   UNL     1       5.009   6.090  25.191  0.00  0.00    -0.300 NA
BRANCH  28  29
ATOM     29  C   UNL     1       6.127   6.312  24.234  0.00  0.00    +0.084 C 
BRANCH  29  30
ATOM     30  C   UNL     1       5.947   5.828  22.786  0.00  0.00    +0.015 C 
BRANCH  30  32
ATOM     31  C   UNL     1       6.825   3.637  21.949  0.00  0.00    +0.004 C 
ATOM     32  C   UNL     1       7.161   5.096  22.219  0.00  0.00    -0.002 C 
ENDBRANCH  30  32
ENDBRANCH  29  30
ENDBRANCH  28  29
BRANCH  28  33
ATOM     33  C   UNL     1       3.853   5.473  24.488  0.00  0.00    +0.084 C 
BRANCH  33  34
ATOM     34  C   UNL     1       3.472   4.040  24.904  0.00  0.00    +0.015 C 
BRANCH  34  35
ATOM     35  C   UNL     1       3.775   2.983  23.841  0.00  0.00    -0.002 C 
ATOM     36  C   UNL     1       3.123   3.358  22.516  0.00  0.00    +0.004 C 
ENDBRANCH  34  35
ENDBRANCH  33  34
ENDBRANCH  28  33
ENDBRANCH  27  28
ENDBRANCH  24  27
ENDBRANCH   1  24
TORSDOF 11
ENDMDL
MODEL 4
REMARK VINA RESULT:      -6.0      0.604      2.354
REMARK  Name = 
REMARK  13 active torsions:
REMARK  status: ('A' for Active; 'I' for Inactive)
REMARK    1  A    between atoms: C_1  and  C_2
REMARK    2  A    between atoms: C_2  and  C_3
REMARK    3  A    between atoms: C_3  and  C_4
REMARK    4  A    between atoms: C_4  and  N_5
REMARK    5  A    between atoms: N_5  and  C_6
REMARK    6  A    between atoms: N_5  and  C_10
REMARK    7  A    between atoms: C_6  and  C_7
REMARK    8  A    between atoms: C_7  and  C_8
REMARK    9  A    between atoms: C_8  and  C_9
REMARK   10  A    between atoms: C_10  and  C_11
REMARK   11  A    between atoms: C_11  and  O_12
REMARK   12  A    between atoms: C_11  and  C_13
REMARK   13  A    between atoms: C_21  and  C_22
REMARK                            x       y       z     vdW  Elec       q    Type
REMARK                         _______ _______ _______ _____ _____    ______ ____
ROOT
ATOM      1  C   UNL     1       5.108  -1.096  25.837  0.00  0.00    -0.008 A 
ATOM      2  C   UNL     1       5.485   0.174  26.352  0.00  0.00    +0.026 A 
ATOM      3  C   UNL     1       6.500   0.936  25.781  0.00  0.00    +0.042 A 
ATOM      4 CL   UNL     1       6.891   2.476  26.436  0.00  0.00    -0.084 Cl
ATOM      5  C   UNL     1       7.178   0.461  24.675  0.00  0.00    +0.029 A 
ATOM      6  C   UNL     1       6.861  -0.789  24.170  0.00  0.00    -0.008 A 
ATOM      7  C   UNL     1       7.443  -1.548  23.031  0.00  0.00    -0.009 C 
ATOM      8  C   UNL     1       6.669  -2.797  22.858  0.00  0.00    -0.008 A 
ATOM      9  C   UNL     1       6.781  -3.803  21.903  0.00  0.00    +0.029 A 
ATOM     10  C   UNL     1       5.937  -4.900  22.007  0.00  0.00    +0.042 A 
ATOM     11 CL   UNL     1       6.028  -6.166  20.845  0.00  0.00    -0.084 Cl
ATOM     12  C   UNL     1       5.019  -4.990  23.057  0.00  0.00    +0.020 A 
ATOM     13  C   UNL     1       4.916  -3.964  24.012  0.00  0.00    +0.010 A 
ATOM     14  C   UNL     1       5.722  -2.836  23.914  0.00  0.00    -0.009 A 
ATOM     15  C   UNL     1       8.538  -1.273  22.294  0.00  0.00    +0.017 C 
ATOM     16  C   UNL     1       5.815  -1.590  24.728  0.00  0.00    -0.004 A 
ENDROOT
BRANCH  15  17
ATOM     17  C   UNL     1       9.400  -0.113  22.511  0.00  0.00    -0.024 A 
ATOM     18  C   UNL     1       9.280   1.010  21.686  0.00  0.00    +0.009 A 
ATOM     19  C   UNL     1       9.912   2.203  22.041  0.00  0.00    +0.020 A 
ATOM     20  C   UNL     1      10.683   2.259  23.205  0.00  0.00    +0.041 A 
ATOM     21 CL   UNL     1      11.366   3.758  23.700  0.00  0.00    -0.084 Cl
ATOM     22  C   UNL     1      10.863   1.124  23.993  0.00  0.00    +0.020 A 
ATOM     23  C   UNL     1      10.222  -0.066  23.646  0.00  0.00    +0.009 A 
ENDBRANCH  15  17
BRANCH   1  24
ATOM     24  C   UNL     1       3.957  -1.764  26.540  0.00  0.00    +0.159 C 
BRANCH  24  25
ATOM     25  O   UNL     1       2.928  -0.802  26.731  0.00  0.00    -0.386 OA
ATOM     26  H   UNL     1       2.241  -0.994  26.072  0.00  0.00    +0.210 HD
ENDBRANCH  24  25
BRANCH  24  27
ATOM     27  C   UNL     1       4.408  -2.483  27.843  0.00  0.00    +0.120 C 
BRANCH  27  28
ATOM     28  N   UNL     1       3.961  -3.899  28.000  0.00  0.00    -0.300 NA
BRANCH  28  29
ATOM     29  C   UNL     1       2.900  -4.180  26.994  0.00  0.00    +0.084 C 
BRANCH  29  30
ATOM     30  C   UNL     1       2.351  -5.613  26.905  0.00  0.00    +0.015 C 
BRANCH  30  32
ATOM     31  C   UNL     1       3.533  -7.320  25.504  0.00  0.00    +0.004 C 
ATOM     32  C   UNL     1       2.463  -6.237  25.515  0.00  0.00    -0.002 C 
ENDBRANCH  30  32
ENDBRANCH  29  30
ENDBRANCH  28  29
BRANCH  28  33
ATOM     33  C   UNL     1       5.115  -4.811  27.791  0.00  0.00    +0.084 C 
BRANCH  33  34
ATOM     34  C   UNL     1       6.449  -4.161  27.382  0.00  0.00    +0.015 C 
BRANCH  34  35
ATOM     35  C   UNL     1       7.357  -5.070  26.553  0.00  0.00    -0.002 C 
ATOM     36  C   UNL     1       8.451  -4.256  25.875  0.00  0.00    +0.004 C 
ENDBRANCH  34  35
ENDBRANCH  33  34
ENDBRANCH  28  33
ENDBRANCH  27  28
ENDBRANCH  24  27
ENDBRANCH   1  24
TORSDOF 11
ENDMDL
MODEL 5
REMARK VINA RESULT:      -5.8      2.539      4.951
REMARK  Name = 
REMARK  13 active torsions:
REMARK  status: ('A' for Active; 'I' for Inactive)
REMARK    1  A    between atoms: C_1  and  C_2
REMARK    2  A    between atoms: C_2  and  C_3
REMARK    3  A    between atoms: C_3  and  C_4
REMARK    4  A    between atoms: C_4  and  N_5
REMARK    5  A    between atoms: N_5  and  C_6
REMARK    6  A    between atoms: N_5  and  C_10
REMARK    7  A    between atoms: C_6  and  C_7
REMARK    8  A    between atoms: C_7  and  C_8
REMARK    9  A    between atoms: C_8  and  C_9
REMARK   10  A    between atoms: C_10  and  C_11
REMARK   11  A    between atoms: C_11  and  O_12
REMARK   12  A    between atoms: C_11  and  C_13
REMARK   13  A    between atoms: C_21  and  C_22
REMARK                            x       y       z     vdW  Elec       q    Type
REMARK                         _______ _______ _______ _____ _____    ______ ____
ROOT
ATOM      1  C   UNL     1       6.776  -4.108  26.634  0.00  0.00    -0.008 A 
ATOM      2  C   UNL     1       7.913  -4.153  25.780  0.00  0.00    +0.026 A 
ATOM      3  C   UNL     1       8.427  -3.014  25.168  0.00  0.00    +0.042 A 
ATOM      4 CL   UNL     1       9.820  -3.132  24.167  0.00  0.00    -0.084 Cl
ATOM      5  C   UNL     1       7.829  -1.787  25.383  0.00  0.00    +0.029 A 
ATOM      6  C   UNL     1       6.699  -1.714  26.179  0.00  0.00    -0.008 A 
ATOM      7  C   UNL     1       5.849  -0.550  26.546  0.00  0.00    -0.009 C 
ATOM      8  C   UNL     1       4.819  -1.008  27.504  0.00  0.00    -0.008 A 
ATOM      9  C   UNL     1       3.834  -0.294  28.181  0.00  0.00    +0.029 A 
ATOM     10  C   UNL     1       2.963  -0.998  29.001  0.00  0.00    +0.042 A 
ATOM     11 CL   UNL     1       1.735  -0.159  29.868  0.00  0.00    -0.084 Cl
ATOM     12  C   UNL     1       3.069  -2.386  29.121  0.00  0.00    +0.020 A 
ATOM     13  C   UNL     1       4.071  -3.092  28.433  0.00  0.00    +0.010 A 
ATOM     14  C   UNL     1       4.980  -2.412  27.633  0.00  0.00    -0.009 A 
ATOM     15  C   UNL     1       5.875   0.710  26.067  0.00  0.00    +0.017 C 
ATOM     16  C   UNL     1       6.153  -2.865  26.831  0.00  0.00    -0.004 A 
ENDROOT
BRANCH  15  17
ATOM     17  C   UNL     1       6.797   1.172  25.030  0.00  0.00    -0.024 A 
ATOM     18  C   UNL     1       8.034   1.716  25.390  0.00  0.00    +0.009 A 
ATOM     19  C   UNL     1       9.011   1.921  24.414  0.00  0.00    +0.020 A 
ATOM     20  C   UNL     1       8.736   1.606  23.081  0.00  0.00    +0.041 A 
ATOM     21 CL   UNL     1       9.979   1.751  21.901  0.00  0.00    -0.084 Cl
ATOM     22  C   UNL     1       7.481   1.129  22.708  0.00  0.00    +0.020 A 
ATOM     23  C   UNL     1       6.507   0.913  23.684  0.00  0.00    +0.009 A 
ENDBRANCH  15  17
BRANCH   1  24
ATOM     24  C   UNL     1       6.382  -5.421  27.255  0.00  0.00    +0.159 C 
BRANCH  24  25
ATOM     25  O   UNL     1       7.553  -6.047  27.764  0.00  0.00    -0.386 OA
ATOM     26  H   UNL     1       7.282  -6.922  28.088  0.00  0.00    +0.210 HD
ENDBRANCH  24  25
BRANCH  24  27
ATOM     27  C   UNL     1       5.560  -6.307  26.276  0.00  0.00    +0.120 C 
BRANCH  27  28
ATOM     28  N   UNL     1       4.561  -5.593  25.426  0.00  0.00    -0.300 NA
BRANCH  28  29
ATOM     29  C   UNL     1       4.672  -6.100  24.030  0.00  0.00    +0.084 C 
BRANCH  29  30
ATOM     30  C   UNL     1       5.137  -5.120  22.941  0.00  0.00    +0.015 C 
BRANCH  30  32
ATOM     31  C   UNL     1       5.879  -2.795  22.379  0.00  0.00    +0.004 C 
ATOM     32  C   UNL     1       5.101  -3.653  23.366  0.00  0.00    -0.002 C 
ENDBRANCH  30  32
ENDBRANCH  29  30
ENDBRANCH  28  29
BRANCH  28  33
ATOM     33  C   UNL     1       3.193  -5.842  25.950  0.00  0.00    +0.084 C 
BRANCH  33  34
ATOM     34  C   UNL     1       2.053  -5.002  25.345  0.00  0.00    +0.015 C 
BRANCH  34  35
ATOM     35  C   UNL     1       2.303  -3.494  25.385  0.00  0.00    -0.002 C 
ATOM     36  C   UNL     1       1.109  -2.773  25.997  0.00  0.00    +0.004 C 
ENDBRANCH  34  35
ENDBRANCH  33  34
ENDBRANCH  28  33
ENDBRANCH  27  28
ENDBRANCH  24  27
ENDBRANCH   1  24
TORSDOF 11
ENDMDL
MODEL 6
REMARK VINA RESULT:      -5.8      2.678      7.940
REMARK  Name = 
REMARK  13 active torsions:
REMARK  status: ('A' for Active; 'I' for Inactive)
REMARK    1  A    between atoms: C_1  and  C_2
REMARK    2  A    between atoms: C_2  and  C_3
REMARK    3  A    between atoms: C_3  and  C_4
REMARK    4  A    between atoms: C_4  and  N_5
REMARK    5  A    between atoms: N_5  and  C_6
REMARK    6  A    between atoms: N_5  and  C_10
REMARK    7  A    between atoms: C_6  and  C_7
REMARK    8  A    between atoms: C_7  and  C_8
REMARK    9  A    between atoms: C_8  and  C_9
REMARK   10  A    between atoms: C_10  and  C_11
REMARK   11  A    between atoms: C_11  and  O_12
REMARK   12  A    between atoms: C_11  and  C_13
REMARK   13  A    between atoms: C_21  and  C_22
REMARK                            x       y       z     vdW  Elec       q    Type
REMARK                         _______ _______ _______ _____ _____    ______ ____
ROOT
ATOM      1  C   UNL     1       5.653  -3.529  23.505  0.00  0.00    -0.008 A 
ATOM      2  C   UNL     1       5.267  -4.896  23.569  0.00  0.00    +0.026 A 
ATOM      3  C   UNL     1       4.601  -5.429  24.668  0.00  0.00    +0.042 A 
ATOM      4 CL   UNL     1       4.138  -7.085  24.673  0.00  0.00    -0.084 Cl
ATOM      5  C   UNL     1       4.296  -4.621  25.746  0.00  0.00    +0.029 A 
ATOM      6  C   UNL     1       4.690  -3.294  25.732  0.00  0.00    -0.008 A 
ATOM      7  C   UNL     1       4.526  -2.226  26.755  0.00  0.00    -0.009 C 
ATOM      8  C   UNL     1       5.046  -0.959  26.193  0.00  0.00    -0.008 A 
ATOM      9  C   UNL     1       5.064   0.325  26.729  0.00  0.00    +0.029 A 
ATOM     10  C   UNL     1       5.662   1.335  25.987  0.00  0.00    +0.042 A 
ATOM     11 CL   UNL     1       5.700   2.943  26.601  0.00  0.00    -0.084 Cl
ATOM     12  C   UNL     1       6.244   1.053  24.749  0.00  0.00    +0.020 A 
ATOM     13  C   UNL     1       6.216  -0.249  24.220  0.00  0.00    +0.010 A 
ATOM     14  C   UNL     1       5.593  -1.273  24.922  0.00  0.00    -0.009 A 
ATOM     15  C   UNL     1       4.085  -2.321  28.025  0.00  0.00    +0.017 C 
ATOM     16  C   UNL     1       5.365  -2.714  24.612  0.00  0.00    -0.004 A 
ENDROOT
BRANCH  15  17
ATOM     17  C   UNL     1       3.677  -3.575  28.657  0.00  0.00    -0.024 A 
ATOM     18  C   UNL     1       2.346  -3.996  28.575  0.00  0.00    +0.009 A 
ATOM     19  C   UNL     1       2.006  -5.298  28.950  0.00  0.00    +0.020 A 
ATOM     20  C   UNL     1       2.995  -6.161  29.430  0.00  0.00    +0.041 A 
ATOM     21 CL   UNL     1       2.595  -7.795  29.783  0.00  0.00    -0.084 Cl
ATOM     22  C   UNL     1       4.309  -5.723  29.579  0.00  0.00    +0.020 A 
ATOM     23  C   UNL     1       4.653  -4.426  29.194  0.00  0.00    +0.009 A 
ENDBRANCH  15  17
BRANCH   1  24
ATOM     24  C   UNL     1       6.318  -3.104  22.223  0.00  0.00    +0.159 C 
BRANCH  24  25
ATOM     25  O   UNL     1       5.684  -3.778  21.144  0.00  0.00    -0.386 OA
ATOM     26  H   UNL     1       6.375  -3.964  20.487  0.00  0.00    +0.210 HD
ENDBRANCH  24  25
BRANCH  24  27
ATOM     27  C   UNL     1       7.861  -3.293  22.275  0.00  0.00    +0.120 C 
BRANCH  27  28
ATOM     28  N   UNL     1       8.635  -2.199  22.933  0.00  0.00    -0.300 NA
BRANCH  28  29
ATOM     29  C   UNL     1       9.472  -2.789  24.014  0.00  0.00    +0.084 C 
BRANCH  29  30
ATOM     30  C   UNL     1       8.934  -4.026  24.751  0.00  0.00    +0.015 C 
BRANCH  30  32
ATOM     31  C   UNL     1       7.835  -4.987  26.785  0.00  0.00    +0.004 C 
ATOM     32  C   UNL     1       8.497  -3.753  26.188  0.00  0.00    -0.002 C 
ENDBRANCH  30  32
ENDBRANCH  29  30
ENDBRANCH  28  29
BRANCH  28  33
ATOM     33  C   UNL     1       9.500  -1.528  21.929  0.00  0.00    +0.084 C 
BRANCH  33  34
ATOM     34  C   UNL     1       9.844  -0.050  22.186  0.00  0.00    +0.015 C 
BRANCH  34  35
ATOM     35  C   UNL     1       8.929   0.938  21.461  0.00  0.00    -0.002 C 
ATOM     36  C   UNL     1       8.828   2.243  22.241  0.00  0.00    +0.004 C 
ENDBRANCH  34  35
ENDBRANCH  33  34
ENDBRANCH  28  33
ENDBRANCH  27  28
ENDBRANCH  24  27
ENDBRANCH   1  24
TORSDOF 11
ENDMDL
MODEL 7
REMARK VINA RESULT:      -5.4      3.109      6.437
REMARK  Name = 
REMARK  13 active torsions:
REMARK  status: ('A' for Active; 'I' for Inactive)
REMARK    1  A    between atoms: C_1  and  C_2
REMARK    2  A    between atoms: C_2  and  C_3
REMARK    3  A    between atoms: C_3  and  C_4
REMARK    4  A    between atoms: C_4  and  N_5
REMARK    5  A    between atoms: N_5  and  C_6
REMARK    6  A    between atoms: N_5  and  C_10
REMARK    7  A    between atoms: C_6  and  C_7
REMARK    8  A    between atoms: C_7  and  C_8
REMARK    9  A    between atoms: C_8  and  C_9
REMARK   10  A    between atoms: C_10  and  C_11
REMARK   11  A    between atoms: C_11  and  O_12
REMARK   12  A    between atoms: C_11  and  C_13
REMARK   13  A    between atoms: C_21  and  C_22
REMARK                            x       y       z     vdW  Elec       q    Type
REMARK                         _______ _______ _______ _____ _____    ______ ____
ROOT
ATOM      1  C   UNL     1       9.133   0.396  25.164  0.00  0.00    -0.008 A 
ATOM      2  C   UNL     1       9.047   1.812  25.061  0.00  0.00    +0.026 A 
ATOM      3  C   UNL     1       7.983   2.532  25.594  0.00  0.00    +0.042 A 
ATOM      4 CL   UNL     1       7.952   4.246  25.458  0.00  0.00    -0.084 Cl
ATOM      5  C   UNL     1       6.963   1.870  26.250  0.00  0.00    +0.029 A 
ATOM      6  C   UNL     1       6.997   0.489  26.336  0.00  0.00    -0.008 A 
ATOM      7  C   UNL     1       6.031  -0.466  26.945  0.00  0.00    -0.009 C 
ATOM      8  C   UNL     1       6.598  -1.828  26.846  0.00  0.00    -0.008 A 
ATOM      9  C   UNL     1       6.112  -3.045  27.318  0.00  0.00    +0.029 A 
ATOM     10  C   UNL     1       6.843  -4.192  27.042  0.00  0.00    +0.042 A 
ATOM     11 CL   UNL     1       6.290  -5.719  27.613  0.00  0.00    -0.084 Cl
ATOM     12  C   UNL     1       8.022  -4.118  26.294  0.00  0.00    +0.020 A 
ATOM     13  C   UNL     1       8.501  -2.883  25.828  0.00  0.00    +0.010 A 
ATOM     14  C   UNL     1       7.811  -1.712  26.118  0.00  0.00    -0.009 A 
ATOM     15  C   UNL     1       4.797  -0.235  27.433  0.00  0.00    +0.017 C 
ATOM     16  C   UNL     1       8.083  -0.279  25.809  0.00  0.00    -0.004 A 
ENDROOT
BRANCH  15  17
ATOM     17  C   UNL     1       4.151   1.077  27.438  0.00  0.00    -0.024 A 
ATOM     18  C   UNL     1       4.308   1.928  28.537  0.00  0.00    +0.009 A 
ATOM     19  C   UNL     1       3.912   3.264  28.442  0.00  0.00    +0.020 A 
ATOM     20  C   UNL     1       3.338   3.734  27.258  0.00  0.00    +0.041 A 
ATOM     21 CL   UNL     1       2.957   5.404  27.105  0.00  0.00    -0.084 Cl
ATOM     22  C   UNL     1       3.115   2.873  26.186  0.00  0.00    +0.020 A 
ATOM     23  C   UNL     1       3.521   1.540  26.274  0.00  0.00    +0.009 A 
ENDBRANCH  15  17
BRANCH   1  24
ATOM     24  C   UNL     1      10.374  -0.221  24.579  0.00  0.00    +0.159 C 
BRANCH  24  25
ATOM     25  O   UNL     1      11.374   0.785  24.483  0.00  0.00    -0.386 OA
ATOM     26  H   UNL     1      11.317   1.313  25.297  0.00  0.00    +0.210 HD
ENDBRANCH  24  25
BRANCH  24  27
ATOM     27  C   UNL     1      10.084  -0.961  23.242  0.00  0.00    +0.120 C 
BRANCH  27  28
ATOM     28  N   UNL     1       8.774  -0.657  22.593  0.00  0.00    -0.300 NA
BRANCH  28  29
ATOM     29  C   UNL     1       9.024   0.144  21.364  0.00  0.00    +0.084 C 
BRANCH  29  30
ATOM     30  C   UNL     1       8.698   1.646  21.401  0.00  0.00    +0.015 C 
BRANCH  30  32
ATOM     31  C   UNL     1       7.104   3.471  22.034  0.00  0.00    +0.004 C 
ATOM     32  C   UNL     1       7.295   1.966  21.915  0.00  0.00    -0.002 C 
ENDBRANCH  30  32
ENDBRANCH  29  30
ENDBRANCH  28  29
BRANCH  28  33
ATOM     33  C   UNL     1       8.086  -1.926  22.243  0.00  0.00    +0.084 C 
BRANCH  33  34
ATOM     34  C   UNL     1       6.605  -2.048  22.648  0.00  0.00    +0.015 C 
BRANCH  34  35
ATOM     35  C   UNL     1       6.184  -3.463  23.047  0.00  0.00    -0.002 C 
ATOM     36  C   UNL     1       4.909  -3.424  23.880  0.00  0.00    +0.004 C 
ENDBRANCH  34  35
ENDBRANCH  33  34
ENDBRANCH  28  33
ENDBRANCH  27  28
ENDBRANCH  24  27
ENDBRANCH   1  24
TORSDOF 11
ENDMDL
MODEL 8
REMARK VINA RESULT:      -5.2      2.854      8.334
REMARK  Name = 
REMARK  13 active torsions:
REMARK  status: ('A' for Active; 'I' for Inactive)
REMARK    1  A    between atoms: C_1  and  C_2
REMARK    2  A    between atoms: C_2  and  C_3
REMARK    3  A    between atoms: C_3  and  C_4
REMARK    4  A    between atoms: C_4  and  N_5
REMARK    5  A    between atoms: N_5  and  C_6
REMARK    6  A    between atoms: N_5  and  C_10
REMARK    7  A    between atoms: C_6  and  C_7
REMARK    8  A    between atoms: C_7  and  C_8
REMARK    9  A    between atoms: C_8  and  C_9
REMARK   10  A    between atoms: C_10  and  C_11
REMARK   11  A    between atoms: C_11  and  O_12
REMARK   12  A    between atoms: C_11  and  C_13
REMARK   13  A    between atoms: C_21  and  C_22
REMARK                            x       y       z     vdW  Elec       q    Type
REMARK                         _______ _______ _______ _____ _____    ______ ____
ROOT
ATOM      1  C   UNL     1       7.049  -3.515  24.607  0.00  0.00    -0.008 A 
ATOM      2  C   UNL     1       7.108  -4.537  23.620  0.00  0.00    +0.026 A 
ATOM      3  C   UNL     1       5.972  -5.205  23.173  0.00  0.00    +0.042 A 
ATOM      4 CL   UNL     1       6.107  -6.412  21.957  0.00  0.00    -0.084 Cl
ATOM      5  C   UNL     1       4.733  -4.881  23.693  0.00  0.00    +0.029 A 
ATOM      6  C   UNL     1       4.645  -3.917  24.683  0.00  0.00    -0.008 A 
ATOM      7  C   UNL     1       3.465  -3.405  25.432  0.00  0.00    -0.009 C 
ATOM      8  C   UNL     1       3.914  -2.305  26.313  0.00  0.00    -0.008 A 
ATOM      9  C   UNL     1       3.186  -1.473  27.159  0.00  0.00    +0.029 A 
ATOM     10  C   UNL     1       3.882  -0.537  27.913  0.00  0.00    +0.042 A 
ATOM     11 CL   UNL     1       3.027   0.523  28.965  0.00  0.00    -0.084 Cl
ATOM     12  C   UNL     1       5.275  -0.456  27.830  0.00  0.00    +0.020 A 
ATOM     13  C   UNL     1       5.995  -1.301  26.968  0.00  0.00    +0.010 A 
ATOM     14  C   UNL     1       5.324  -2.223  26.175  0.00  0.00    -0.009 A 
ATOM     15  C   UNL     1       2.198  -3.864  25.443  0.00  0.00    +0.017 C 
ATOM     16  C   UNL     1       5.793  -3.205  25.155  0.00  0.00    -0.004 A 
ENDROOT
BRANCH  15  17
ATOM     17  C   UNL     1       1.741  -5.024  24.680  0.00  0.00    -0.024 A 
ATOM     18  C   UNL     1       1.201  -4.850  23.402  0.00  0.00    +0.009 A 
ATOM     19  C   UNL     1       1.001  -5.959  22.576  0.00  0.00    +0.020 A 
ATOM     20  C   UNL     1       1.318  -7.237  23.043  0.00  0.00    +0.041 A 
ATOM     21 CL   UNL     1       1.179  -8.585  21.985  0.00  0.00    -0.084 Cl
ATOM     22  C   UNL     1       1.791  -7.422  24.341  0.00  0.00    +0.020 A 
ATOM     23  C   UNL     1       2.002  -6.314  25.164  0.00  0.00    +0.009 A 
ENDBRANCH  15  17
BRANCH   1  24
ATOM     24  C   UNL     1       8.362  -2.860  24.939  0.00  0.00    +0.159 C 
BRANCH  24  25
ATOM     25  O   UNL     1       8.615  -3.037  26.326  0.00  0.00    -0.386 OA
ATOM     26  H   UNL     1       8.798  -2.155  26.691  0.00  0.00    +0.210 HD
ENDBRANCH  24  25
BRANCH  24  27
ATOM     27  C   UNL     1       8.412  -1.379  24.466  0.00  0.00    +0.120 C 
BRANCH  27  28
ATOM     28  N   UNL     1       8.295  -1.156  22.994  0.00  0.00    -0.300 NA
BRANCH  28  29
ATOM     29  C   UNL     1       7.151  -0.238  22.739  0.00  0.00    +0.084 C 
BRANCH  29  30
ATOM     30  C   UNL     1       6.482   0.436  23.947  0.00  0.00    +0.015 C 
BRANCH  30  32
ATOM     31  C   UNL     1       6.291   2.505  22.548  0.00  0.00    +0.004 C 
ATOM     32  C   UNL     1       6.576   1.961  23.941  0.00  0.00    -0.002 C 
ENDBRANCH  30  32
ENDBRANCH  29  30
ENDBRANCH  28  29
BRANCH  28  33
ATOM     33  C   UNL     1       9.553  -0.555  22.480  0.00  0.00    +0.084 C 
BRANCH  33  34
ATOM     34  C   UNL     1       9.415   0.705  21.607  0.00  0.00    +0.015 C 
BRANCH  34  35
ATOM     35  C   UNL     1      10.147   1.929  22.161  0.00  0.00    -0.002 C 
ATOM     36  C   UNL     1      10.285   1.827  23.675  0.00  0.00    +0.004 C 
ENDBRANCH  34  35
ENDBRANCH  33  34
ENDBRANCH  28  33
ENDBRANCH  27  28
ENDBRANCH  24  27
ENDBRANCH   1  24
TORSDOF 11
ENDMDL
MODEL 9
REMARK VINA RESULT:      -5.1      2.915      5.194
REMARK  Name = 
REMARK  13 active torsions:
REMARK  status: ('A' for Active; 'I' for Inactive)
REMARK    1  A    between atoms: C_1  and  C_2
REMARK    2  A    between atoms: C_2  and  C_3
REMARK    3  A    between atoms: C_3  and  C_4
REMARK    4  A    between atoms: C_4  and  N_5
REMARK    5  A    between atoms: N_5  and  C_6
REMARK    6  A    between atoms: N_5  and  C_10
REMARK    7  A    between atoms: C_6  and  C_7
REMARK    8  A    between atoms: C_7  and  C_8
REMARK    9  A    between atoms: C_8  and  C_9
REMARK   10  A    between atoms: C_10  and  C_11
REMARK   11  A    between atoms: C_11  and  O_12
REMARK   12  A    between atoms: C_11  and  C_13
REMARK   13  A    between atoms: C_21  and  C_22
REMARK                            x       y       z     vdW  Elec       q    Type
REMARK                         _______ _______ _______ _____ _____    ______ ____
ROOT
ATOM      1  C   UNL     1       8.050  -3.239  26.245  0.00  0.00    -0.008 A 
ATOM      2  C   UNL     1       9.068  -2.371  25.761  0.00  0.00    +0.026 A 
ATOM      3  C   UNL     1       8.937  -0.986  25.783  0.00  0.00    +0.042 A 
ATOM      4 CL   UNL     1      10.215   0.008  25.206  0.00  0.00    -0.084 Cl
ATOM      5  C   UNL     1       7.786  -0.412  26.289  0.00  0.00    +0.029 A 
ATOM      6  C   UNL     1       6.760  -1.229  26.735  0.00  0.00    -0.008 A 
ATOM      7  C   UNL     1       5.422  -0.885  27.286  0.00  0.00    -0.009 C 
ATOM      8  C   UNL     1       4.752  -2.138  27.699  0.00  0.00    -0.008 A 
ATOM      9  C   UNL     1       3.523  -2.343  28.319  0.00  0.00    +0.029 A 
ATOM     10  C   UNL     1       3.120  -3.650  28.556  0.00  0.00    +0.042 A 
ATOM     11 CL   UNL     1       1.613  -3.955  29.331  0.00  0.00    -0.084 Cl
ATOM     12  C   UNL     1       3.924  -4.722  28.160  0.00  0.00    +0.020 A 
ATOM     13  C   UNL     1       5.164  -4.499  27.538  0.00  0.00    +0.010 A 
ATOM     14  C   UNL     1       5.612  -3.202  27.319  0.00  0.00    -0.009 A 
ATOM     15  C   UNL     1       4.806   0.312  27.348  0.00  0.00    +0.017 C 
ATOM     16  C   UNL     1       6.870  -2.655  26.735  0.00  0.00    -0.004 A 
ENDROOT
BRANCH  15  17
ATOM     17  C   UNL     1       5.383   1.556  26.840  0.00  0.00    -0.024 A 
ATOM     18  C   UNL     1       6.186   2.343  27.671  0.00  0.00    +0.009 A 
ATOM     19  C   UNL     1       6.939   3.385  27.125  0.00  0.00    +0.020 A 
ATOM     20  C   UNL     1       6.864   3.650  25.756  0.00  0.00    +0.041 A 
ATOM     21 CL   UNL     1       7.877   4.857  25.069  0.00  0.00    -0.084 Cl
ATOM     22  C   UNL     1       6.012   2.913  24.935  0.00  0.00    +0.020 A 
ATOM     23  C   UNL     1       5.268   1.864  25.477  0.00  0.00    +0.009 A 
ENDBRANCH  15  17
BRANCH   1  24
ATOM     24  C   UNL     1       8.375  -4.707  26.195  0.00  0.00    +0.159 C 
BRANCH  24  25
ATOM     25  O   UNL     1       9.697  -4.892  26.682  0.00  0.00    -0.386 OA
ATOM     26  H   UNL     1       9.931  -5.819  26.508  0.00  0.00    +0.210 HD
ENDBRANCH  24  25
BRANCH  24  27
ATOM     27  C   UNL     1       8.123  -5.313  24.785  0.00  0.00    +0.120 C 
BRANCH  27  28
ATOM     28  N   UNL     1       7.005  -4.710  24.001  0.00  0.00    -0.300 NA
BRANCH  28  29
ATOM     29  C   UNL     1       7.568  -4.063  22.784  0.00  0.00    +0.084 C 
BRANCH  29  30
ATOM     30  C   UNL     1       6.767  -2.922  22.137  0.00  0.00    +0.015 C 
BRANCH  30  32
ATOM     31  C   UNL     1       7.204  -0.517  22.683  0.00  0.00    +0.004 C 
ATOM     32  C   UNL     1       6.443  -1.772  23.088  0.00  0.00    -0.002 C 
ENDBRANCH  30  32
ENDBRANCH  29  30
ENDBRANCH  28  29
BRANCH  28  33
ATOM     33  C   UNL     1       6.041  -5.772  23.612  0.00  0.00    +0.084 C 
BRANCH  33  34
ATOM     34  C   UNL     1       4.613  -5.654  24.176  0.00  0.00    +0.015 C 
BRANCH  34  35
ATOM     35  C   UNL     1       4.000  -4.261  24.030  0.00  0.00    -0.002 C 
ATOM     36  C   UNL     1       2.688  -4.174  24.800  0.00  0.00    +0.004 C 
ENDBRANCH  34  35
ENDBRANCH  33  34
ENDBRANCH  28  33
ENDBRANCH  27  28
ENDBRANCH  24  27
ENDBRANCH   1  24
TORSDOF 11
ENDMDL
