MODEL 1
REMARK VINA RESULT:      -2.4      0.000      0.000
REMARK  Name = 
REMARK  2 active torsions:
REMARK  status: ('A' for Active; 'I' for Inactive)
REMARK    1  A    between atoms: C_1  and  C_2
REMARK    2  A    between atoms: C_2  and  N_3
REMARK                            x       y       z     vdW  Elec       q    Type
REMARK                         _______ _______ _______ _____ _____    ______ ____
ROOT
ATOM      1  C   UNL     1      12.246   6.329  24.540  0.00  0.00    +0.032 C 
ATOM      2  C   UNL     1      12.364   5.323  23.413  0.00  0.00    +0.186 C 
ENDROOT
BRANCH   2   3
ATOM      3  N   UNL     1      13.790   5.173  23.006  0.00  0.00    -0.069 NA
ATOM      4  O   UNL     1      14.009   5.660  21.892  0.00  0.00    -0.149 OA
ENDBRANCH   2   3
TORSDOF 1
ENDMDL
MODEL 2
REMARK VINA RESULT:      -2.3      7.784      8.045
REMARK  Name = 
REMARK  2 active torsions:
REMARK  status: ('A' for Active; 'I' for Inactive)
REMARK    1  A    between atoms: C_1  and  C_2
REMARK    2  A    between atoms: C_2  and  N_3
REMARK                            x       y       z     vdW  Elec       q    Type
REMARK                         _______ _______ _______ _____ _____    ______ ____
ROOT
ATOM      1  C   UNL     1       9.433   0.082  21.477  0.00  0.00    +0.032 C 
ATOM      2  C   UNL     1       9.297  -1.382  21.846  0.00  0.00    +0.186 C 
ENDROOT
BRANCH   2   3
ATOM      3  N   UNL     1      10.526  -1.851  22.545  0.00  0.00    -0.069 NA
ATOM      4  O   UNL     1      10.269  -2.655  23.449  0.00  0.00    -0.149 OA
ENDBRANCH   2   3
TORSDOF 1
ENDMDL
MODEL 3
REMARK VINA RESULT:      -2.2     12.610     12.838
REMARK  Name = 
REMARK  2 active torsions:
REMARK  status: ('A' for Active; 'I' for Inactive)
REMARK    1  A    between atoms: C_1  and  C_2
REMARK    2  A    between atoms: C_2  and  N_3
REMARK                            x       y       z     vdW  Elec       q    Type
REMARK                         _______ _______ _______ _____ _____    ______ ____
ROOT
ATOM      1  C   UNL     1       7.270  -5.078  22.874  0.00  0.00    +0.032 C 
ATOM      2  C   UNL     1       6.933  -6.002  21.721  0.00  0.00    +0.186 C 
ENDROOT
BRANCH   2   3
ATOM      3  N   UNL     1       5.994  -5.326  20.781  0.00  0.00    -0.069 NA
ATOM      4  O   UNL     1       5.762  -4.159  21.114  0.00  0.00    -0.149 OA
ENDBRANCH   2   3
TORSDOF 1
ENDMDL
MODEL 4
REMARK VINA RESULT:      -2.1     10.220     10.418
REMARK  Name = 
REMARK  2 active torsions:
REMARK  status: ('A' for Active; 'I' for Inactive)
REMARK    1  A    between atoms: C_1  and  C_2
REMARK    2  A    between atoms: C_2  and  N_3
REMARK                            x       y       z     vdW  Elec       q    Type
REMARK                         _______ _______ _______ _____ _____    ______ ____
ROOT
ATOM      1  C   UNL     1       9.968  -2.262  23.709  0.00  0.00    +0.032 C 
ATOM      2  C   UNL     1       9.068  -3.382  24.191  0.00  0.00    +0.186 C 
ENDROOT
BRANCH   2   3
ATOM      3  N   UNL     1       9.888  -4.506  24.724  0.00  0.00    -0.069 NA
ATOM      4  O   UNL     1       9.364  -5.606  24.510  0.00  0.00    -0.149 OA
ENDBRANCH   2   3
TORSDOF 1
ENDMDL
MODEL 5
REMARK VINA RESULT:      -2.1     13.780     13.934
REMARK  Name = 
REMARK  2 active torsions:
REMARK  status: ('A' for Active; 'I' for Inactive)
REMARK    1  A    between atoms: C_1  and  C_2
REMARK    2  A    between atoms: C_2  and  N_3
REMARK                            x       y       z     vdW  Elec       q    Type
REMARK                         _______ _______ _______ _____ _____    ______ ____
ROOT
ATOM      1  C   UNL     1       5.386  -6.309  26.479  0.00  0.00    +0.032 C 
ATOM      2  C   UNL     1       6.639  -5.479  26.288  0.00  0.00    +0.186 C 
ENDROOT
BRANCH   2   3
ATOM      3  N   UNL     1       7.551  -5.651  27.454  0.00  0.00    -0.069 NA
ATOM      4  O   UNL     1       6.989  -6.206  28.405  0.00  0.00    -0.149 OA
ENDBRANCH   2   3
TORSDOF 1
ENDMDL
MODEL 6
REMARK VINA RESULT:      -2.1     11.032     11.220
REMARK  Name = 
REMARK  2 active torsions:
REMARK  status: ('A' for Active; 'I' for Inactive)
REMARK    1  A    between atoms: C_1  and  C_2
REMARK    2  A    between atoms: C_2  and  N_3
REMARK                            x       y       z     vdW  Elec       q    Type
REMARK                         _______ _______ _______ _____ _____    ______ ____
ROOT
ATOM      1  C   UNL     1       7.702  -5.098  25.775  0.00  0.00    +0.032 C 
ATOM      2  C   UNL     1       9.133  -4.791  26.166  0.00  0.00    +0.186 C 
ENDROOT
BRANCH   2   3
ATOM      3  N   UNL     1      10.017  -4.853  24.968  0.00  0.00    -0.069 NA
ATOM      4  O   UNL     1       9.967  -3.814  24.299  0.00  0.00    -0.149 OA
ENDBRANCH   2   3
TORSDOF 1
ENDMDL
MODEL 7
REMARK VINA RESULT:      -2.0      6.897      6.928
REMARK  Name = 
REMARK  2 active torsions:
REMARK  status: ('A' for Active; 'I' for Inactive)
REMARK    1  A    between atoms: C_1  and  C_2
REMARK    2  A    between atoms: C_2  and  N_3
REMARK                            x       y       z     vdW  Elec       q    Type
REMARK                         _______ _______ _______ _____ _____    ______ ____
ROOT
ATOM      1  C   UNL     1      10.606   0.455  24.928  0.00  0.00    +0.032 C 
ATOM      2  C   UNL     1      10.481   0.101  23.460  0.00  0.00    +0.186 C 
ENDROOT
BRANCH   2   3
ATOM      3  N   UNL     1      10.118  -1.337  23.309  0.00  0.00    -0.069 NA
ATOM      4  O   UNL     1      10.630  -1.843  22.305  0.00  0.00    -0.149 OA
ENDBRANCH   2   3
TORSDOF 1
ENDMDL
MODEL 8
REMARK VINA RESULT:      -2.0     12.523     12.706
REMARK  Name = 
REMARK  2 active torsions:
REMARK  status: ('A' for Active; 'I' for Inactive)
REMARK    1  A    between atoms: C_1  and  C_2
REMARK    2  A    between atoms: C_2  and  N_3
REMARK                            x       y       z     vdW  Elec       q    Type
REMARK                         _______ _______ _______ _____ _____    ______ ____
ROOT
ATOM      1  C   UNL     1       8.350  -4.509  24.608  0.00  0.00    +0.032 C 
ATOM      2  C   UNL     1       8.649  -5.356  25.828  0.00  0.00    +0.186 C 
ENDROOT
BRANCH   2   3
ATOM      3  N   UNL     1       7.379  -5.756  26.499  0.00  0.00    -0.069 NA
ATOM      4  O   UNL     1       7.479  -5.740  27.731  0.00  0.00    -0.149 OA
ENDBRANCH   2   3
TORSDOF 1
ENDMDL
MODEL 9
REMARK VINA RESULT:      -1.9      2.474      2.690
REMARK  Name = 
REMARK  2 active torsions:
REMARK  status: ('A' for Active; 'I' for Inactive)
REMARK    1  A    between atoms: C_1  and  C_2
REMARK    2  A    between atoms: C_2  and  N_3
REMARK                            x       y       z     vdW  Elec       q    Type
REMARK                         _______ _______ _______ _____ _____    ______ ____
ROOT
ATOM      1  C   UNL     1      13.227   5.509  22.304  0.00  0.00    +0.032 C 
ATOM      2  C   UNL     1      12.147   5.444  23.365  0.00  0.00    +0.186 C 
ENDROOT
BRANCH   2   3
ATOM      3  N   UNL     1      12.579   6.187  24.583  0.00  0.00    -0.069 NA
ATOM      4  O   UNL     1      11.643   6.796  25.113  0.00  0.00    -0.149 OA
ENDBRANCH   2   3
TORSDOF 1
ENDMDL
