MODEL 1
REMARK VINA RESULT:      -6.7      0.000      0.000
REMARK  Name = 
REMARK  6 active torsions:
REMARK  status: ('A' for Active; 'I' for Inactive)
REMARK    1  A    between atoms: C_1  and  N_2
REMARK    2  A    between atoms: N_2  and  C_3
REMARK    3  A    between atoms: N_2  and  C_4
REMARK    4  A    between atoms: C_7  and  C_10
REMARK    5  A    between atoms: N_11  and  C_12
REMARK    6  A    between atoms: C_16  and  O_17
REMARK                            x       y       z     vdW  Elec       q    Type
REMARK                         _______ _______ _______ _____ _____    ______ ____
ROOT
ATOM      1  C   UNL     1       9.067  -0.389  24.643  0.00  0.00    +0.255 A 
ATOM      2  S   UNL     1       8.937  -0.948  26.270  0.00  0.00    -0.014 S 
ATOM      3  C   UNL     1       8.641  -2.563  25.788  0.00  0.00    +0.093 A 
ATOM      4  C   UNL     1       8.617  -2.632  24.399  0.00  0.00    +0.223 A 
ATOM      5  C   UNL     1       8.326  -3.868  23.780  0.00  0.00    +0.083 A 
ATOM      6  C   UNL     1       8.103  -5.000  24.578  0.00  0.00    +0.052 A 
ATOM      7  C   UNL     1       8.173  -4.902  25.960  0.00  0.00    +0.118 A 
ATOM      8  C   UNL     1       8.438  -3.690  26.592  0.00  0.00    +0.067 A 
ATOM      9  N   UNL     1       8.913  -1.409  23.800  0.00  0.00    -0.187 N 
ATOM     10  C   UNL     1       9.064  -1.304  22.354  0.00  0.00    +0.440 C 
ENDROOT
BRANCH   1  14
ATOM     11  C   UNL     1       9.822   3.853  23.921  0.00  0.00    +0.029 A 
ATOM     12  C   UNL     1      10.770   2.862  23.638  0.00  0.00    +0.024 A 
ATOM     13  C   UNL     1      10.515   1.496  23.839  0.00  0.00    +0.017 A 
ATOM     14  C   UNL     1       9.295   1.047  24.371  0.00  0.00    +0.054 A 
ATOM     15  C   UNL     1       8.351   2.027  24.683  0.00  0.00    +0.017 A 
ATOM     16  C   UNL     1       8.606   3.391  24.443  0.00  0.00    +0.024 A 
BRANCH  11  18
ATOM     17  C   UNL     1       9.024   6.136  23.369  0.00  0.00    +0.129 C 
ATOM     18  N   UNL     1      10.086   5.203  23.732  0.00  0.00    -0.336 N 
ATOM     19  C   UNL     1      11.459   5.670  23.545  0.00  0.00    +0.129 C 
ENDBRANCH  11  18
ENDBRANCH   1  14
BRANCH   7  20
ATOM     20  O   UNL     1       7.979  -5.986  26.761  0.00  0.00    -0.507 OA
ATOM     21  H   UNL     1       8.661  -6.026  27.454  0.00  0.00    +0.292 HD
ENDBRANCH   7  20
TORSDOF 3
ENDMDL
MODEL 2
REMARK VINA RESULT:      -6.2      0.969      1.618
REMARK  Name = 
REMARK  6 active torsions:
REMARK  status: ('A' for Active; 'I' for Inactive)
REMARK    1  A    between atoms: C_1  and  N_2
REMARK    2  A    between atoms: N_2  and  C_3
REMARK    3  A    between atoms: N_2  and  C_4
REMARK    4  A    between atoms: C_7  and  C_10
REMARK    5  A    between atoms: N_11  and  C_12
REMARK    6  A    between atoms: C_16  and  O_17
REMARK                            x       y       z     vdW  Elec       q    Type
REMARK                         _______ _______ _______ _____ _____    ______ ____
ROOT
ATOM      1  C   UNL     1       8.455  -0.308  24.504  0.00  0.00    +0.255 A 
ATOM      2  S   UNL     1       8.366  -0.801  26.155  0.00  0.00    -0.014 S 
ATOM      3  C   UNL     1       8.370  -2.464  25.753  0.00  0.00    +0.093 A 
ATOM      4  C   UNL     1       8.407  -2.604  24.370  0.00  0.00    +0.223 A 
ATOM      5  C   UNL     1       8.356  -3.901  23.812  0.00  0.00    +0.083 A 
ATOM      6  C   UNL     1       8.304  -5.014  24.663  0.00  0.00    +0.052 A 
ATOM      7  C   UNL     1       8.307  -4.838  26.040  0.00  0.00    +0.118 A 
ATOM      8  C   UNL     1       8.337  -3.569  26.612  0.00  0.00    +0.067 A 
ATOM      9  N   UNL     1       8.509  -1.379  23.713  0.00  0.00    -0.187 N 
ATOM     10  C   UNL     1       8.690  -1.320  22.268  0.00  0.00    +0.440 C 
ENDROOT
BRANCH   1  14
ATOM     11  C   UNL     1       8.409   3.913  23.382  0.00  0.00    +0.029 A 
ATOM     12  C   UNL     1       7.319   3.065  23.157  0.00  0.00    +0.024 A 
ATOM     13  C   UNL     1       7.322   1.716  23.547  0.00  0.00    +0.017 A 
ATOM     14  C   UNL     1       8.441   1.130  24.161  0.00  0.00    +0.054 A 
ATOM     15  C   UNL     1       9.545   1.960  24.368  0.00  0.00    +0.017 A 
ATOM     16  C   UNL     1       9.516   3.320  24.004  0.00  0.00    +0.024 A 
BRANCH  11  18
ATOM     17  C   UNL     1       9.328   6.211  23.567  0.00  0.00    +0.129 C 
ATOM     18  N   UNL     1       8.405   5.243  22.982  0.00  0.00    -0.336 N 
ATOM     19  C   UNL     1       7.271   5.789  22.237  0.00  0.00    +0.129 C 
ENDBRANCH  11  18
ENDBRANCH   1  14
BRANCH   7  20
ATOM     20  O   UNL     1       8.275  -5.898  26.893  0.00  0.00    -0.507 OA
ATOM     21  H   UNL     1       8.283  -5.595  27.817  0.00  0.00    +0.292 HD
ENDBRANCH   7  20
TORSDOF 3
ENDMDL
MODEL 3
REMARK VINA RESULT:      -6.2      1.535      2.346
REMARK  Name = 
REMARK  6 active torsions:
REMARK  status: ('A' for Active; 'I' for Inactive)
REMARK    1  A    between atoms: C_1  and  N_2
REMARK    2  A    between atoms: N_2  and  C_3
REMARK    3  A    between atoms: N_2  and  C_4
REMARK    4  A    between atoms: C_7  and  C_10
REMARK    5  A    between atoms: N_11  and  C_12
REMARK    6  A    between atoms: C_16  and  O_17
REMARK                            x       y       z     vdW  Elec       q    Type
REMARK                         _______ _______ _______ _____ _____    ______ ____
ROOT
ATOM      1  C   UNL     1       8.763  -0.193  23.840  0.00  0.00    +0.255 A 
ATOM      2  S   UNL     1       8.283  -0.914  22.348  0.00  0.00    -0.014 S 
ATOM      3  C   UNL     1       8.054  -2.453  23.061  0.00  0.00    +0.093 A 
ATOM      4  C   UNL     1       8.380  -2.387  24.412  0.00  0.00    +0.223 A 
ATOM      5  C   UNL     1       8.321  -3.567  25.187  0.00  0.00    +0.083 A 
ATOM      6  C   UNL     1       7.905  -4.764  24.587  0.00  0.00    +0.052 A 
ATOM      7  C   UNL     1       7.552  -4.784  23.246  0.00  0.00    +0.118 A 
ATOM      8  C   UNL     1       7.621  -3.639  22.457  0.00  0.00    +0.067 A 
ATOM      9  N   UNL     1       8.717  -1.097  24.817  0.00  0.00    -0.187 N 
ATOM     10  C   UNL     1       8.964  -0.797  26.222  0.00  0.00    +0.440 C 
ENDROOT
BRANCH   1  14
ATOM     11  C   UNL     1       9.871   4.033  23.865  0.00  0.00    +0.029 A 
ATOM     12  C   UNL     1       8.602   3.587  24.255  0.00  0.00    +0.024 A 
ATOM     13  C   UNL     1       8.258   2.225  24.279  0.00  0.00    +0.017 A 
ATOM     14  C   UNL     1       9.164   1.230  23.877  0.00  0.00    +0.054 A 
ATOM     15  C   UNL     1      10.424   1.665  23.460  0.00  0.00    +0.017 A 
ATOM     16  C   UNL     1      10.769   3.030  23.476  0.00  0.00    +0.024 A 
BRANCH  11  18
ATOM     17  C   UNL     1       9.212   6.394  23.479  0.00  0.00    +0.129 C 
ATOM     18  N   UNL     1      10.201   5.381  23.833  0.00  0.00    -0.336 N 
ATOM     19  C   UNL     1      11.603   5.799  23.805  0.00  0.00    +0.129 C 
ENDBRANCH  11  18
ENDBRANCH   1  14
BRANCH   7  20
ATOM     20  O   UNL     1       7.127  -5.926  22.638  0.00  0.00    -0.507 OA
ATOM     21  H   UNL     1       6.252  -6.186  22.971  0.00  0.00    +0.292 HD
ENDBRANCH   7  20
TORSDOF 3
ENDMDL
MODEL 4
REMARK VINA RESULT:      -6.2      3.625      8.217
REMARK  Name = 
REMARK  6 active torsions:
REMARK  status: ('A' for Active; 'I' for Inactive)
REMARK    1  A    between atoms: C_1  and  N_2
REMARK    2  A    between atoms: N_2  and  C_3
REMARK    3  A    between atoms: N_2  and  C_4
REMARK    4  A    between atoms: C_7  and  C_10
REMARK    5  A    between atoms: N_11  and  C_12
REMARK    6  A    between atoms: C_16  and  O_17
REMARK                            x       y       z     vdW  Elec       q    Type
REMARK                         _______ _______ _______ _____ _____    ______ ____
ROOT
ATOM      1  C   UNL     1       7.763  -2.086  24.424  0.00  0.00    +0.255 A 
ATOM      2  S   UNL     1       7.898  -1.787  22.730  0.00  0.00    -0.014 S 
ATOM      3  C   UNL     1       8.831  -0.371  22.964  0.00  0.00    +0.093 A 
ATOM      4  C   UNL     1       8.990  -0.144  24.326  0.00  0.00    +0.223 A 
ATOM      5  C   UNL     1       9.682   1.013  24.750  0.00  0.00    +0.083 A 
ATOM      6  C   UNL     1      10.219   1.884  23.791  0.00  0.00    +0.052 A 
ATOM      7  C   UNL     1      10.073   1.605  22.439  0.00  0.00    +0.118 A 
ATOM      8  C   UNL     1       9.379   0.481  21.998  0.00  0.00    +0.067 A 
ATOM      9  N   UNL     1       8.426  -1.153  25.105  0.00  0.00    -0.187 N 
ATOM     10  C   UNL     1       8.600  -1.164  26.552  0.00  0.00    +0.440 C 
ENDROOT
BRANCH   1  14
ATOM     11  C   UNL     1       5.396  -5.429  25.944  0.00  0.00    +0.029 A 
ATOM     12  C   UNL     1       4.812  -4.244  25.480  0.00  0.00    +0.024 A 
ATOM     13  C   UNL     1       5.571  -3.183  24.961  0.00  0.00    +0.017 A 
ATOM     14  C   UNL     1       6.974  -3.239  24.909  0.00  0.00    +0.054 A 
ATOM     15  C   UNL     1       7.570  -4.406  25.393  0.00  0.00    +0.017 A 
ATOM     16  C   UNL     1       6.795  -5.477  25.877  0.00  0.00    +0.024 A 
BRANCH  11  18
ATOM     17  C   UNL     1       4.861  -6.955  27.826  0.00  0.00    +0.129 C 
ATOM     18  N   UNL     1       4.641  -6.469  26.468  0.00  0.00    -0.336 N 
ATOM     19  C   UNL     1       3.857  -7.333  25.584  0.00  0.00    +0.129 C 
ENDBRANCH  11  18
ENDBRANCH   1  14
BRANCH   7  20
ATOM     20  O   UNL     1      10.597   2.420  21.483  0.00  0.00    -0.507 OA
ATOM     21  H   UNL     1      10.896   3.259  21.874  0.00  0.00    +0.292 HD
ENDBRANCH   7  20
TORSDOF 3
ENDMDL
MODEL 5
REMARK VINA RESULT:      -6.2      1.613      2.160
REMARK  Name = 
REMARK  6 active torsions:
REMARK  status: ('A' for Active; 'I' for Inactive)
REMARK    1  A    between atoms: C_1  and  N_2
REMARK    2  A    between atoms: N_2  and  C_3
REMARK    3  A    between atoms: N_2  and  C_4
REMARK    4  A    between atoms: C_7  and  C_10
REMARK    5  A    between atoms: N_11  and  C_12
REMARK    6  A    between atoms: C_16  and  O_17
REMARK                            x       y       z     vdW  Elec       q    Type
REMARK                         _______ _______ _______ _____ _____    ______ ____
ROOT
ATOM      1  C   UNL     1       8.525  -0.078  24.392  0.00  0.00    +0.255 A 
ATOM      2  S   UNL     1       9.638  -1.141  23.610  0.00  0.00    -0.014 S 
ATOM      3  C   UNL     1       9.204  -2.468  24.600  0.00  0.00    +0.093 A 
ATOM      4  C   UNL     1       8.246  -2.062  25.522  0.00  0.00    +0.223 A 
ATOM      5  C   UNL     1       7.785  -2.989  26.483  0.00  0.00    +0.083 A 
ATOM      6  C   UNL     1       8.279  -4.302  26.464  0.00  0.00    +0.052 A 
ATOM      7  C   UNL     1       9.207  -4.682  25.506  0.00  0.00    +0.118 A 
ATOM      8  C   UNL     1       9.690  -3.781  24.560  0.00  0.00    +0.067 A 
ATOM      9  N   UNL     1       7.855  -0.737  25.336  0.00  0.00    -0.187 N 
ATOM     10  C   UNL     1       6.768  -0.163  26.119  0.00  0.00    +0.440 C 
ENDROOT
BRANCH   1  14
ATOM     11  C   UNL     1       8.269   4.142  23.291  0.00  0.00    +0.029 A 
ATOM     12  C   UNL     1       9.197   3.664  24.225  0.00  0.00    +0.024 A 
ATOM     13  C   UNL     1       9.301   2.302  24.553  0.00  0.00    +0.017 A 
ATOM     14  C   UNL     1       8.450   1.341  23.984  0.00  0.00    +0.054 A 
ATOM     15  C   UNL     1       7.503   1.809  23.070  0.00  0.00    +0.017 A 
ATOM     16  C   UNL     1       7.433   3.171  22.722  0.00  0.00    +0.024 A 
BRANCH  11  18
ATOM     17  C   UNL     1       7.244   5.957  21.946  0.00  0.00    +0.129 C 
ATOM     18  N   UNL     1       8.163   5.490  22.979  0.00  0.00    -0.336 N 
ATOM     19  C   UNL     1       9.193   6.434  23.413  0.00  0.00    +0.129 C 
ENDBRANCH  11  18
ENDBRANCH   1  14
BRANCH   7  20
ATOM     20  O   UNL     1       9.692  -5.953  25.449  0.00  0.00    -0.507 OA
ATOM     21  H   UNL     1       9.502  -6.430  26.274  0.00  0.00    +0.292 HD
ENDBRANCH   7  20
TORSDOF 3
ENDMDL
MODEL 6
REMARK VINA RESULT:      -6.1      3.372      7.789
REMARK  Name = 
REMARK  6 active torsions:
REMARK  status: ('A' for Active; 'I' for Inactive)
REMARK    1  A    between atoms: C_1  and  N_2
REMARK    2  A    between atoms: N_2  and  C_3
REMARK    3  A    between atoms: N_2  and  C_4
REMARK    4  A    between atoms: C_7  and  C_10
REMARK    5  A    between atoms: N_11  and  C_12
REMARK    6  A    between atoms: C_16  and  O_17
REMARK                            x       y       z     vdW  Elec       q    Type
REMARK                         _______ _______ _______ _____ _____    ______ ____
ROOT
ATOM      1  C   UNL     1       8.174  -1.609  25.061  0.00  0.00    +0.255 A 
ATOM      2  S   UNL     1       8.883  -0.282  25.906  0.00  0.00    -0.014 S 
ATOM      3  C   UNL     1       9.334   0.515  24.460  0.00  0.00    +0.093 A 
ATOM      4  C   UNL     1       8.962  -0.264  23.369  0.00  0.00    +0.223 A 
ATOM      5  C   UNL     1       9.294   0.176  22.069  0.00  0.00    +0.083 A 
ATOM      6  C   UNL     1       9.958   1.401  21.906  0.00  0.00    +0.052 A 
ATOM      7  C   UNL     1      10.279   2.171  23.015  0.00  0.00    +0.118 A 
ATOM      8  C   UNL     1       9.980   1.747  24.307  0.00  0.00    +0.067 A 
ATOM      9  N   UNL     1       8.270  -1.414  23.747  0.00  0.00    -0.187 N 
ATOM     10  C   UNL     1       7.684  -2.295  22.744  0.00  0.00    +0.440 C 
ENDROOT
BRANCH   1  14
ATOM     11  C   UNL     1       6.494  -5.025  27.204  0.00  0.00    +0.029 A 
ATOM     12  C   UNL     1       7.830  -4.984  26.786  0.00  0.00    +0.024 A 
ATOM     13  C   UNL     1       8.378  -3.871  26.127  0.00  0.00    +0.017 A 
ATOM     14  C   UNL     1       7.601  -2.743  25.817  0.00  0.00    +0.054 A 
ATOM     15  C   UNL     1       6.260  -2.783  26.205  0.00  0.00    +0.017 A 
ATOM     16  C   UNL     1       5.732  -3.890  26.898  0.00  0.00    +0.024 A 
BRANCH  11  18
ATOM     17  C   UNL     1       4.822  -6.857  27.277  0.00  0.00    +0.129 C 
ATOM     18  N   UNL     1       5.955  -6.133  27.844  0.00  0.00    -0.336 N 
ATOM     19  C   UNL     1       6.263  -6.399  29.249  0.00  0.00    +0.129 C 
ENDBRANCH  11  18
ENDBRANCH   1  14
BRANCH   7  20
ATOM     20  O   UNL     1      10.907   3.372  22.890  0.00  0.00    -0.507 OA
ATOM     21  H   UNL     1      10.397   3.967  22.316  0.00  0.00    +0.292 HD
ENDBRANCH   7  20
TORSDOF 3
ENDMDL
MODEL 7
REMARK VINA RESULT:      -6.1      2.471      3.056
REMARK  Name = 
REMARK  6 active torsions:
REMARK  status: ('A' for Active; 'I' for Inactive)
REMARK    1  A    between atoms: C_1  and  N_2
REMARK    2  A    between atoms: N_2  and  C_3
REMARK    3  A    between atoms: N_2  and  C_4
REMARK    4  A    between atoms: C_7  and  C_10
REMARK    5  A    between atoms: N_11  and  C_12
REMARK    6  A    between atoms: C_16  and  O_17
REMARK                            x       y       z     vdW  Elec       q    Type
REMARK                         _______ _______ _______ _____ _____    ______ ____
ROOT
ATOM      1  C   UNL     1       7.710  -1.072  23.247  0.00  0.00    +0.255 A 
ATOM      2  S   UNL     1       8.394  -2.246  22.184  0.00  0.00    -0.014 S 
ATOM      3  C   UNL     1       7.235  -3.433  22.604  0.00  0.00    +0.093 A 
ATOM      4  C   UNL     1       6.375  -2.917  23.567  0.00  0.00    +0.223 A 
ATOM      5  C   UNL     1       5.370  -3.751  24.106  0.00  0.00    +0.083 A 
ATOM      6  C   UNL     1       5.243  -5.066  23.634  0.00  0.00    +0.052 A 
ATOM      7  C   UNL     1       6.095  -5.536  22.645  0.00  0.00    +0.118 A 
ATOM      8  C   UNL     1       7.105  -4.738  22.113  0.00  0.00    +0.067 A 
ATOM      9  N   UNL     1       6.641  -1.580  23.857  0.00  0.00    -0.187 N 
ATOM     10  C   UNL     1       5.769  -0.821  24.745  0.00  0.00    +0.440 C 
ENDROOT
BRANCH   1  14
ATOM     11  C   UNL     1       9.627   2.843  23.537  0.00  0.00    +0.029 A 
ATOM     12  C   UNL     1       8.715   2.527  22.523  0.00  0.00    +0.024 A 
ATOM     13  C   UNL     1       8.074   1.279  22.450  0.00  0.00    +0.017 A 
ATOM     14  C   UNL     1       8.341   0.260  23.378  0.00  0.00    +0.054 A 
ATOM     15  C   UNL     1       9.269   0.554  24.379  0.00  0.00    +0.017 A 
ATOM     16  C   UNL     1       9.877   1.821  24.463  0.00  0.00    +0.024 A 
BRANCH  11  18
ATOM     17  C   UNL     1      11.701   4.193  23.355  0.00  0.00    +0.129 C 
ATOM     18  N   UNL     1      10.267   4.074  23.597  0.00  0.00    -0.336 N 
ATOM     19  C   UNL     1       9.615   5.217  24.236  0.00  0.00    +0.129 C 
ENDBRANCH  11  18
ENDBRANCH   1  14
BRANCH   7  20
ATOM     20  O   UNL     1       5.986  -6.801  22.153  0.00  0.00    -0.507 OA
ATOM     21  H   UNL     1       6.388  -7.441  22.764  0.00  0.00    +0.292 HD
ENDBRANCH   7  20
TORSDOF 3
ENDMDL
MODEL 8
REMARK VINA RESULT:      -5.9      3.684      7.965
REMARK  Name = 
REMARK  6 active torsions:
REMARK  status: ('A' for Active; 'I' for Inactive)
REMARK    1  A    between atoms: C_1  and  N_2
REMARK    2  A    between atoms: N_2  and  C_3
REMARK    3  A    between atoms: N_2  and  C_4
REMARK    4  A    between atoms: C_7  and  C_10
REMARK    5  A    between atoms: N_11  and  C_12
REMARK    6  A    between atoms: C_16  and  O_17
REMARK                            x       y       z     vdW  Elec       q    Type
REMARK                         _______ _______ _______ _____ _____    ______ ____
ROOT
ATOM      1  C   UNL     1       8.254   1.210  23.241  0.00  0.00    +0.255 A 
ATOM      2  S   UNL     1       6.949   1.979  22.415  0.00  0.00    -0.014 S 
ATOM      3  C   UNL     1       7.613   3.541  22.633  0.00  0.00    +0.093 A 
ATOM      4  C   UNL     1       8.796   3.442  23.357  0.00  0.00    +0.223 A 
ATOM      5  C   UNL     1       9.485   4.625  23.706  0.00  0.00    +0.083 A 
ATOM      6  C   UNL     1       8.981   5.864  23.286  0.00  0.00    +0.052 A 
ATOM      7  C   UNL     1       7.817   5.923  22.532  0.00  0.00    +0.118 A 
ATOM      8  C   UNL     1       7.110   4.772  22.193  0.00  0.00    +0.067 A 
ATOM      9  N   UNL     1       9.145   2.121  23.629  0.00  0.00    -0.187 N 
ATOM     10  C   UNL     1      10.417   1.801  24.266  0.00  0.00    +0.440 C 
ENDROOT
BRANCH   1  14
ATOM     11  C   UNL     1       8.122  -3.126  23.757  0.00  0.00    +0.029 A 
ATOM     12  C   UNL     1       8.364  -2.524  22.516  0.00  0.00    +0.024 A 
ATOM     13  C   UNL     1       8.439  -1.131  22.357  0.00  0.00    +0.017 A 
ATOM     14  C   UNL     1       8.241  -0.256  23.438  0.00  0.00    +0.054 A 
ATOM     15  C   UNL     1       7.973  -0.843  24.676  0.00  0.00    +0.017 A 
ATOM     16  C   UNL     1       7.936  -2.243  24.829  0.00  0.00    +0.024 A 
BRANCH  11  18
ATOM     17  C   UNL     1       8.861  -5.212  24.880  0.00  0.00    +0.129 C 
ATOM     18  N   UNL     1       8.037  -4.504  23.905  0.00  0.00    -0.336 N 
ATOM     19  C   UNL     1       7.395  -5.321  22.875  0.00  0.00    +0.129 C 
ENDBRANCH  11  18
ENDBRANCH   1  14
BRANCH   7  20
ATOM     20  O   UNL     1       7.311   7.108  22.095  0.00  0.00    -0.507 OA
ATOM     21  H   UNL     1       7.813   7.433  21.328  0.00  0.00    +0.292 HD
ENDBRANCH   7  20
TORSDOF 3
ENDMDL
MODEL 9
REMARK VINA RESULT:      -5.9      3.949      7.916
REMARK  Name = 
REMARK  6 active torsions:
REMARK  status: ('A' for Active; 'I' for Inactive)
REMARK    1  A    between atoms: C_1  and  N_2
REMARK    2  A    between atoms: N_2  and  C_3
REMARK    3  A    between atoms: N_2  and  C_4
REMARK    4  A    between atoms: C_7  and  C_10
REMARK    5  A    between atoms: N_11  and  C_12
REMARK    6  A    between atoms: C_16  and  O_17
REMARK                            x       y       z     vdW  Elec       q    Type
REMARK                         _______ _______ _______ _____ _____    ______ ____
ROOT
ATOM      1  C   UNL     1       7.361  -0.748  23.392  0.00  0.00    +0.255 A 
ATOM      2  S   UNL     1       6.772   0.843  23.077  0.00  0.00    -0.014 S 
ATOM      3  C   UNL     1       8.317   1.552  23.283  0.00  0.00    +0.093 A 
ATOM      4  C   UNL     1       9.236   0.564  23.618  0.00  0.00    +0.223 A 
ATOM      5  C   UNL     1      10.571   0.937  23.895  0.00  0.00    +0.083 A 
ATOM      6  C   UNL     1      10.943   2.285  23.792  0.00  0.00    +0.052 A 
ATOM      7  C   UNL     1      10.008   3.239  23.419  0.00  0.00    +0.118 A 
ATOM      8  C   UNL     1       8.682   2.898  23.160  0.00  0.00    +0.067 A 
ATOM      9  N   UNL     1       8.673  -0.711  23.614  0.00  0.00    -0.187 N 
ATOM     10  C   UNL     1       9.503  -1.893  23.813  0.00  0.00    +0.440 C 
ENDROOT
BRANCH   1  14
ATOM     11  C   UNL     1       4.655  -4.176  23.508  0.00  0.00    +0.029 A 
ATOM     12  C   UNL     1       4.806  -3.302  24.592  0.00  0.00    +0.024 A 
ATOM     13  C   UNL     1       5.652  -2.181  24.542  0.00  0.00    +0.017 A 
ATOM     14  C   UNL     1       6.423  -1.892  23.404  0.00  0.00    +0.054 A 
ATOM     15  C   UNL     1       6.300  -2.771  22.326  0.00  0.00    +0.017 A 
ATOM     16  C   UNL     1       5.422  -3.871  22.376  0.00  0.00    +0.024 A 
BRANCH  11  18
ATOM     17  C   UNL     1       2.386  -5.171  23.366  0.00  0.00    +0.129 C 
ATOM     18  N   UNL     1       3.827  -5.289  23.568  0.00  0.00    -0.336 N 
ATOM     19  C   UNL     1       4.303  -6.534  24.169  0.00  0.00    +0.129 C 
ENDBRANCH  11  18
ENDBRANCH   1  14
BRANCH   7  20
ATOM     20  O   UNL     1      10.341   4.553  23.293  0.00  0.00    -0.507 OA
ATOM     21  H   UNL     1      10.581   4.759  22.374  0.00  0.00    +0.292 HD
ENDBRANCH   7  20
TORSDOF 3
ENDMDL
