MODEL 1
REMARK VINA RESULT:      -7.2      0.000      0.000
REMARK  Name = 
REMARK  2 active torsions:
REMARK  status: ('A' for Active; 'I' for Inactive)
REMARK    1  A    between atoms: C_2  and  C_6
REMARK    2  A    between atoms: C_11  and  C_15
REMARK                            x       y       z     vdW  Elec       q    Type
REMARK                         _______ _______ _______ _____ _____    ______ ____
ROOT
ATOM      1  C   UNL     1      10.087   2.359  23.269  0.00  0.00    +0.063 A 
ATOM      2  C   UNL     1       9.745   1.706  24.469  0.00  0.00    +0.045 A 
ATOM      3  C   UNL     1       9.358   0.360  24.432  0.00  0.00    +0.090 A 
ATOM      4  C   UNL     1       9.307  -0.295  23.213  0.00  0.00    +0.067 A 
ATOM      5  N   UNL     1       8.896  -1.553  23.541  0.00  0.00    -0.338 N 
ATOM      6  H   UNL     1       8.730  -2.369  22.952  0.00  0.00    +0.167 HD
ATOM      7  C   UNL     1       8.733  -1.634  24.906  0.00  0.00    +0.139 A 
ATOM      8  C   UNL     1       9.630   0.304  21.999  0.00  0.00    +0.028 A 
ATOM      9  N   UNL     1       9.003  -0.463  25.468  0.00  0.00    -0.228 NA
ATOM     10  C   UNL     1      10.031   1.645  22.055  0.00  0.00    +0.018 A 
ENDROOT
BRANCH   7  11
ATOM     11  C   UNL     1       8.325  -2.902  25.544  0.00  0.00    +0.012 A 
ATOM     12  C   UNL     1       9.036  -4.129  25.290  0.00  0.00    -0.097 A 
ATOM     13  O   UNL     1      10.043  -4.241  24.501  0.00  0.00    -0.873 OA
ATOM     14  C   UNL     1       8.548  -5.258  25.985  0.00  0.00    -0.005 A 
ATOM     15  C   UNL     1       7.458  -5.213  26.858  0.00  0.00    +0.038 A 
ATOM     16  C   UNL     1       6.805  -4.014  27.060  0.00  0.00    +0.124 A 
ATOM     17  F   UNL     1       5.756  -3.963  27.897  0.00  0.00    -0.205 F 
ATOM     18  C   UNL     1       7.223  -2.863  26.416  0.00  0.00    +0.049 A 
ENDBRANCH   7  11
BRANCH   1  22
ATOM     19  N   UNL     1       9.594   4.711  23.508  0.00  0.00    -0.250 N 
ATOM     20  H   UNL     1       8.629   4.451  23.694  0.00  0.00    +0.288 HD
ATOM     21  H   UNL     1       9.817   5.695  23.505  0.00  0.00    +0.288 HD
ATOM     22  C   UNL     1      10.493   3.774  23.292  0.00  0.00    +0.266 C 
ATOM     23  N   UNL     1      11.753   4.095  23.086  0.00  0.00    -0.288 N 
ATOM     24  H   UNL     1      12.081   5.049  23.096  0.00  0.00    +0.301 HD
ATOM     25  H   UNL     1      12.431   3.368  22.882  0.00  0.00    +0.301 HD
ENDBRANCH   1  22
TORSDOF 2
ENDMDL
MODEL 2
REMARK VINA RESULT:      -7.0      2.617      2.696
REMARK  Name = 
REMARK  2 active torsions:
REMARK  status: ('A' for Active; 'I' for Inactive)
REMARK    1  A    between atoms: C_2  and  C_6
REMARK    2  A    between atoms: C_11  and  C_15
REMARK                            x       y       z     vdW  Elec       q    Type
REMARK                         _______ _______ _______ _____ _____    ______ ____
ROOT
ATOM      1  C   UNL     1       9.415   1.640  23.159  0.00  0.00    +0.063 A 
ATOM      2  C   UNL     1       8.498   0.894  23.924  0.00  0.00    +0.045 A 
ATOM      3  C   UNL     1       8.118  -0.383  23.488  0.00  0.00    +0.090 A 
ATOM      4  C   UNL     1       8.643  -0.876  22.304  0.00  0.00    +0.067 A 
ATOM      5  N   UNL     1       8.067  -2.106  22.186  0.00  0.00    -0.338 N 
ATOM      6  H   UNL     1       8.174  -2.820  21.466  0.00  0.00    +0.167 HD
ATOM      7  C   UNL     1       7.251  -2.330  23.273  0.00  0.00    +0.139 A 
ATOM      8  C   UNL     1       9.547  -0.179  21.509  0.00  0.00    +0.028 A 
ATOM      9  N   UNL     1       7.263  -1.276  24.077  0.00  0.00    -0.228 NA
ATOM     10  C   UNL     1       9.930   1.088  21.968  0.00  0.00    +0.018 A 
ENDROOT
BRANCH   7  11
ATOM     11  C   UNL     1       6.525  -3.608  23.421  0.00  0.00    +0.012 A 
ATOM     12  C   UNL     1       5.743  -4.154  22.342  0.00  0.00    -0.097 A 
ATOM     13  O   UNL     1       5.590  -3.597  21.195  0.00  0.00    -0.873 OA
ATOM     14  C   UNL     1       5.122  -5.393  22.620  0.00  0.00    -0.005 A 
ATOM     15  C   UNL     1       5.242  -6.057  23.843  0.00  0.00    +0.038 A 
ATOM     16  C   UNL     1       5.997  -5.487  24.849  0.00  0.00    +0.124 A 
ATOM     17  F   UNL     1       6.116  -6.118  26.028  0.00  0.00    -0.205 F 
ATOM     18  C   UNL     1       6.636  -4.275  24.654  0.00  0.00    +0.049 A 
ENDBRANCH   7  11
BRANCH   1  22
ATOM     19  N   UNL     1       9.084   3.636  24.477  0.00  0.00    -0.250 N 
ATOM     20  H   UNL     1       8.257   3.194  24.869  0.00  0.00    +0.288 HD
ATOM     21  H   UNL     1       9.305   4.569  24.791  0.00  0.00    +0.288 HD
ATOM     22  C   UNL     1       9.821   2.983  23.603  0.00  0.00    +0.266 C 
ATOM     23  N   UNL     1      10.915   3.529  23.115  0.00  0.00    -0.288 N 
ATOM     24  H   UNL     1      11.237   4.445  23.391  0.00  0.00    +0.301 HD
ATOM     25  H   UNL     1      11.455   3.035  22.412  0.00  0.00    +0.301 HD
ENDBRANCH   1  22
TORSDOF 2
ENDMDL
MODEL 3
REMARK VINA RESULT:      -6.9      2.905      3.328
REMARK  Name = 
REMARK  2 active torsions:
REMARK  status: ('A' for Active; 'I' for Inactive)
REMARK    1  A    between atoms: C_2  and  C_6
REMARK    2  A    between atoms: C_11  and  C_15
REMARK                            x       y       z     vdW  Elec       q    Type
REMARK                         _______ _______ _______ _____ _____    ______ ____
ROOT
ATOM      1  C   UNL     1       9.701   1.779  23.565  0.00  0.00    +0.063 A 
ATOM      2  C   UNL     1       8.717   1.045  22.875  0.00  0.00    +0.045 A 
ATOM      3  C   UNL     1       8.515  -0.304  23.194  0.00  0.00    +0.090 A 
ATOM      4  C   UNL     1       9.300  -0.890  24.174  0.00  0.00    +0.067 A 
ATOM      5  N   UNL     1       8.849  -2.176  24.219  0.00  0.00    -0.338 N 
ATOM      6  H   UNL     1       9.142  -2.959  24.804  0.00  0.00    +0.167 HD
ATOM      7  C   UNL     1       7.825  -2.329  23.312  0.00  0.00    +0.139 A 
ATOM      8  C   UNL     1      10.289  -0.213  24.882  0.00  0.00    +0.028 A 
ATOM      9  N   UNL     1       7.613  -1.190  22.667  0.00  0.00    -0.228 NA
ATOM     10  C   UNL     1      10.466   1.139  24.562  0.00  0.00    +0.018 A 
ENDROOT
BRANCH   7  11
ATOM     11  C   UNL     1       7.123  -3.621  23.175  0.00  0.00    +0.012 A 
ATOM     12  C   UNL     1       6.625  -4.327  24.328  0.00  0.00    -0.097 A 
ATOM     13  O   UNL     1       6.753  -3.928  25.542  0.00  0.00    -0.873 OA
ATOM     14  C   UNL     1       5.956  -5.539  24.044  0.00  0.00    -0.005 A 
ATOM     15  C   UNL     1       5.780  -6.037  22.751  0.00  0.00    +0.038 A 
ATOM     16  C   UNL     1       6.284  -5.326  21.680  0.00  0.00    +0.124 A 
ATOM     17  F   UNL     1       6.120  -5.798  20.434  0.00  0.00    -0.205 F 
ATOM     18  C   UNL     1       6.951  -4.130  21.876  0.00  0.00    +0.049 A 
ENDBRANCH   7  11
BRANCH   1  22
ATOM     19  N   UNL     1      11.153   3.664  23.150  0.00  0.00    -0.250 N 
ATOM     20  H   UNL     1      11.942   3.035  23.274  0.00  0.00    +0.288 HD
ATOM     21  H   UNL     1      11.358   4.633  22.957  0.00  0.00    +0.288 HD
ATOM     22  C   UNL     1       9.926   3.196  23.237  0.00  0.00    +0.266 C 
ATOM     23  N   UNL     1       8.895   3.992  23.044  0.00  0.00    -0.288 N 
ATOM     24  H   UNL     1       8.997   4.970  22.814  0.00  0.00    +0.301 HD
ATOM     25  H   UNL     1       7.953   3.632  23.153  0.00  0.00    +0.301 HD
ENDBRANCH   1  22
TORSDOF 2
ENDMDL
MODEL 4
REMARK VINA RESULT:      -6.9      3.104      3.409
REMARK  Name = 
REMARK  2 active torsions:
REMARK  status: ('A' for Active; 'I' for Inactive)
REMARK    1  A    between atoms: C_2  and  C_6
REMARK    2  A    between atoms: C_11  and  C_15
REMARK                            x       y       z     vdW  Elec       q    Type
REMARK                         _______ _______ _______ _____ _____    ______ ____
ROOT
ATOM      1  C   UNL     1       8.831   0.651  22.187  0.00  0.00    +0.063 A 
ATOM      2  C   UNL     1       7.606   0.231  22.741  0.00  0.00    +0.045 A 
ATOM      3  C   UNL     1       7.346  -1.140  22.874  0.00  0.00    +0.090 A 
ATOM      4  C   UNL     1       8.297  -2.052  22.442  0.00  0.00    +0.067 A 
ATOM      5  N   UNL     1       7.725  -3.260  22.709  0.00  0.00    -0.338 N 
ATOM      6  H   UNL     1       8.077  -4.206  22.558  0.00  0.00    +0.167 HD
ATOM      7  C   UNL     1       6.495  -3.061  23.294  0.00  0.00    +0.139 A 
ATOM      8  C   UNL     1       9.519  -1.690  21.884  0.00  0.00    +0.028 A 
ATOM      9  N   UNL     1       6.242  -1.762  23.393  0.00  0.00    -0.228 NA
ATOM     10  C   UNL     1       9.770  -0.316  21.775  0.00  0.00    +0.018 A 
ENDROOT
BRANCH   7  11
ATOM     11  C   UNL     1       5.667  -4.207  23.723  0.00  0.00    +0.012 A 
ATOM     12  C   UNL     1       6.128  -5.125  24.732  0.00  0.00    -0.097 A 
ATOM     13  O   UNL     1       7.266  -5.053  25.322  0.00  0.00    -0.873 OA
ATOM     14  C   UNL     1       5.222  -6.160  25.057  0.00  0.00    -0.005 A 
ATOM     15  C   UNL     1       3.969  -6.303  24.457  0.00  0.00    +0.038 A 
ATOM     16  C   UNL     1       3.577  -5.400  23.488  0.00  0.00    +0.124 A 
ATOM     17  F   UNL     1       2.375  -5.531  22.907  0.00  0.00    -0.205 F 
ATOM     18  C   UNL     1       4.408  -4.358  23.115  0.00  0.00    +0.049 A 
ENDBRANCH   7  11
BRANCH   1  22
ATOM     19  N   UNL     1       8.127   2.957  22.045  0.00  0.00    -0.250 N 
ATOM     20  H   UNL     1       7.173   2.635  22.188  0.00  0.00    +0.288 HD
ATOM     21  H   UNL     1       8.268   3.948  21.919  0.00  0.00    +0.288 HD
ATOM     22  C   UNL     1       9.115   2.088  22.040  0.00  0.00    +0.266 C 
ATOM     23  N   UNL     1      10.359   2.495  21.893  0.00  0.00    -0.288 N 
ATOM     24  H   UNL     1      10.605   3.468  21.792  0.00  0.00    +0.301 HD
ATOM     25  H   UNL     1      11.110   1.814  21.850  0.00  0.00    +0.301 HD
ENDBRANCH   1  22
TORSDOF 2
ENDMDL
MODEL 5
REMARK VINA RESULT:      -6.7      3.963      7.709
REMARK  Name = 
REMARK  2 active torsions:
REMARK  status: ('A' for Active; 'I' for Inactive)
REMARK    1  A    between atoms: C_2  and  C_6
REMARK    2  A    between atoms: C_11  and  C_15
REMARK                            x       y       z     vdW  Elec       q    Type
REMARK                         _______ _______ _______ _____ _____    ______ ____
ROOT
ATOM      1  C   UNL     1       5.397  -5.841  24.929  0.00  0.00    +0.063 A 
ATOM      2  C   UNL     1       5.974  -4.606  25.284  0.00  0.00    +0.045 A 
ATOM      3  C   UNL     1       6.462  -3.761  24.279  0.00  0.00    +0.090 A 
ATOM      4  C   UNL     1       6.379  -4.167  22.957  0.00  0.00    +0.067 A 
ATOM      5  N   UNL     1       6.940  -3.132  22.268  0.00  0.00    -0.338 N 
ATOM      6  H   UNL     1       7.082  -3.004  21.266  0.00  0.00    +0.167 HD
ATOM      7  C   UNL     1       7.318  -2.149  23.156  0.00  0.00    +0.139 A 
ATOM      8  C   UNL     1       5.824  -5.377  22.552  0.00  0.00    +0.028 A 
ATOM      9  N   UNL     1       7.040  -2.525  24.397  0.00  0.00    -0.228 NA
ATOM     10  C   UNL     1       5.325  -6.202  23.567  0.00  0.00    +0.018 A 
ENDROOT
BRANCH   7  11
ATOM     11  C   UNL     1       7.924  -0.890  22.676  0.00  0.00    +0.012 A 
ATOM     12  C   UNL     1       9.248  -0.867  22.109  0.00  0.00    -0.097 A 
ATOM     13  O   UNL     1      10.009  -1.893  21.985  0.00  0.00    -0.873 OA
ATOM     14  C   UNL     1       9.689   0.403  21.672  0.00  0.00    -0.005 A 
ATOM     15  C   UNL     1       8.918   1.563  21.776  0.00  0.00    +0.038 A 
ATOM     16  C   UNL     1       7.658   1.489  22.336  0.00  0.00    +0.124 A 
ATOM     17  F   UNL     1       6.911   2.599  22.439  0.00  0.00    -0.205 F 
ATOM     18  C   UNL     1       7.154   0.281  22.786  0.00  0.00    +0.049 A 
ENDBRANCH   7  11
BRANCH   1  22
ATOM     19  N   UNL     1       5.486  -6.802  27.142  0.00  0.00    -0.250 N 
ATOM     20  H   UNL     1       6.285  -6.201  27.329  0.00  0.00    +0.288 HD
ATOM     21  H   UNL     1       5.189  -7.422  27.881  0.00  0.00    +0.288 HD
ATOM     22  C   UNL     1       4.882  -6.739  25.975  0.00  0.00    +0.266 C 
ATOM     23  N   UNL     1       3.824  -7.485  25.731  0.00  0.00    -0.288 N 
ATOM     24  H   UNL     1       3.432  -8.113  26.417  0.00  0.00    +0.301 HD
ATOM     25  H   UNL     1       3.389  -7.460  24.815  0.00  0.00    +0.301 HD
ENDBRANCH   1  22
TORSDOF 2
ENDMDL
MODEL 6
REMARK VINA RESULT:      -6.7      4.306      7.471
REMARK  Name = 
REMARK  2 active torsions:
REMARK  status: ('A' for Active; 'I' for Inactive)
REMARK    1  A    between atoms: C_2  and  C_6
REMARK    2  A    between atoms: C_11  and  C_15
REMARK                            x       y       z     vdW  Elec       q    Type
REMARK                         _______ _______ _______ _____ _____    ______ ____
ROOT
ATOM      1  C   UNL     1       4.661  -5.250  23.044  0.00  0.00    +0.063 A 
ATOM      2  C   UNL     1       4.937  -4.052  23.732  0.00  0.00    +0.045 A 
ATOM      3  C   UNL     1       6.147  -3.387  23.495  0.00  0.00    +0.090 A 
ATOM      4  C   UNL     1       7.052  -3.931  22.598  0.00  0.00    +0.067 A 
ATOM      5  N   UNL     1       8.092  -3.050  22.618  0.00  0.00    -0.338 N 
ATOM      6  H   UNL     1       8.973  -3.055  22.103  0.00  0.00    +0.167 HD
ATOM      7  C   UNL     1       7.795  -2.018  23.480  0.00  0.00    +0.139 A 
ATOM      8  C   UNL     1       6.831  -5.113  21.896  0.00  0.00    +0.028 A 
ATOM      9  N   UNL     1       6.607  -2.215  24.035  0.00  0.00    -0.228 NA
ATOM     10  C   UNL     1       5.610  -5.756  22.132  0.00  0.00    +0.018 A 
ENDROOT
BRANCH   7  11
ATOM     11  C   UNL     1       8.737  -0.896  23.669  0.00  0.00    +0.012 A 
ATOM     12  C   UNL     1       9.307  -0.608  24.960  0.00  0.00    -0.097 A 
ATOM     13  O   UNL     1       9.050  -1.260  26.036  0.00  0.00    -0.873 OA
ATOM     14  C   UNL     1      10.209   0.480  24.986  0.00  0.00    -0.005 A 
ATOM     15  C   UNL     1      10.536   1.236  23.858  0.00  0.00    +0.038 A 
ATOM     16  C   UNL     1       9.955   0.924  22.645  0.00  0.00    +0.124 A 
ATOM     17  F   UNL     1      10.264   1.647  21.557  0.00  0.00    -0.205 F 
ATOM     18  C   UNL     1       9.063  -0.128  22.537  0.00  0.00    +0.049 A 
ENDBRANCH   7  11
BRANCH   1  22
ATOM     19  N   UNL     1       2.250  -5.323  23.162  0.00  0.00    -0.250 N 
ATOM     20  H   UNL     1       2.244  -4.351  22.865  0.00  0.00    +0.288 HD
ATOM     21  H   UNL     1       1.358  -5.758  23.344  0.00  0.00    +0.288 HD
ATOM     22  C   UNL     1       3.395  -5.961  23.285  0.00  0.00    +0.266 C 
ATOM     23  N   UNL     1       3.416  -7.231  23.633  0.00  0.00    -0.288 N 
ATOM     24  H   UNL     1       2.575  -7.762  23.806  0.00  0.00    +0.301 HD
ATOM     25  H   UNL     1       4.304  -7.703  23.764  0.00  0.00    +0.301 HD
ENDBRANCH   1  22
TORSDOF 2
ENDMDL
MODEL 7
REMARK VINA RESULT:      -6.7      2.588      3.429
REMARK  Name = 
REMARK  2 active torsions:
REMARK  status: ('A' for Active; 'I' for Inactive)
REMARK    1  A    between atoms: C_2  and  C_6
REMARK    2  A    between atoms: C_11  and  C_15
REMARK                            x       y       z     vdW  Elec       q    Type
REMARK                         _______ _______ _______ _____ _____    ______ ____
ROOT
ATOM      1  C   UNL     1      11.232   4.525  23.518  0.00  0.00    +0.063 A 
ATOM      2  C   UNL     1      11.459   3.141  23.397  0.00  0.00    +0.045 A 
ATOM      3  C   UNL     1      10.424   2.246  23.699  0.00  0.00    +0.090 A 
ATOM      4  C   UNL     1       9.204   2.744  24.125  0.00  0.00    +0.067 A 
ATOM      5  N   UNL     1       8.454   1.624  24.331  0.00  0.00    -0.338 N 
ATOM      6  H   UNL     1       7.488   1.523  24.642  0.00  0.00    +0.167 HD
ATOM      7  C   UNL     1       9.205   0.513  24.017  0.00  0.00    +0.139 A 
ATOM      8  C   UNL     1       8.928   4.101  24.266  0.00  0.00    +0.028 A 
ATOM      9  N   UNL     1      10.422   0.877  23.637  0.00  0.00    -0.228 NA
ATOM     10  C   UNL     1       9.968   4.983  23.943  0.00  0.00    +0.018 A 
ENDROOT
BRANCH   7  11
ATOM     11  C   UNL     1       8.625  -0.842  24.115  0.00  0.00    +0.012 A 
ATOM     12  C   UNL     1       7.219  -1.071  23.905  0.00  0.00    -0.097 A 
ATOM     13  O   UNL     1       6.360  -0.153  23.641  0.00  0.00    -0.873 OA
ATOM     14  C   UNL     1       6.810  -2.420  24.008  0.00  0.00    -0.005 A 
ATOM     15  C   UNL     1       7.686  -3.470  24.293  0.00  0.00    +0.038 A 
ATOM     16  C   UNL     1       9.024  -3.197  24.494  0.00  0.00    +0.124 A 
ATOM     17  F   UNL     1       9.872  -4.200  24.769  0.00  0.00    -0.205 F 
ATOM     18  C   UNL     1       9.503  -1.901  24.409  0.00  0.00    +0.049 A 
ENDBRANCH   7  11
BRANCH   1  22
ATOM     19  N   UNL     1      12.748   6.301  24.134  0.00  0.00    -0.250 N 
ATOM     20  H   UNL     1      12.364   6.252  25.074  0.00  0.00    +0.288 HD
ATOM     21  H   UNL     1      13.465   6.990  23.962  0.00  0.00    +0.288 HD
ATOM     22  C   UNL     1      12.311   5.477  23.206  0.00  0.00    +0.266 C 
ATOM     23  N   UNL     1      12.826   5.505  21.994  0.00  0.00    -0.288 N 
ATOM     24  H   UNL     1      13.569   6.136  21.733  0.00  0.00    +0.301 HD
ATOM     25  H   UNL     1      12.455   4.894  21.274  0.00  0.00    +0.301 HD
ENDBRANCH   1  22
TORSDOF 2
ENDMDL
MODEL 8
REMARK VINA RESULT:      -6.6      3.789      7.776
REMARK  Name = 
REMARK  2 active torsions:
REMARK  status: ('A' for Active; 'I' for Inactive)
REMARK    1  A    between atoms: C_2  and  C_6
REMARK    2  A    between atoms: C_11  and  C_15
REMARK                            x       y       z     vdW  Elec       q    Type
REMARK                         _______ _______ _______ _____ _____    ______ ____
ROOT
ATOM      1  C   UNL     1       5.740  -6.013  27.433  0.00  0.00    +0.063 A 
ATOM      2  C   UNL     1       6.931  -5.264  27.380  0.00  0.00    +0.045 A 
ATOM      3  C   UNL     1       7.158  -4.409  26.292  0.00  0.00    +0.090 A 
ATOM      4  C   UNL     1       6.209  -4.333  25.285  0.00  0.00    +0.067 A 
ATOM      5  N   UNL     1       6.744  -3.437  24.408  0.00  0.00    -0.338 N 
ATOM      6  H   UNL     1       6.381  -3.077  23.526  0.00  0.00    +0.167 HD
ATOM      7  C   UNL     1       7.953  -2.992  24.896  0.00  0.00    +0.139 A 
ATOM      8  C   UNL     1       5.019  -5.054  25.286  0.00  0.00    +0.028 A 
ATOM      9  N   UNL     1       8.226  -3.588  26.049  0.00  0.00    -0.228 NA
ATOM     10  C   UNL     1       4.800  -5.890  26.389  0.00  0.00    +0.018 A 
ENDROOT
BRANCH   7  11
ATOM     11  C   UNL     1       8.739  -1.980  24.160  0.00  0.00    +0.012 A 
ATOM     12  C   UNL     1       8.691  -1.897  22.723  0.00  0.00    -0.097 A 
ATOM     13  O   UNL     1       8.004  -2.675  21.968  0.00  0.00    -0.873 OA
ATOM     14  C   UNL     1       9.477  -0.868  22.157  0.00  0.00    -0.005 A 
ATOM     15  C   UNL     1      10.252   0.014  22.915  0.00  0.00    +0.038 A 
ATOM     16  C   UNL     1      10.270  -0.113  24.289  0.00  0.00    +0.124 A 
ATOM     17  F   UNL     1      11.012   0.730  25.024  0.00  0.00    -0.205 F 
ATOM     18  C   UNL     1       9.526  -1.096  24.919  0.00  0.00    +0.049 A 
ENDBRANCH   7  11
BRANCH   1  22
ATOM     19  N   UNL     1       6.479  -7.253  29.369  0.00  0.00    -0.250 N 
ATOM     20  H   UNL     1       7.404  -6.859  29.221  0.00  0.00    +0.288 HD
ATOM     21  H   UNL     1       6.364  -7.891  30.142  0.00  0.00    +0.288 HD
ATOM     22  C   UNL     1       5.490  -6.916  28.568  0.00  0.00    +0.266 C 
ATOM     23  N   UNL     1       4.278  -7.391  28.770  0.00  0.00    -0.288 N 
ATOM     24  H   UNL     1       4.057  -8.009  29.536  0.00  0.00    +0.301 HD
ATOM     25  H   UNL     1       3.531  -7.157  28.124  0.00  0.00    +0.301 HD
ENDBRANCH   1  22
TORSDOF 2
ENDMDL
MODEL 9
REMARK VINA RESULT:      -6.6      2.790      3.320
REMARK  Name = 
REMARK  2 active torsions:
REMARK  status: ('A' for Active; 'I' for Inactive)
REMARK    1  A    between atoms: C_2  and  C_6
REMARK    2  A    between atoms: C_11  and  C_15
REMARK                            x       y       z     vdW  Elec       q    Type
REMARK                         _______ _______ _______ _____ _____    ______ ____
ROOT
ATOM      1  C   UNL     1       7.680   3.759  22.735  0.00  0.00    +0.063 A 
ATOM      2  C   UNL     1       7.024   2.544  22.457  0.00  0.00    +0.045 A 
ATOM      3  C   UNL     1       7.574   1.343  22.925  0.00  0.00    +0.090 A 
ATOM      4  C   UNL     1       8.759   1.378  23.640  0.00  0.00    +0.067 A 
ATOM      5  N   UNL     1       9.000   0.066  23.925  0.00  0.00    -0.338 N 
ATOM      6  H   UNL     1       9.765  -0.369  24.441  0.00  0.00    +0.167 HD
ATOM      7  C   UNL     1       7.980  -0.703  23.411  0.00  0.00    +0.139 A 
ATOM      8  C   UNL     1       9.450   2.549  23.939  0.00  0.00    +0.028 A 
ATOM      9  N   UNL     1       7.100   0.066  22.784  0.00  0.00    -0.228 NA
ATOM     10  C   UNL     1       8.878   3.741  23.478  0.00  0.00    +0.018 A 
ENDROOT
BRANCH   7  11
ATOM     11  C   UNL     1       7.967  -2.168  23.605  0.00  0.00    +0.012 A 
ATOM     12  C   UNL     1       8.308  -2.756  24.875  0.00  0.00    -0.097 A 
ATOM     13  O   UNL     1       8.661  -2.094  25.917  0.00  0.00    -0.873 OA
ATOM     14  C   UNL     1       8.230  -4.167  24.921  0.00  0.00    -0.005 A 
ATOM     15  C   UNL     1       7.855  -4.953  23.828  0.00  0.00    +0.038 A 
ATOM     16  C   UNL     1       7.546  -4.340  22.630  0.00  0.00    +0.124 A 
ATOM     17  F   UNL     1       7.186  -5.088  21.576  0.00  0.00    -0.205 F 
ATOM     18  C   UNL     1       7.598  -2.963  22.506  0.00  0.00    +0.049 A 
ENDBRANCH   7  11
BRANCH   1  22
ATOM     19  N   UNL     1       5.811   5.204  22.235  0.00  0.00    -0.250 N 
ATOM     20  H   UNL     1       5.200   4.477  22.598  0.00  0.00    +0.288 HD
ATOM     21  H   UNL     1       5.374   6.044  21.884  0.00  0.00    +0.288 HD
ATOM     22  C   UNL     1       7.115   5.028  22.247  0.00  0.00    +0.266 C 
ATOM     23  N   UNL     1       7.919   5.976  21.815  0.00  0.00    -0.288 N 
ATOM     24  H   UNL     1       7.580   6.864  21.474  0.00  0.00    +0.301 HD
ATOM     25  H   UNL     1       8.921   5.816  21.791  0.00  0.00    +0.301 HD
ENDBRANCH   1  22
TORSDOF 2
ENDMDL
