MODEL 1
REMARK VINA RESULT:      -4.7      0.000      0.000
REMARK  Name = 
REMARK  9 active torsions:
REMARK  status: ('A' for Active; 'I' for Inactive)
REMARK    1  A    between atoms: N_1  and  CA_2
REMARK    2  A    between atoms: CA_2  and  C_4
REMARK    3  A    between atoms: CA_2  and  C_12
REMARK    4  A    between atoms: C_4  and  C_5
REMARK    5  A    between atoms: C_5  and  O_7
REMARK    6  A    between atoms: O_7  and  P_8
REMARK    7  A    between atoms: P_8  and  O_9
REMARK    8  A    between atoms: P_8  and  O_10
REMARK    9  A    between atoms: C_12  and  O_13
REMARK                            x       y       z     vdW  Elec       q    Type
REMARK                         _______ _______ _______ _____ _____    ______ ____
ROOT
ATOM      1  C   UNL     1       8.807  -1.448  24.165  0.00  0.00    +0.150 C 
ENDROOT
BRANCH   1   2
ATOM      2  C   UNL     1       9.461  -2.781  24.394  0.00  0.00    +0.317 C 
ATOM      3  O   UNL     1      10.473  -3.149  23.807  0.00  0.00    -0.250 OA
BRANCH   2   4
ATOM      4  O   UNL     1       8.844  -3.474  25.358  0.00  0.00    -0.371 OA
BRANCH   4   5
ATOM      5  P   UNL     1       8.823  -5.068  25.327  0.00  0.00    +0.530 P 
ATOM      6  O   UNL     1       7.916  -5.744  26.291  0.00  0.00    -0.216 OA
BRANCH   5   7
ATOM      7  O   UNL     1      10.356  -5.506  25.445  0.00  0.00    -0.293 OA
ATOM      8  H   UNL     1      10.942  -4.744  25.268  0.00  0.00    +0.223 HD
ENDBRANCH   5   7
BRANCH   5   9
ATOM      9  O   UNL     1       8.480  -5.377  23.797  0.00  0.00    -0.293 OA
ATOM     10  H   UNL     1       7.801  -6.071  23.726  0.00  0.00    +0.223 HD
ENDBRANCH   5   9
ENDBRANCH   4   5
ENDBRANCH   2   4
ENDBRANCH   1   2
BRANCH   1  11
ATOM     11  CA  UNL     1       8.182  -1.406  22.772  0.00  0.00    +0.171 C 
BRANCH  11  12
ATOM     12  N   UNL     1       7.847  -2.758  22.230  0.00  0.00    -0.318 NA
ATOM     13  H1  UNL     1       8.627  -3.402  22.445  0.00  0.00    +0.119 HD
ATOM     14  H2  UNL     1       7.070  -3.138  22.779  0.00  0.00    +0.119 HD
ENDBRANCH  11  12
BRANCH  11  15
ATOM     15  C   UNL     1       9.129  -0.692  21.791  0.00  0.00    +0.322 C 
ATOM     16  OXT UNL     1       9.021   0.478  21.456  0.00  0.00    -0.249 OA
BRANCH  15  17
ATOM     17  O   UNL     1      10.117  -1.512  21.362  0.00  0.00    -0.480 OA
ATOM     18  H   UNL     1      10.608  -1.808  22.170  0.00  0.00    +0.295 HD
ENDBRANCH  15  17
ENDBRANCH  11  15
ENDBRANCH   1  11
TORSDOF 9
ENDMDL
MODEL 2
REMARK VINA RESULT:      -4.5      2.638      5.226
REMARK  Name = 
REMARK  9 active torsions:
REMARK  status: ('A' for Active; 'I' for Inactive)
REMARK    1  A    between atoms: N_1  and  CA_2
REMARK    2  A    between atoms: CA_2  and  C_4
REMARK    3  A    between atoms: CA_2  and  C_12
REMARK    4  A    between atoms: C_4  and  C_5
REMARK    5  A    between atoms: C_5  and  O_7
REMARK    6  A    between atoms: O_7  and  P_8
REMARK    7  A    between atoms: P_8  and  O_9
REMARK    8  A    between atoms: P_8  and  O_10
REMARK    9  A    between atoms: C_12  and  O_13
REMARK                            x       y       z     vdW  Elec       q    Type
REMARK                         _______ _______ _______ _____ _____    ______ ____
ROOT
ATOM      1  C   UNL     1       8.742  -3.359  25.537  0.00  0.00    +0.150 C 
ENDROOT
BRANCH   1   2
ATOM      2  C   UNL     1       8.942  -3.405  24.048  0.00  0.00    +0.317 C 
ATOM      3  O   UNL     1       8.155  -3.943  23.276  0.00  0.00    -0.250 OA
BRANCH   2   4
ATOM      4  O   UNL     1      10.037  -2.733  23.677  0.00  0.00    -0.371 OA
BRANCH   4   5
ATOM      5  P   UNL     1       9.915  -1.302  22.983  0.00  0.00    +0.530 P 
ATOM      6  O   UNL     1      10.693  -0.194  23.595  0.00  0.00    -0.216 OA
BRANCH   5   7
ATOM      7  O   UNL     1       8.344  -1.025  22.874  0.00  0.00    -0.293 OA
ATOM      8  H   UNL     1       8.060  -0.407  23.575  0.00  0.00    +0.223 HD
ENDBRANCH   5   7
BRANCH   5   9
ATOM      9  O   UNL     1      10.328  -1.618  21.472  0.00  0.00    -0.293 OA
ATOM     10  H   UNL     1      11.169  -2.107  21.435  0.00  0.00    +0.223 HD
ENDBRANCH   5   9
ENDBRANCH   4   5
ENDBRANCH   2   4
ENDBRANCH   1   2
BRANCH   1  11
ATOM     11  CA  UNL     1       9.041  -4.728  26.146  0.00  0.00    +0.171 C 
BRANCH  11  12
ATOM     12  N   UNL     1       9.851  -5.612  25.252  0.00  0.00    -0.318 NA
ATOM     13  H1  UNL     1       9.970  -5.138  24.341  0.00  0.00    +0.119 HD
ATOM     14  H2  UNL     1      10.805  -5.652  25.623  0.00  0.00    +0.119 HD
ENDBRANCH  11  12
BRANCH  11  15
ATOM     15  C   UNL     1       7.727  -5.443  26.504  0.00  0.00    +0.322 C 
ATOM     16  OXT UNL     1       6.771  -5.549  25.751  0.00  0.00    -0.249 OA
BRANCH  15  17
ATOM     17  O   UNL     1       7.766  -5.968  27.752  0.00  0.00    -0.480 OA
ATOM     18  H   UNL     1       7.221  -5.372  28.325  0.00  0.00    +0.295 HD
ENDBRANCH  15  17
ENDBRANCH  11  15
ENDBRANCH   1  11
TORSDOF 9
ENDMDL
MODEL 3
REMARK VINA RESULT:      -4.4      3.014      3.924
REMARK  Name = 
REMARK  9 active torsions:
REMARK  status: ('A' for Active; 'I' for Inactive)
REMARK    1  A    between atoms: N_1  and  CA_2
REMARK    2  A    between atoms: CA_2  and  C_4
REMARK    3  A    between atoms: CA_2  and  C_12
REMARK    4  A    between atoms: C_4  and  C_5
REMARK    5  A    between atoms: C_5  and  O_7
REMARK    6  A    between atoms: O_7  and  P_8
REMARK    7  A    between atoms: P_8  and  O_9
REMARK    8  A    between atoms: P_8  and  O_10
REMARK    9  A    between atoms: C_12  and  O_13
REMARK                            x       y       z     vdW  Elec       q    Type
REMARK                         _______ _______ _______ _____ _____    ______ ____
ROOT
ATOM      1  C   UNL     1      10.184   1.839  24.285  0.00  0.00    +0.150 C 
ENDROOT
BRANCH   1   2
ATOM      2  C   UNL     1      10.099   0.377  24.621  0.00  0.00    +0.317 C 
ATOM      3  O   UNL     1       9.517  -0.058  25.609  0.00  0.00    -0.250 OA
BRANCH   2   4
ATOM      4  O   UNL     1      10.672  -0.380  23.679  0.00  0.00    -0.371 OA
BRANCH   4   5
ATOM      5  P   UNL     1       9.907  -1.642  23.074  0.00  0.00    +0.530 P 
ATOM      6  O   UNL     1      10.164  -2.954  23.723  0.00  0.00    -0.216 OA
BRANCH   5   7
ATOM      7  O   UNL     1      10.222  -1.607  21.507  0.00  0.00    -0.293 OA
ATOM      8  H   UNL     1      11.174  -1.758  21.349  0.00  0.00    +0.223 HD
ENDBRANCH   5   7
BRANCH   5   9
ATOM      9  O   UNL     1       8.378  -1.182  23.142  0.00  0.00    -0.293 OA
ATOM     10  H   UNL     1       7.828  -1.711  22.538  0.00  0.00    +0.223 HD
ENDBRANCH   5   9
ENDBRANCH   4   5
ENDBRANCH   2   4
ENDBRANCH   1   2
BRANCH   1  11
ATOM     11  CA  UNL     1       8.919   2.280  23.552  0.00  0.00    +0.171 C 
BRANCH  11  12
ATOM     12  N   UNL     1       7.675   1.635  24.073  0.00  0.00    -0.318 NA
ATOM     13  H1  UNL     1       7.941   0.795  24.613  0.00  0.00    +0.119 HD
ATOM     14  H2  UNL     1       7.269   2.253  24.784  0.00  0.00    +0.119 HD
ENDBRANCH  11  12
BRANCH  11  15
ATOM     15  C   UNL     1       9.049   1.979  22.049  0.00  0.00    +0.322 C 
ATOM     16  OXT UNL     1       8.165   1.483  21.365  0.00  0.00    -0.249 OA
BRANCH  15  17
ATOM     17  O   UNL     1      10.256   2.354  21.565  0.00  0.00    -0.480 OA
ATOM     18  H   UNL     1      10.143   2.477  20.589  0.00  0.00    +0.295 HD
ENDBRANCH  15  17
ENDBRANCH  11  15
ENDBRANCH   1  11
TORSDOF 9
ENDMDL
MODEL 4
REMARK VINA RESULT:      -4.3      3.362      4.541
REMARK  Name = 
REMARK  9 active torsions:
REMARK  status: ('A' for Active; 'I' for Inactive)
REMARK    1  A    between atoms: N_1  and  CA_2
REMARK    2  A    between atoms: CA_2  and  C_4
REMARK    3  A    between atoms: CA_2  and  C_12
REMARK    4  A    between atoms: C_4  and  C_5
REMARK    5  A    between atoms: C_5  and  O_7
REMARK    6  A    between atoms: O_7  and  P_8
REMARK    7  A    between atoms: P_8  and  O_9
REMARK    8  A    between atoms: P_8  and  O_10
REMARK    9  A    between atoms: C_12  and  O_13
REMARK                            x       y       z     vdW  Elec       q    Type
REMARK                         _______ _______ _______ _____ _____    ______ ____
ROOT
ATOM      1  C   UNL     1       8.333   1.838  23.832  0.00  0.00    +0.150 C 
ENDROOT
BRANCH   1   2
ATOM      2  C   UNL     1       8.027   0.502  23.215  0.00  0.00    +0.317 C 
ATOM      3  O   UNL     1       7.068   0.301  22.479  0.00  0.00    -0.250 OA
BRANCH   2   4
ATOM      4  O   UNL     1       8.964  -0.405  23.513  0.00  0.00    -0.371 OA
BRANCH   4   5
ATOM      5  P   UNL     1       9.380  -1.522  22.453  0.00  0.00    +0.530 P 
ATOM      6  O   UNL     1      10.559  -2.361  22.794  0.00  0.00    -0.216 OA
BRANCH   5   7
ATOM      7  O   UNL     1       9.503  -0.747  21.060  0.00  0.00    -0.293 OA
ATOM      8  H   UNL     1       8.800  -0.072  20.984  0.00  0.00    +0.223 HD
ENDBRANCH   5   7
BRANCH   5   9
ATOM      9  O   UNL     1       8.027  -2.354  22.282  0.00  0.00    -0.293 OA
ATOM     10  H   UNL     1       7.899  -2.968  23.027  0.00  0.00    +0.223 HD
ENDBRANCH   5   9
ENDBRANCH   4   5
ENDBRANCH   2   4
ENDBRANCH   1   2
BRANCH   1  11
ATOM     11  CA  UNL     1       9.234   2.648  22.902  0.00  0.00    +0.171 C 
BRANCH  11  12
ATOM     12  N   UNL     1       9.305   2.095  21.514  0.00  0.00    -0.318 NA
ATOM     13  H1  UNL     1      10.266   1.756  21.344  0.00  0.00    +0.119 HD
ATOM     14  H2  UNL     1       8.744   1.238  21.483  0.00  0.00    +0.119 HD
ENDBRANCH  11  12
BRANCH  11  15
ATOM     15  C   UNL     1      10.656   2.729  23.484  0.00  0.00    +0.322 C 
ATOM     16  OXT UNL     1      11.396   3.694  23.364  0.00  0.00    -0.249 OA
BRANCH  15  17
ATOM     17  O   UNL     1      10.981   1.609  24.171  0.00  0.00    -0.480 OA
ATOM     18  H   UNL     1      11.421   1.000  23.524  0.00  0.00    +0.295 HD
ENDBRANCH  15  17
ENDBRANCH  11  15
ENDBRANCH   1  11
TORSDOF 9
ENDMDL
MODEL 5
REMARK VINA RESULT:      -4.3      2.542      5.096
REMARK  Name = 
REMARK  9 active torsions:
REMARK  status: ('A' for Active; 'I' for Inactive)
REMARK    1  A    between atoms: N_1  and  CA_2
REMARK    2  A    between atoms: CA_2  and  C_4
REMARK    3  A    between atoms: CA_2  and  C_12
REMARK    4  A    between atoms: C_4  and  C_5
REMARK    5  A    between atoms: C_5  and  O_7
REMARK    6  A    between atoms: O_7  and  P_8
REMARK    7  A    between atoms: P_8  and  O_9
REMARK    8  A    between atoms: P_8  and  O_10
REMARK    9  A    between atoms: C_12  and  O_13
REMARK                            x       y       z     vdW  Elec       q    Type
REMARK                         _______ _______ _______ _____ _____    ______ ____
ROOT
ATOM      1  C   UNL     1       7.582  -4.082  24.564  0.00  0.00    +0.150 C 
ENDROOT
BRANCH   1   2
ATOM      2  C   UNL     1       8.772  -3.409  23.939  0.00  0.00    +0.317 C 
ATOM      3  O   UNL     1       9.932  -3.712  24.194  0.00  0.00    -0.250 OA
BRANCH   2   4
ATOM      4  O   UNL     1       8.402  -2.500  23.030  0.00  0.00    -0.371 OA
BRANCH   4   5
ATOM      5  P   UNL     1       9.288  -1.199  22.776  0.00  0.00    +0.530 P 
ATOM      6  O   UNL     1       8.598  -0.025  22.182  0.00  0.00    -0.216 OA
BRANCH   5   7
ATOM      7  O   UNL     1      10.552  -1.713  21.942  0.00  0.00    -0.293 OA
ATOM      8  H   UNL     1      10.528  -2.686  21.855  0.00  0.00    +0.223 HD
ENDBRANCH   5   7
BRANCH   5   9
ATOM      9  O   UNL     1       9.906  -0.916  24.222  0.00  0.00    -0.293 OA
ATOM     10  H   UNL     1      10.879  -0.937  24.196  0.00  0.00    +0.223 HD
ENDBRANCH   5   9
ENDBRANCH   4   5
ENDBRANCH   2   4
ENDBRANCH   1   2
BRANCH   1  11
ATOM     11  CA  UNL     1       7.524  -3.758  26.055  0.00  0.00    +0.171 C 
BRANCH  11  12
ATOM     12  N   UNL     1       8.263  -2.511  26.421  0.00  0.00    -0.318 NA
ATOM     13  H1  UNL     1       8.687  -2.641  27.354  0.00  0.00    +0.119 HD
ATOM     14  H2  UNL     1       9.075  -2.428  25.802  0.00  0.00    +0.119 HD
ENDBRANCH  11  12
BRANCH  11  15
ATOM     15  C   UNL     1       8.085  -4.933  26.873  0.00  0.00    +0.322 C 
ATOM     16  OXT UNL     1       7.410  -5.850  27.317  0.00  0.00    -0.249 OA
BRANCH  15  17
ATOM     17  O   UNL     1       9.428  -4.844  27.021  0.00  0.00    -0.480 OA
ATOM     18  H   UNL     1       9.648  -3.878  27.020  0.00  0.00    +0.295 HD
ENDBRANCH  15  17
ENDBRANCH  11  15
ENDBRANCH   1  11
TORSDOF 9
ENDMDL
MODEL 6
REMARK VINA RESULT:      -4.2      3.820      4.391
REMARK  Name = 
REMARK  9 active torsions:
REMARK  status: ('A' for Active; 'I' for Inactive)
REMARK    1  A    between atoms: N_1  and  CA_2
REMARK    2  A    between atoms: CA_2  and  C_4
REMARK    3  A    between atoms: CA_2  and  C_12
REMARK    4  A    between atoms: C_4  and  C_5
REMARK    5  A    between atoms: C_5  and  O_7
REMARK    6  A    between atoms: O_7  and  P_8
REMARK    7  A    between atoms: P_8  and  O_9
REMARK    8  A    between atoms: P_8  and  O_10
REMARK    9  A    between atoms: C_12  and  O_13
REMARK                            x       y       z     vdW  Elec       q    Type
REMARK                         _______ _______ _______ _____ _____    ______ ____
ROOT
ATOM      1  C   UNL     1       5.715  -4.320  23.554  0.00  0.00    +0.150 C 
ENDROOT
BRANCH   1   2
ATOM      2  C   UNL     1       6.195  -4.825  24.886  0.00  0.00    +0.317 C 
ATOM      3  O   UNL     1       5.481  -4.895  25.880  0.00  0.00    -0.250 OA
BRANCH   2   4
ATOM      4  O   UNL     1       7.463  -5.248  24.825  0.00  0.00    -0.371 OA
BRANCH   4   5
ATOM      5  P   UNL     1       8.455  -5.018  26.052  0.00  0.00    +0.530 P 
ATOM      6  O   UNL     1       8.644  -3.615  26.506  0.00  0.00    -0.216 OA
BRANCH   5   7
ATOM      7  O   UNL     1       9.807  -5.766  25.638  0.00  0.00    -0.293 OA
ATOM      8  H   UNL     1       9.944  -6.554  26.199  0.00  0.00    +0.223 HD
ENDBRANCH   5   7
BRANCH   5   9
ATOM      9  O   UNL     1       7.844  -5.978  27.173  0.00  0.00    -0.293 OA
ATOM     10  H   UNL     1       6.956  -6.288  26.920  0.00  0.00    +0.223 HD
ENDBRANCH   5   9
ENDBRANCH   4   5
ENDBRANCH   2   4
ENDBRANCH   1   2
BRANCH   1  11
ATOM     11  CA  UNL     1       5.225  -5.487  22.699  0.00  0.00    +0.171 C 
BRANCH  11  12
ATOM     12  N   UNL     1       5.039  -6.753  23.473  0.00  0.00    -0.318 NA
ATOM     13  H1  UNL     1       5.845  -6.872  24.108  0.00  0.00    +0.119 HD
ATOM     14  H2  UNL     1       4.251  -6.622  24.114  0.00  0.00    +0.119 HD
ENDBRANCH  11  12
BRANCH  11  15
ATOM     15  C   UNL     1       6.208  -5.743  21.544  0.00  0.00    +0.322 C 
ATOM     16  OXT UNL     1       5.949  -5.558  20.364  0.00  0.00    -0.249 OA
BRANCH  15  17
ATOM     17  O   UNL     1       7.409  -6.175  21.994  0.00  0.00    -0.480 OA
ATOM     18  H   UNL     1       7.230  -6.693  22.820  0.00  0.00    +0.295 HD
ENDBRANCH  15  17
ENDBRANCH  11  15
ENDBRANCH   1  11
TORSDOF 9
ENDMDL
MODEL 7
REMARK VINA RESULT:      -4.2      3.598      4.595
REMARK  Name = 
REMARK  9 active torsions:
REMARK  status: ('A' for Active; 'I' for Inactive)
REMARK    1  A    between atoms: N_1  and  CA_2
REMARK    2  A    between atoms: CA_2  and  C_4
REMARK    3  A    between atoms: CA_2  and  C_12
REMARK    4  A    between atoms: C_4  and  C_5
REMARK    5  A    between atoms: C_5  and  O_7
REMARK    6  A    between atoms: O_7  and  P_8
REMARK    7  A    between atoms: P_8  and  O_9
REMARK    8  A    between atoms: P_8  and  O_10
REMARK    9  A    between atoms: C_12  and  O_13
REMARK                            x       y       z     vdW  Elec       q    Type
REMARK                         _______ _______ _______ _____ _____    ______ ____
ROOT
ATOM      1  C   UNL     1       9.255   1.737  24.155  0.00  0.00    +0.150 C 
ENDROOT
BRANCH   1   2
ATOM      2  C   UNL     1       9.846   0.406  23.783  0.00  0.00    +0.317 C 
ATOM      3  O   UNL     1      11.050   0.175  23.786  0.00  0.00    -0.250 OA
BRANCH   2   4
ATOM      4  O   UNL     1       8.896  -0.499  23.521  0.00  0.00    -0.371 OA
BRANCH   4   5
ATOM      5  P   UNL     1       9.154  -1.665  22.464  0.00  0.00    +0.530 P 
ATOM      6  O   UNL     1       7.980  -2.489  22.077  0.00  0.00    -0.216 OA
BRANCH   5   7
ATOM      7  O   UNL     1      10.380  -2.502  23.059  0.00  0.00    -0.293 OA
ATOM      8  H   UNL     1      10.942  -1.930  23.618  0.00  0.00    +0.223 HD
ENDBRANCH   5   7
BRANCH   5   9
ATOM      9  O   UNL     1       9.818  -0.879  21.241  0.00  0.00    -0.293 OA
ATOM     10  H   UNL     1       9.624   0.073  21.293  0.00  0.00    +0.223 HD
ENDBRANCH   5   9
ENDBRANCH   4   5
ENDBRANCH   2   4
ENDBRANCH   1   2
BRANCH   1  11
ATOM     11  CA  UNL     1       9.402   2.715  22.991  0.00  0.00    +0.171 C 
BRANCH  11  12
ATOM     12  N   UNL     1       9.821   2.061  21.714  0.00  0.00    -0.318 NA
ATOM     13  H1  UNL     1      10.508   1.321  21.933  0.00  0.00    +0.119 HD
ATOM     14  H2  UNL     1       9.021   1.538  21.346  0.00  0.00    +0.119 HD
ENDBRANCH  11  12
BRANCH  11  15
ATOM     15  C   UNL     1      10.418   3.813  23.351  0.00  0.00    +0.322 C 
ATOM     16  OXT UNL     1      11.615   3.621  23.506  0.00  0.00    -0.249 OA
BRANCH  15  17
ATOM     17  O   UNL     1       9.829   5.028  23.451  0.00  0.00    -0.480 OA
ATOM     18  H   UNL     1       9.745   5.377  22.527  0.00  0.00    +0.295 HD
ENDBRANCH  15  17
ENDBRANCH  11  15
ENDBRANCH   1  11
TORSDOF 9
ENDMDL
MODEL 8
REMARK VINA RESULT:      -4.2      2.486      5.161
REMARK  Name = 
REMARK  9 active torsions:
REMARK  status: ('A' for Active; 'I' for Inactive)
REMARK    1  A    between atoms: N_1  and  CA_2
REMARK    2  A    between atoms: CA_2  and  C_4
REMARK    3  A    between atoms: CA_2  and  C_12
REMARK    4  A    between atoms: C_4  and  C_5
REMARK    5  A    between atoms: C_5  and  O_7
REMARK    6  A    between atoms: O_7  and  P_8
REMARK    7  A    between atoms: P_8  and  O_9
REMARK    8  A    between atoms: P_8  and  O_10
REMARK    9  A    between atoms: C_12  and  O_13
REMARK                            x       y       z     vdW  Elec       q    Type
REMARK                         _______ _______ _______ _____ _____    ______ ____
ROOT
ATOM      1  C   UNL     1       8.414  -2.184  22.218  0.00  0.00    +0.150 C 
ENDROOT
BRANCH   1   2
ATOM      2  C   UNL     1       9.699  -1.419  22.061  0.00  0.00    +0.317 C 
ATOM      3  O   UNL     1      10.800  -1.882  22.338  0.00  0.00    -0.250 OA
BRANCH   2   4
ATOM      4  O   UNL     1       9.491  -0.213  21.522  0.00  0.00    -0.371 OA
BRANCH   4   5
ATOM      5  P   UNL     1       9.472   1.094  22.436  0.00  0.00    +0.530 P 
ATOM      6  O   UNL     1       8.176   1.446  23.072  0.00  0.00    -0.216 OA
BRANCH   5   7
ATOM      7  O   UNL     1      10.095   2.249  21.523  0.00  0.00    -0.293 OA
ATOM      8  H   UNL     1       9.761   3.123  21.806  0.00  0.00    +0.223 HD
ENDBRANCH   5   7
BRANCH   5   9
ATOM      9  O   UNL     1      10.641   0.797  23.484  0.00  0.00    -0.293 OA
ATOM     10  H   UNL     1      11.395   0.358  23.051  0.00  0.00    +0.223 HD
ENDBRANCH   5   9
ENDBRANCH   4   5
ENDBRANCH   2   4
ENDBRANCH   1   2
BRANCH   1  11
ATOM     11  CA  UNL     1       8.138  -2.440  23.699  0.00  0.00    +0.171 C 
BRANCH  11  12
ATOM     12  N   UNL     1       8.814  -1.464  24.607  0.00  0.00    -0.318 NA
ATOM     13  H1  UNL     1       9.156  -1.971  25.440  0.00  0.00    +0.119 HD
ATOM     14  H2  UNL     1       9.677  -1.150  24.152  0.00  0.00    +0.119 HD
ENDBRANCH  11  12
BRANCH  11  15
ATOM     15  C   UNL     1       8.574  -3.866  24.077  0.00  0.00    +0.322 C 
ATOM     16  OXT UNL     1       7.841  -4.843  24.046  0.00  0.00    -0.249 OA
BRANCH  15  17
ATOM     17  O   UNL     1       9.882  -3.913  24.425  0.00  0.00    -0.480 OA
ATOM     18  H   UNL     1      10.239  -4.763  24.062  0.00  0.00    +0.295 HD
ENDBRANCH  15  17
ENDBRANCH  11  15
ENDBRANCH   1  11
TORSDOF 9
ENDMDL
MODEL 9
REMARK VINA RESULT:      -4.2      3.178      5.909
REMARK  Name = 
REMARK  9 active torsions:
REMARK  status: ('A' for Active; 'I' for Inactive)
REMARK    1  A    between atoms: N_1  and  CA_2
REMARK    2  A    between atoms: CA_2  and  C_4
REMARK    3  A    between atoms: CA_2  and  C_12
REMARK    4  A    between atoms: C_4  and  C_5
REMARK    5  A    between atoms: C_5  and  O_7
REMARK    6  A    between atoms: O_7  and  P_8
REMARK    7  A    between atoms: P_8  and  O_9
REMARK    8  A    between atoms: P_8  and  O_10
REMARK    9  A    between atoms: C_12  and  O_13
REMARK                            x       y       z     vdW  Elec       q    Type
REMARK                         _______ _______ _______ _____ _____    ______ ____
ROOT
ATOM      1  C   UNL     1       9.452  -0.511  21.490  0.00  0.00    +0.150 C 
ENDROOT
BRANCH   1   2
ATOM      2  C   UNL     1       9.211   0.971  21.573  0.00  0.00    +0.317 C 
ATOM      3  O   UNL     1       8.183   1.512  21.181  0.00  0.00    -0.250 OA
BRANCH   2   4
ATOM      4  O   UNL     1      10.220   1.600  22.185  0.00  0.00    -0.371 OA
BRANCH   4   5
ATOM      5  P   UNL     1       9.935   2.642  23.358  0.00  0.00    +0.530 P 
ATOM      6  O   UNL     1       9.444   2.083  24.644  0.00  0.00    -0.216 OA
BRANCH   5   7
ATOM      7  O   UNL     1       8.978   3.747  22.710  0.00  0.00    -0.293 OA
ATOM      8  H   UNL     1       8.102   3.732  23.142  0.00  0.00    +0.223 HD
ENDBRANCH   5   7
BRANCH   5   9
ATOM      9  O   UNL     1      11.332   3.408  23.483  0.00  0.00    -0.293 OA
ATOM     10  H   UNL     1      12.044   2.907  23.048  0.00  0.00    +0.223 HD
ENDBRANCH   5   9
ENDBRANCH   4   5
ENDBRANCH   2   4
ENDBRANCH   1   2
BRANCH   1  11
ATOM     11  CA  UNL     1       8.777  -1.215  22.665  0.00  0.00    +0.171 C 
BRANCH  11  12
ATOM     12  N   UNL     1       7.800  -0.351  23.394  0.00  0.00    -0.318 NA
ATOM     13  H1  UNL     1       7.643   0.508  22.842  0.00  0.00    +0.119 HD
ATOM     14  H2  UNL     1       6.886  -0.814  23.373  0.00  0.00    +0.119 HD
ENDBRANCH  11  12
BRANCH  11  15
ATOM     15  C   UNL     1       9.840  -1.720  23.657  0.00  0.00    +0.322 C 
ATOM     16  OXT UNL     1      10.200  -2.884  23.750  0.00  0.00    -0.249 OA
BRANCH  15  17
ATOM     17  O   UNL     1      10.351  -0.710  24.400  0.00  0.00    -0.480 OA
ATOM     18  H   UNL     1       9.588  -0.305  24.886  0.00  0.00    +0.295 HD
ENDBRANCH  15  17
ENDBRANCH  11  15
ENDBRANCH   1  11
TORSDOF 9
ENDMDL
