MODEL 1
REMARK VINA RESULT:      -4.8      0.000      0.000
REMARK  Name = 
REMARK  9 active torsions:
REMARK  status: ('A' for Active; 'I' for Inactive)
REMARK    1  A    between atoms: C_1  and  N_2
REMARK    2  A    between atoms: N_2  and  C_3
REMARK    3  A    between atoms: C_3  and  N_5
REMARK    4  A    between atoms: N_5  and  C_6
REMARK    5  A    between atoms: C_6  and  C_7
REMARK    6  A    between atoms: C_7  and  S_8
REMARK    7  A    between atoms: S_8  and  C_9
REMARK    8  A    between atoms: C_9  and  C_10
REMARK    9  A    between atoms: C_11  and  C_12
REMARK                            x       y       z     vdW  Elec       q    Type
REMARK                         _______ _______ _______ _____ _____    ______ ____
ROOT
ATOM      1  C   UNL     1       8.532  -1.711  22.211  0.00  0.00    +0.088 C 
ENDROOT
BRANCH   1   2
ATOM      2  C   UNL     1       9.903  -1.731  22.888  0.00  0.00    +0.114 C 
BRANCH   2   3
ATOM      3  N   UNL     1       9.855  -1.470  24.323  0.00  0.00    -0.326 N 
ATOM      4  H   UNL     1       9.406  -2.170  24.896  0.00  0.00    +0.148 HD
BRANCH   3   5
ATOM      5  C   UNL     1       9.963  -0.224  24.875  0.00  0.00    +0.130 C 
ATOM      6  S   UNL     1      10.632   1.127  24.155  0.00  0.00    -0.019 S 
BRANCH   5   8
ATOM      7  C   UNL     1       8.562  -0.938  26.848  0.00  0.00    +0.127 C 
ATOM      8  N   UNL     1       9.496  -0.091  26.145  0.00  0.00    -0.330 N 
ATOM      9  H   UNL     1       9.947   0.649  26.670  0.00  0.00    +0.147 HD
ENDBRANCH   5   8
ENDBRANCH   3   5
ENDBRANCH   2   3
ENDBRANCH   1   2
BRANCH   1  10
ATOM     10  S   UNL     1       7.343  -2.396  23.401  0.00  0.00    -0.153 S 
BRANCH  10  11
ATOM     11  C   UNL     1       7.642  -4.182  23.175  0.00  0.00    +0.126 C 
BRANCH  11  12
ATOM     12  C   UNL     1       8.213  -4.747  24.434  0.00  0.00    +0.072 A 
ATOM     13  N   UNL     1       9.572  -4.708  24.670  0.00  0.00    -0.240 NA
ATOM     14  C   UNL     1       9.739  -5.186  25.880  0.00  0.00    +0.197 A 
ATOM     15  N   UNL     1       8.551  -5.569  26.433  0.00  0.00    -0.348 N 
ATOM     16  H   UNL     1       8.427  -5.939  27.365  0.00  0.00    +0.166 HD
ATOM     17  C   UNL     1       7.561  -5.323  25.516  0.00  0.00    +0.036 A 
ATOM     18  C   UNL     1       6.132  -5.586  25.796  0.00  0.00    +0.065 C 
ENDBRANCH  11  12
ENDBRANCH  10  11
ENDBRANCH   1  10
TORSDOF 7
ENDMDL
MODEL 2
REMARK VINA RESULT:      -4.8      2.080      2.455
REMARK  Name = 
REMARK  9 active torsions:
REMARK  status: ('A' for Active; 'I' for Inactive)
REMARK    1  A    between atoms: C_1  and  N_2
REMARK    2  A    between atoms: N_2  and  C_3
REMARK    3  A    between atoms: C_3  and  N_5
REMARK    4  A    between atoms: N_5  and  C_6
REMARK    5  A    between atoms: C_6  and  C_7
REMARK    6  A    between atoms: C_7  and  S_8
REMARK    7  A    between atoms: S_8  and  C_9
REMARK    8  A    between atoms: C_9  and  C_10
REMARK    9  A    between atoms: C_11  and  C_12
REMARK                            x       y       z     vdW  Elec       q    Type
REMARK                         _______ _______ _______ _____ _____    ______ ____
ROOT
ATOM      1  C   UNL     1       7.917  -1.646  22.437  0.00  0.00    +0.088 C 
ENDROOT
BRANCH   1   2
ATOM      2  C   UNL     1       9.386  -1.638  22.010  0.00  0.00    +0.114 C 
BRANCH   2   3
ATOM      3  N   UNL     1       9.824  -0.372  21.431  0.00  0.00    -0.326 N 
ATOM      4  H   UNL     1      10.481  -0.428  20.666  0.00  0.00    +0.148 HD
BRANCH   3   5
ATOM      5  C   UNL     1       9.769   0.825  22.089  0.00  0.00    +0.130 C 
ATOM      6  S   UNL     1      10.376   1.152  23.611  0.00  0.00    -0.019 S 
BRANCH   5   8
ATOM      7  C   UNL     1       7.898   2.492  21.789  0.00  0.00    +0.127 C 
ATOM      8  N   UNL     1       9.135   1.836  21.436  0.00  0.00    -0.330 N 
ATOM      9  H   UNL     1       9.666   2.219  20.663  0.00  0.00    +0.147 HD
ENDBRANCH   5   8
ENDBRANCH   3   5
ENDBRANCH   2   3
ENDBRANCH   1   2
BRANCH   1  10
ATOM     10  S   UNL     1       7.375  -3.380  22.437  0.00  0.00    -0.153 S 
BRANCH  10  11
ATOM     11  C   UNL     1       6.820  -3.552  24.166  0.00  0.00    +0.126 C 
BRANCH  11  12
ATOM     12  C   UNL     1       7.781  -4.425  24.905  0.00  0.00    +0.072 A 
ATOM     13  N   UNL     1       9.114  -4.460  24.553  0.00  0.00    -0.240 NA
ATOM     14  C   UNL     1       9.697  -5.233  25.438  0.00  0.00    +0.197 A 
ATOM     15  N   UNL     1       8.797  -5.733  26.334  0.00  0.00    -0.348 N 
ATOM     16  H   UNL     1       9.016  -6.328  27.121  0.00  0.00    +0.166 HD
ATOM     17  C   UNL     1       7.556  -5.252  25.997  0.00  0.00    +0.036 A 
ATOM     18  C   UNL     1       6.342  -5.564  26.781  0.00  0.00    +0.065 C 
ENDBRANCH  11  12
ENDBRANCH  10  11
ENDBRANCH   1  10
TORSDOF 7
ENDMDL
MODEL 3
REMARK VINA RESULT:      -4.7      2.751      3.493
REMARK  Name = 
REMARK  9 active torsions:
REMARK  status: ('A' for Active; 'I' for Inactive)
REMARK    1  A    between atoms: C_1  and  N_2
REMARK    2  A    between atoms: N_2  and  C_3
REMARK    3  A    between atoms: C_3  and  N_5
REMARK    4  A    between atoms: N_5  and  C_6
REMARK    5  A    between atoms: C_6  and  C_7
REMARK    6  A    between atoms: C_7  and  S_8
REMARK    7  A    between atoms: S_8  and  C_9
REMARK    8  A    between atoms: C_9  and  C_10
REMARK    9  A    between atoms: C_11  and  C_12
REMARK                            x       y       z     vdW  Elec       q    Type
REMARK                         _______ _______ _______ _____ _____    ______ ____
ROOT
ATOM      1  C   UNL     1       9.431  -2.253  23.421  0.00  0.00    +0.088 C 
ENDROOT
BRANCH   1   2
ATOM      2  C   UNL     1       9.081  -1.819  21.996  0.00  0.00    +0.114 C 
BRANCH   2   3
ATOM      3  N   UNL     1       9.857  -0.679  21.520  0.00  0.00    -0.326 N 
ATOM      4  H   UNL     1      10.770  -0.881  21.139  0.00  0.00    +0.148 HD
BRANCH   3   5
ATOM      5  C   UNL     1       9.650   0.608  21.932  0.00  0.00    +0.130 C 
ATOM      6  S   UNL     1      10.322   1.343  23.273  0.00  0.00    -0.019 S 
BRANCH   5   8
ATOM      7  C   UNL     1       7.656   2.122  21.615  0.00  0.00    +0.127 C 
ATOM      8  N   UNL     1       8.791   1.345  21.177  0.00  0.00    -0.330 N 
ATOM      9  H   UNL     1       9.061   1.415  20.203  0.00  0.00    +0.147 HD
ENDBRANCH   5   8
ENDBRANCH   3   5
ENDBRANCH   2   3
ENDBRANCH   1   2
BRANCH   1  10
ATOM     10  S   UNL     1       7.908  -2.908  24.164  0.00  0.00    -0.153 S 
BRANCH  10  11
ATOM     11  C   UNL     1       8.151  -4.696  23.894  0.00  0.00    +0.126 C 
BRANCH  11  12
ATOM     12  C   UNL     1       7.051  -5.215  23.027  0.00  0.00    +0.072 A 
ATOM     13  N   UNL     1       7.202  -5.273  21.657  0.00  0.00    -0.240 NA
ATOM     14  C   UNL     1       6.117  -5.854  21.202  0.00  0.00    +0.197 A 
ATOM     15  N   UNL     1       5.248  -6.148  22.212  0.00  0.00    -0.348 N 
ATOM     16  H   UNL     1       4.361  -6.621  22.108  0.00  0.00    +0.166 HD
ATOM     17  C   UNL     1       5.811  -5.722  23.389  0.00  0.00    +0.036 A 
ATOM     18  C   UNL     1       5.154  -5.913  24.701  0.00  0.00    +0.065 C 
ENDBRANCH  11  12
ENDBRANCH  10  11
ENDBRANCH   1  10
TORSDOF 7
ENDMDL
MODEL 4
REMARK VINA RESULT:      -4.6      2.867      3.612
REMARK  Name = 
REMARK  9 active torsions:
REMARK  status: ('A' for Active; 'I' for Inactive)
REMARK    1  A    between atoms: C_1  and  N_2
REMARK    2  A    between atoms: N_2  and  C_3
REMARK    3  A    between atoms: C_3  and  N_5
REMARK    4  A    between atoms: N_5  and  C_6
REMARK    5  A    between atoms: C_6  and  C_7
REMARK    6  A    between atoms: C_7  and  S_8
REMARK    7  A    between atoms: S_8  and  C_9
REMARK    8  A    between atoms: C_9  and  C_10
REMARK    9  A    between atoms: C_11  and  C_12
REMARK                            x       y       z     vdW  Elec       q    Type
REMARK                         _______ _______ _______ _____ _____    ______ ____
ROOT
ATOM      1  C   UNL     1       9.794  -1.832  23.261  0.00  0.00    +0.088 C 
ENDROOT
BRANCH   1   2
ATOM      2  C   UNL     1       9.189  -1.543  21.886  0.00  0.00    +0.114 C 
BRANCH   2   3
ATOM      3  N   UNL     1       9.613  -0.271  21.312  0.00  0.00    -0.326 N 
ATOM      4  H   UNL     1      10.502  -0.264  20.833  0.00  0.00    +0.148 HD
BRANCH   3   5
ATOM      5  C   UNL     1       9.146   0.946  21.726  0.00  0.00    +0.130 C 
ATOM      6  S   UNL     1       7.574   1.313  22.153  0.00  0.00    -0.019 S 
BRANCH   5   8
ATOM      7  C   UNL     1      10.533   2.683  22.921  0.00  0.00    +0.127 C 
ATOM      8  N   UNL     1      10.059   1.953  21.769  0.00  0.00    -0.330 N 
ATOM      9  H   UNL     1      10.516   2.127  20.882  0.00  0.00    +0.147 HD
ENDBRANCH   5   8
ENDBRANCH   3   5
ENDBRANCH   2   3
ENDBRANCH   1   2
BRANCH   1  10
ATOM     10  S   UNL     1       8.854  -3.214  23.973  0.00  0.00    -0.153 S 
BRANCH  10  11
ATOM     11  C   UNL     1       7.569  -3.432  22.696  0.00  0.00    +0.126 C 
BRANCH  11  12
ATOM     12  C   UNL     1       6.700  -4.589  23.068  0.00  0.00    +0.072 A 
ATOM     13  N   UNL     1       6.307  -4.782  24.376  0.00  0.00    -0.240 NA
ATOM     14  C   UNL     1       5.488  -5.807  24.355  0.00  0.00    +0.197 A 
ATOM     15  N   UNL     1       5.355  -6.313  23.094  0.00  0.00    -0.348 N 
ATOM     16  H   UNL     1       4.757  -7.084  22.828  0.00  0.00    +0.166 HD
ATOM     17  C   UNL     1       6.144  -5.567  22.255  0.00  0.00    +0.036 A 
ATOM     18  C   UNL     1       6.216  -5.816  20.799  0.00  0.00    +0.065 C 
ENDBRANCH  11  12
ENDBRANCH  10  11
ENDBRANCH   1  10
TORSDOF 7
ENDMDL
MODEL 5
REMARK VINA RESULT:      -4.6      1.679      1.951
REMARK  Name = 
REMARK  9 active torsions:
REMARK  status: ('A' for Active; 'I' for Inactive)
REMARK    1  A    between atoms: C_1  and  N_2
REMARK    2  A    between atoms: N_2  and  C_3
REMARK    3  A    between atoms: C_3  and  N_5
REMARK    4  A    between atoms: N_5  and  C_6
REMARK    5  A    between atoms: C_6  and  C_7
REMARK    6  A    between atoms: C_7  and  S_8
REMARK    7  A    between atoms: S_8  and  C_9
REMARK    8  A    between atoms: C_9  and  C_10
REMARK    9  A    between atoms: C_11  and  C_12
REMARK                            x       y       z     vdW  Elec       q    Type
REMARK                         _______ _______ _______ _____ _____    ______ ____
ROOT
ATOM      1  C   UNL     1       6.855  -2.556  22.804  0.00  0.00    +0.088 C 
ENDROOT
BRANCH   1   2
ATOM      2  C   UNL     1       8.169  -1.826  22.521  0.00  0.00    +0.114 C 
BRANCH   2   3
ATOM      3  N   UNL     1       9.196  -2.047  23.534  0.00  0.00    -0.326 N 
ATOM      4  H   UNL     1       9.613  -2.965  23.563  0.00  0.00    +0.148 HD
BRANCH   3   5
ATOM      5  C   UNL     1       9.317  -1.297  24.671  0.00  0.00    +0.130 C 
ATOM      6  S   UNL     1       8.382  -1.425  26.050  0.00  0.00    -0.019 S 
BRANCH   5   8
ATOM      7  C   UNL     1      10.469   0.729  23.702  0.00  0.00    +0.127 C 
ATOM      8  N   UNL     1      10.283  -0.340  24.655  0.00  0.00    -0.330 N 
ATOM      9  H   UNL     1      10.877  -0.346  25.476  0.00  0.00    +0.147 HD
ENDBRANCH   5   8
ENDBRANCH   3   5
ENDBRANCH   2   3
ENDBRANCH   1   2
BRANCH   1  10
ATOM     10  S   UNL     1       7.138  -4.314  22.442  0.00  0.00    -0.153 S 
BRANCH  10  11
ATOM     11  C   UNL     1       6.635  -5.062  24.028  0.00  0.00    +0.126 C 
BRANCH  11  12
ATOM     12  C   UNL     1       7.816  -5.116  24.941  0.00  0.00    +0.072 A 
ATOM     13  N   UNL     1       9.099  -5.058  24.436  0.00  0.00    -0.240 NA
ATOM     14  C   UNL     1       9.893  -5.031  25.480  0.00  0.00    +0.197 A 
ATOM     15  N   UNL     1       9.186  -5.104  26.646  0.00  0.00    -0.348 N 
ATOM     16  H   UNL     1       9.579  -5.072  27.577  0.00  0.00    +0.166 HD
ATOM     17  C   UNL     1       7.854  -5.188  26.326  0.00  0.00    +0.036 A 
ATOM     18  C   UNL     1       6.791  -5.246  27.353  0.00  0.00    +0.065 C 
ENDBRANCH  11  12
ENDBRANCH  10  11
ENDBRANCH   1  10
TORSDOF 7
ENDMDL
MODEL 6
REMARK VINA RESULT:      -4.5      2.561      6.247
REMARK  Name = 
REMARK  9 active torsions:
REMARK  status: ('A' for Active; 'I' for Inactive)
REMARK    1  A    between atoms: C_1  and  N_2
REMARK    2  A    between atoms: N_2  and  C_3
REMARK    3  A    between atoms: C_3  and  N_5
REMARK    4  A    between atoms: N_5  and  C_6
REMARK    5  A    between atoms: C_6  and  C_7
REMARK    6  A    between atoms: C_7  and  S_8
REMARK    7  A    between atoms: S_8  and  C_9
REMARK    8  A    between atoms: C_9  and  C_10
REMARK    9  A    between atoms: C_11  and  C_12
REMARK                            x       y       z     vdW  Elec       q    Type
REMARK                         _______ _______ _______ _____ _____    ______ ____
ROOT
ATOM      1  C   UNL     1       8.661  -2.411  25.457  0.00  0.00    +0.088 C 
ENDROOT
BRANCH   1   2
ATOM      2  C   UNL     1       9.129  -3.079  24.162  0.00  0.00    +0.114 C 
BRANCH   2   3
ATOM      3  N   UNL     1       8.328  -4.235  23.773  0.00  0.00    -0.326 N 
ATOM      4  H   UNL     1       8.711  -5.144  23.988  0.00  0.00    +0.148 HD
BRANCH   3   5
ATOM      5  C   UNL     1       7.369  -4.204  22.799  0.00  0.00    +0.130 C 
ATOM      6  S   UNL     1       6.326  -2.940  22.473  0.00  0.00    -0.019 S 
BRANCH   5   8
ATOM      7  C   UNL     1       6.231  -5.647  21.070  0.00  0.00    +0.127 C 
ATOM      8  N   UNL     1       7.248  -5.328  22.044  0.00  0.00    -0.330 N 
ATOM      9  H   UNL     1       8.034  -5.962  22.129  0.00  0.00    +0.147 HD
ENDBRANCH   5   8
ENDBRANCH   3   5
ENDBRANCH   2   3
ENDBRANCH   1   2
BRANCH   1  10
ATOM     10  S   UNL     1       8.480  -0.639  25.104  0.00  0.00    -0.153 S 
BRANCH  10  11
ATOM     11  C   UNL     1      10.193  -0.218  24.639  0.00  0.00    +0.126 C 
BRANCH  11  12
ATOM     12  C   UNL     1      10.170   0.874  23.619  0.00  0.00    +0.072 A 
ATOM     13  N   UNL     1      10.517   2.164  23.962  0.00  0.00    -0.240 NA
ATOM     14  C   UNL     1      10.489   2.851  22.845  0.00  0.00    +0.197 A 
ATOM     15  N   UNL     1      10.106   2.073  21.791  0.00  0.00    -0.348 N 
ATOM     16  H   UNL     1      10.039   2.374  20.828  0.00  0.00    +0.166 HD
ATOM     17  C   UNL     1       9.869   0.807  22.266  0.00  0.00    +0.036 A 
ATOM     18  C   UNL     1       9.468  -0.312  21.386  0.00  0.00    +0.065 C 
ENDBRANCH  11  12
ENDBRANCH  10  11
ENDBRANCH   1  10
TORSDOF 7
ENDMDL
MODEL 7
REMARK VINA RESULT:      -4.5      3.409      3.984
REMARK  Name = 
REMARK  9 active torsions:
REMARK  status: ('A' for Active; 'I' for Inactive)
REMARK    1  A    between atoms: C_1  and  N_2
REMARK    2  A    between atoms: N_2  and  C_3
REMARK    3  A    between atoms: C_3  and  N_5
REMARK    4  A    between atoms: N_5  and  C_6
REMARK    5  A    between atoms: C_6  and  C_7
REMARK    6  A    between atoms: C_7  and  S_8
REMARK    7  A    between atoms: S_8  and  C_9
REMARK    8  A    between atoms: C_9  and  C_10
REMARK    9  A    between atoms: C_11  and  C_12
REMARK                            x       y       z     vdW  Elec       q    Type
REMARK                         _______ _______ _______ _____ _____    ______ ____
ROOT
ATOM      1  C   UNL     1      10.091   0.225  22.833  0.00  0.00    +0.088 C 
ENDROOT
BRANCH   1   2
ATOM      2  C   UNL     1       9.428   0.602  21.507  0.00  0.00    +0.114 C 
BRANCH   2   3
ATOM      3  N   UNL     1       9.072   2.013  21.407  0.00  0.00    -0.326 N 
ATOM      4  H   UNL     1       9.786   2.637  21.057  0.00  0.00    +0.148 HD
BRANCH   3   5
ATOM      5  C   UNL     1       8.065   2.597  22.123  0.00  0.00    +0.130 C 
ATOM      6  S   UNL     1       6.656   1.861  22.637  0.00  0.00    -0.019 S 
BRANCH   5   8
ATOM      7  C   UNL     1       7.301   5.001  22.214  0.00  0.00    +0.127 C 
ATOM      8  N   UNL     1       8.229   3.914  22.421  0.00  0.00    -0.330 N 
ATOM      9  H   UNL     1       9.079   4.113  22.935  0.00  0.00    +0.147 HD
ENDBRANCH   5   8
ENDBRANCH   3   5
ENDBRANCH   2   3
ENDBRANCH   1   2
BRANCH   1  10
ATOM     10  S   UNL     1      10.287  -1.581  22.832  0.00  0.00    -0.153 S 
BRANCH  10  11
ATOM     11  C   UNL     1       9.018  -2.051  24.056  0.00  0.00    +0.126 C 
BRANCH  11  12
ATOM     12  C   UNL     1       8.330  -3.295  23.596  0.00  0.00    +0.072 A 
ATOM     13  N   UNL     1       7.485  -3.270  22.506  0.00  0.00    -0.240 NA
ATOM     14  C   UNL     1       7.124  -4.515  22.305  0.00  0.00    +0.197 A 
ATOM     15  N   UNL     1       7.669  -5.349  23.239  0.00  0.00    -0.348 N 
ATOM     16  H   UNL     1       7.556  -6.353  23.271  0.00  0.00    +0.166 HD
ATOM     17  C   UNL     1       8.424  -4.587  24.095  0.00  0.00    +0.036 A 
ATOM     18  C   UNL     1       9.192  -5.172  25.215  0.00  0.00    +0.065 C 
ENDBRANCH  11  12
ENDBRANCH  10  11
ENDBRANCH   1  10
TORSDOF 7
ENDMDL
MODEL 8
REMARK VINA RESULT:      -4.4      3.019      3.376
REMARK  Name = 
REMARK  9 active torsions:
REMARK  status: ('A' for Active; 'I' for Inactive)
REMARK    1  A    between atoms: C_1  and  N_2
REMARK    2  A    between atoms: N_2  and  C_3
REMARK    3  A    between atoms: C_3  and  N_5
REMARK    4  A    between atoms: N_5  and  C_6
REMARK    5  A    between atoms: C_6  and  C_7
REMARK    6  A    between atoms: C_7  and  S_8
REMARK    7  A    between atoms: S_8  and  C_9
REMARK    8  A    between atoms: C_9  and  C_10
REMARK    9  A    between atoms: C_11  and  C_12
REMARK                            x       y       z     vdW  Elec       q    Type
REMARK                         _______ _______ _______ _____ _____    ______ ____
ROOT
ATOM      1  C   UNL     1       9.305   0.049  23.072  0.00  0.00    +0.088 C 
ENDROOT
BRANCH   1   2
ATOM      2  C   UNL     1       9.975   0.941  22.026  0.00  0.00    +0.114 C 
BRANCH   2   3
ATOM      3  N   UNL     1       9.083   1.935  21.440  0.00  0.00    -0.326 N 
ATOM      4  H   UNL     1       9.288   2.228  20.496  0.00  0.00    +0.148 HD
BRANCH   3   5
ATOM      5  C   UNL     1       8.302   2.785  22.175  0.00  0.00    +0.130 C 
ATOM      6  S   UNL     1       6.636   2.760  22.282  0.00  0.00    -0.019 S 
BRANCH   5   8
ATOM      7  C   UNL     1       9.212   3.832  24.283  0.00  0.00    +0.127 C 
ATOM      8  N   UNL     1       8.961   3.755  22.863  0.00  0.00    -0.330 N 
ATOM      9  H   UNL     1       9.400   4.450  22.270  0.00  0.00    +0.147 HD
ENDBRANCH   5   8
ENDBRANCH   3   5
ENDBRANCH   2   3
ENDBRANCH   1   2
BRANCH   1  10
ATOM     10  S   UNL     1      10.035  -1.606  22.904  0.00  0.00    -0.153 S 
BRANCH  10  11
ATOM     11  C   UNL     1       8.560  -2.645  23.171  0.00  0.00    +0.126 C 
BRANCH  11  12
ATOM     12  C   UNL     1       8.750  -3.456  24.412  0.00  0.00    +0.072 A 
ATOM     13  N   UNL     1       9.157  -4.772  24.337  0.00  0.00    -0.240 NA
ATOM     14  C   UNL     1       9.320  -5.167  25.577  0.00  0.00    +0.197 A 
ATOM     15  N   UNL     1       9.005  -4.176  26.462  0.00  0.00    -0.348 N 
ATOM     16  H   UNL     1       9.080  -4.237  27.468  0.00  0.00    +0.166 HD
ATOM     17  C   UNL     1       8.609  -3.077  25.740  0.00  0.00    +0.036 A 
ATOM     18  C   UNL     1       8.227  -1.800  26.379  0.00  0.00    +0.065 C 
ENDBRANCH  11  12
ENDBRANCH  10  11
ENDBRANCH   1  10
TORSDOF 7
ENDMDL
MODEL 9
REMARK VINA RESULT:      -4.2      2.483      3.034
REMARK  Name = 
REMARK  9 active torsions:
REMARK  status: ('A' for Active; 'I' for Inactive)
REMARK    1  A    between atoms: C_1  and  N_2
REMARK    2  A    between atoms: N_2  and  C_3
REMARK    3  A    between atoms: C_3  and  N_5
REMARK    4  A    between atoms: N_5  and  C_6
REMARK    5  A    between atoms: C_6  and  C_7
REMARK    6  A    between atoms: C_7  and  S_8
REMARK    7  A    between atoms: S_8  and  C_9
REMARK    8  A    between atoms: C_9  and  C_10
REMARK    9  A    between atoms: C_11  and  C_12
REMARK                            x       y       z     vdW  Elec       q    Type
REMARK                         _______ _______ _______ _____ _____    ______ ____
ROOT
ATOM      1  C   UNL     1       8.841   0.206  25.201  0.00  0.00    +0.088 C 
ENDROOT
BRANCH   1   2
ATOM      2  C   UNL     1      10.273   0.115  24.670  0.00  0.00    +0.114 C 
BRANCH   2   3
ATOM      3  N   UNL     1      10.527   0.966  23.511  0.00  0.00    -0.326 N 
ATOM      4  H   UNL     1      10.999   1.841  23.687  0.00  0.00    +0.148 HD
BRANCH   3   5
ATOM      5  C   UNL     1       9.825   0.888  22.341  0.00  0.00    +0.130 C 
ATOM      6  S   UNL     1       9.479  -0.502  21.481  0.00  0.00    -0.019 S 
BRANCH   5   8
ATOM      7  C   UNL     1       8.300   2.897  22.283  0.00  0.00    +0.127 C 
ATOM      8  N   UNL     1       9.390   2.068  21.826  0.00  0.00    -0.330 N 
ATOM      9  H   UNL     1       9.981   2.434  21.089  0.00  0.00    +0.147 HD
ENDBRANCH   5   8
ENDBRANCH   3   5
ENDBRANCH   2   3
ENDBRANCH   1   2
BRANCH   1  10
ATOM     10  S   UNL     1       8.692  -1.020  26.532  0.00  0.00    -0.153 S 
BRANCH  10  11
ATOM     11  C   UNL     1       7.541  -2.207  25.760  0.00  0.00    +0.126 C 
BRANCH  11  12
ATOM     12  C   UNL     1       8.126  -3.579  25.838  0.00  0.00    +0.072 A 
ATOM     13  N   UNL     1       9.269  -3.898  25.135  0.00  0.00    -0.240 NA
ATOM     14  C   UNL     1       9.574  -5.125  25.485  0.00  0.00    +0.197 A 
ATOM     15  N   UNL     1       8.660  -5.635  26.361  0.00  0.00    -0.348 N 
ATOM     16  H   UNL     1       8.700  -6.549  26.791  0.00  0.00    +0.166 HD
ATOM     17  C   UNL     1       7.706  -4.673  26.582  0.00  0.00    +0.036 A 
ATOM     18  C   UNL     1       6.575  -4.872  27.514  0.00  0.00    +0.065 C 
ENDBRANCH  11  12
ENDBRANCH  10  11
ENDBRANCH   1  10
TORSDOF 7
ENDMDL
