MODEL 1
REMARK VINA RESULT:      -5.0      0.000      0.000
REMARK  Name = 
REMARK  5 active torsions:
REMARK  status: ('A' for Active; 'I' for Inactive)
REMARK    1  A    between atoms: O_1  and  C_2
REMARK    2  A    between atoms: C_2  and  C_4
REMARK    3  A    between atoms: C_4  and  C_5
REMARK    4  A    between atoms: C_7  and  O_8
REMARK    5  A    between atoms: C_11  and  O_12
REMARK                            x       y       z     vdW  Elec       q    Type
REMARK                         _______ _______ _______ _____ _____    ______ ____
ROOT
ATOM      1  C   UNL     1      10.099   0.824  23.280  0.00  0.00    +0.008 A 
ATOM      2  C   UNL     1       9.666   0.845  21.950  0.00  0.00    +0.121 A 
ATOM      3  C   UNL     1       9.428  -0.331  21.243  0.00  0.00    +0.049 A 
ATOM      4  C   UNL     1       9.609  -1.559  21.879  0.00  0.00    +0.049 A 
ATOM      5  C   UNL     1      10.009  -1.593  23.211  0.00  0.00    +0.117 A 
ATOM      6  C   UNL     1      10.252  -0.418  23.917  0.00  0.00    +0.053 A 
ENDROOT
BRANCH   2   7
ATOM      7  O   UNL     1       9.440   2.062  21.366  0.00  0.00    -0.506 OA
ATOM      8  H   UNL     1       9.256   1.904  20.421  0.00  0.00    +0.292 HD
ENDBRANCH   2   7
BRANCH   5   9
ATOM      9  O   UNL     1      10.152  -2.815  23.796  0.00  0.00    -0.507 OA
ATOM     10  H   UNL     1      10.830  -3.317  23.312  0.00  0.00    +0.292 HD
ENDBRANCH   5   9
BRANCH   1  11
ATOM     11  C   UNL     1      10.381   2.100  24.033  0.00  0.00    +0.159 C 
BRANCH  11  12
ATOM     12  C   UNL     1       9.133   2.840  24.450  0.00  0.00    +0.309 C 
ATOM     13  O   UNL     1       8.684   3.806  23.851  0.00  0.00    -0.251 OA
BRANCH  12  14
ATOM     14  O   UNL     1       8.520   2.310  25.536  0.00  0.00    -0.480 OA
ATOM     15  H   UNL     1       8.478   2.949  26.282  0.00  0.00    +0.295 HD
ENDBRANCH  12  14
ENDBRANCH  11  12
ENDBRANCH   1  11
TORSDOF 5
ENDMDL
MODEL 2
REMARK VINA RESULT:      -4.9      2.205      4.089
REMARK  Name = 
REMARK  5 active torsions:
REMARK  status: ('A' for Active; 'I' for Inactive)
REMARK    1  A    between atoms: O_1  and  C_2
REMARK    2  A    between atoms: C_2  and  C_4
REMARK    3  A    between atoms: C_4  and  C_5
REMARK    4  A    between atoms: C_7  and  O_8
REMARK    5  A    between atoms: C_11  and  O_12
REMARK                            x       y       z     vdW  Elec       q    Type
REMARK                         _______ _______ _______ _____ _____    ______ ____
ROOT
ATOM      1  C   UNL     1       8.976   0.703  23.029  0.00  0.00    +0.008 A 
ATOM      2  C   UNL     1       8.921   1.760  22.114  0.00  0.00    +0.121 A 
ATOM      3  C   UNL     1       7.731   2.438  21.858  0.00  0.00    +0.049 A 
ATOM      4  C   UNL     1       6.573   2.067  22.539  0.00  0.00    +0.049 A 
ATOM      5  C   UNL     1       6.623   1.039  23.475  0.00  0.00    +0.117 A 
ATOM      6  C   UNL     1       7.810   0.357  23.729  0.00  0.00    +0.053 A 
ENDROOT
BRANCH   2   7
ATOM      7  O   UNL     1      10.082   2.142  21.501  0.00  0.00    -0.506 OA
ATOM      8  H   UNL     1      10.633   1.343  21.393  0.00  0.00    +0.292 HD
ENDBRANCH   2   7
BRANCH   5   9
ATOM      9  O   UNL     1       5.470   0.727  24.132  0.00  0.00    -0.507 OA
ATOM     10  H   UNL     1       4.776   0.541  23.476  0.00  0.00    +0.292 HD
ENDBRANCH   5   9
BRANCH   1  11
ATOM     11  C   UNL     1      10.261  -0.046  23.283  0.00  0.00    +0.159 C 
BRANCH  11  12
ATOM     12  C   UNL     1      10.235  -1.471  22.785  0.00  0.00    +0.309 C 
ATOM     13  O   UNL     1      10.209  -2.446  23.521  0.00  0.00    -0.251 OA
BRANCH  12  14
ATOM     14  O   UNL     1      10.202  -1.579  21.435  0.00  0.00    -0.480 OA
ATOM     15  H   UNL     1      10.978  -1.149  21.013  0.00  0.00    +0.295 HD
ENDBRANCH  12  14
ENDBRANCH  11  12
ENDBRANCH   1  11
TORSDOF 5
ENDMDL
MODEL 3
REMARK VINA RESULT:      -4.8      6.086      7.305
REMARK  Name = 
REMARK  5 active torsions:
REMARK  status: ('A' for Active; 'I' for Inactive)
REMARK    1  A    between atoms: O_1  and  C_2
REMARK    2  A    between atoms: C_2  and  C_4
REMARK    3  A    between atoms: C_4  and  C_5
REMARK    4  A    between atoms: C_7  and  O_8
REMARK    5  A    between atoms: C_11  and  O_12
REMARK                            x       y       z     vdW  Elec       q    Type
REMARK                         _______ _______ _______ _____ _____    ______ ____
ROOT
ATOM      1  C   UNL     1       6.754  -4.907  24.691  0.00  0.00    +0.008 A 
ATOM      2  C   UNL     1       7.675  -4.908  23.637  0.00  0.00    +0.121 A 
ATOM      3  C   UNL     1       7.381  -5.508  22.415  0.00  0.00    +0.049 A 
ATOM      4  C   UNL     1       6.135  -6.107  22.230  0.00  0.00    +0.049 A 
ATOM      5  C   UNL     1       5.200  -6.084  23.259  0.00  0.00    +0.117 A 
ATOM      6  C   UNL     1       5.494  -5.489  24.483  0.00  0.00    +0.053 A 
ENDROOT
BRANCH   2   7
ATOM      7  O   UNL     1       8.868  -4.264  23.824  0.00  0.00    -0.506 OA
ATOM      8  H   UNL     1       9.571  -4.842  23.471  0.00  0.00    +0.292 HD
ENDBRANCH   2   7
BRANCH   5   9
ATOM      9  O   UNL     1       3.989  -6.663  23.024  0.00  0.00    -0.507 OA
ATOM     10  H   UNL     1       3.528  -6.157  22.333  0.00  0.00    +0.292 HD
ENDBRANCH   5   9
BRANCH   1  11
ATOM     11  C   UNL     1       7.088  -4.279  26.021  0.00  0.00    +0.159 C 
BRANCH  11  12
ATOM     12  C   UNL     1       7.867  -5.192  26.938  0.00  0.00    +0.309 C 
ATOM     13  O   UNL     1       7.351  -5.889  27.799  0.00  0.00    -0.251 OA
BRANCH  12  14
ATOM     14  O   UNL     1       9.199  -5.204  26.695  0.00  0.00    -0.480 OA
ATOM     15  H   UNL     1       9.682  -4.564  27.264  0.00  0.00    +0.295 HD
ENDBRANCH  12  14
ENDBRANCH  11  12
ENDBRANCH   1  11
TORSDOF 5
ENDMDL
MODEL 4
REMARK VINA RESULT:      -4.7      2.495      5.243
REMARK  Name = 
REMARK  5 active torsions:
REMARK  status: ('A' for Active; 'I' for Inactive)
REMARK    1  A    between atoms: O_1  and  C_2
REMARK    2  A    between atoms: C_2  and  C_4
REMARK    3  A    between atoms: C_4  and  C_5
REMARK    4  A    between atoms: C_7  and  O_8
REMARK    5  A    between atoms: C_11  and  O_12
REMARK                            x       y       z     vdW  Elec       q    Type
REMARK                         _______ _______ _______ _____ _____    ______ ____
ROOT
ATOM      1  C   UNL     1      10.389   3.316  23.585  0.00  0.00    +0.008 A 
ATOM      2  C   UNL     1       9.473   4.348  23.814  0.00  0.00    +0.121 A 
ATOM      3  C   UNL     1       9.882   5.676  23.913  0.00  0.00    +0.049 A 
ATOM      4  C   UNL     1      11.234   5.987  23.765  0.00  0.00    +0.049 A 
ATOM      5  C   UNL     1      12.150   4.973  23.505  0.00  0.00    +0.117 A 
ATOM      6  C   UNL     1      11.742   3.645  23.410  0.00  0.00    +0.053 A 
ENDROOT
BRANCH   2   7
ATOM      7  O   UNL     1       8.146   4.024  23.899  0.00  0.00    -0.506 OA
ATOM      8  H   UNL     1       8.031   3.470  24.694  0.00  0.00    +0.292 HD
ENDBRANCH   2   7
BRANCH   5   9
ATOM      9  O   UNL     1      13.456   5.329  23.346  0.00  0.00    -0.507 OA
ATOM     10  H   UNL     1      13.994   4.522  23.276  0.00  0.00    +0.292 HD
ENDBRANCH   5   9
BRANCH   1  11
ATOM     11  C   UNL     1       9.944   1.877  23.505  0.00  0.00    +0.159 C 
BRANCH  11  12
ATOM     12  C   UNL     1       9.675   1.409  22.095  0.00  0.00    +0.309 C 
ATOM     13  O   UNL     1       9.993   0.307  21.674  0.00  0.00    -0.251 OA
BRANCH  12  14
ATOM     14  O   UNL     1       9.007   2.311  21.337  0.00  0.00    -0.480 OA
ATOM     15  H   UNL     1       9.310   2.302  20.402  0.00  0.00    +0.295 HD
ENDBRANCH  12  14
ENDBRANCH  11  12
ENDBRANCH   1  11
TORSDOF 5
ENDMDL
MODEL 5
REMARK VINA RESULT:      -4.7      2.141      4.435
REMARK  Name = 
REMARK  5 active torsions:
REMARK  status: ('A' for Active; 'I' for Inactive)
REMARK    1  A    between atoms: O_1  and  C_2
REMARK    2  A    between atoms: C_2  and  C_4
REMARK    3  A    between atoms: C_4  and  C_5
REMARK    4  A    between atoms: C_7  and  O_8
REMARK    5  A    between atoms: C_11  and  O_12
REMARK                            x       y       z     vdW  Elec       q    Type
REMARK                         _______ _______ _______ _____ _____    ______ ____
ROOT
ATOM      1  C   UNL     1       8.493  -0.626  22.399  0.00  0.00    +0.008 A 
ATOM      2  C   UNL     1       7.281  -0.017  22.742  0.00  0.00    +0.121 A 
ATOM      3  C   UNL     1       7.125   1.367  22.705  0.00  0.00    +0.049 A 
ATOM      4  C   UNL     1       8.196   2.164  22.302  0.00  0.00    +0.049 A 
ATOM      5  C   UNL     1       9.396   1.568  21.927  0.00  0.00    +0.117 A 
ATOM      6  C   UNL     1       9.554   0.185  21.968  0.00  0.00    +0.053 A 
ENDROOT
BRANCH   2   7
ATOM      7  O   UNL     1       6.228  -0.824  23.080  0.00  0.00    -0.506 OA
ATOM      8  H   UNL     1       6.579  -1.726  23.204  0.00  0.00    +0.292 HD
ENDBRANCH   2   7
BRANCH   5   9
ATOM      9  O   UNL     1      10.407   2.386  21.519  0.00  0.00    -0.507 OA
ATOM     10  H   UNL     1      10.635   2.167  20.600  0.00  0.00    +0.292 HD
ENDBRANCH   5   9
BRANCH   1  11
ATOM     11  C   UNL     1       8.664  -2.124  22.467  0.00  0.00    +0.159 C 
BRANCH  11  12
ATOM     12  C   UNL     1       9.167  -2.611  23.804  0.00  0.00    +0.309 C 
ATOM     13  O   UNL     1      10.224  -3.207  23.955  0.00  0.00    -0.251 OA
BRANCH  12  14
ATOM     14  O   UNL     1       8.358  -2.293  24.843  0.00  0.00    -0.480 OA
ATOM     15  H   UNL     1       7.423  -2.186  24.561  0.00  0.00    +0.295 HD
ENDBRANCH  12  14
ENDBRANCH  11  12
ENDBRANCH   1  11
TORSDOF 5
ENDMDL
MODEL 6
REMARK VINA RESULT:      -4.7      2.789      5.326
REMARK  Name = 
REMARK  5 active torsions:
REMARK  status: ('A' for Active; 'I' for Inactive)
REMARK    1  A    between atoms: O_1  and  C_2
REMARK    2  A    between atoms: C_2  and  C_4
REMARK    3  A    between atoms: C_4  and  C_5
REMARK    4  A    between atoms: C_7  and  O_8
REMARK    5  A    between atoms: C_11  and  O_12
REMARK                            x       y       z     vdW  Elec       q    Type
REMARK                         _______ _______ _______ _____ _____    ______ ____
ROOT
ATOM      1  C   UNL     1       8.910  -2.407  24.722  0.00  0.00    +0.008 A 
ATOM      2  C   UNL     1       9.236  -1.244  25.430  0.00  0.00    +0.121 A 
ATOM      3  C   UNL     1       9.922  -0.193  24.826  0.00  0.00    +0.049 A 
ATOM      4  C   UNL     1      10.278  -0.292  23.481  0.00  0.00    +0.049 A 
ATOM      5  C   UNL     1       9.930  -1.429  22.759  0.00  0.00    +0.117 A 
ATOM      6  C   UNL     1       9.249  -2.483  23.362  0.00  0.00    +0.053 A 
ENDROOT
BRANCH   2   7
ATOM      7  O   UNL     1       8.827  -1.147  26.732  0.00  0.00    -0.506 OA
ATOM      8  H   UNL     1       9.623  -1.011  27.280  0.00  0.00    +0.292 HD
ENDBRANCH   2   7
BRANCH   5   9
ATOM      9  O   UNL     1      10.280  -1.471  21.442  0.00  0.00    -0.507 OA
ATOM     10  H   UNL     1       9.815  -2.213  21.018  0.00  0.00    +0.292 HD
ENDBRANCH   5   9
BRANCH   1  11
ATOM     11  C   UNL     1       8.191  -3.553  25.389  0.00  0.00    +0.159 C 
BRANCH  11  12
ATOM     12  C   UNL     1       9.091  -4.722  25.708  0.00  0.00    +0.309 C 
ATOM     13  O   UNL     1       9.507  -5.507  24.869  0.00  0.00    -0.251 OA
BRANCH  12  14
ATOM     14  O   UNL     1       9.436  -4.807  27.015  0.00  0.00    -0.480 OA
ATOM     15  H   UNL     1       9.991  -5.596  27.198  0.00  0.00    +0.295 HD
ENDBRANCH  12  14
ENDBRANCH  11  12
ENDBRANCH   1  11
TORSDOF 5
ENDMDL
MODEL 7
REMARK VINA RESULT:      -4.6      2.494      4.603
REMARK  Name = 
REMARK  5 active torsions:
REMARK  status: ('A' for Active; 'I' for Inactive)
REMARK    1  A    between atoms: O_1  and  C_2
REMARK    2  A    between atoms: C_2  and  C_4
REMARK    3  A    between atoms: C_4  and  C_5
REMARK    4  A    between atoms: C_7  and  O_8
REMARK    5  A    between atoms: C_11  and  O_12
REMARK                            x       y       z     vdW  Elec       q    Type
REMARK                         _______ _______ _______ _____ _____    ______ ____
ROOT
ATOM      1  C   UNL     1       8.156  -1.342  22.540  0.00  0.00    +0.008 A 
ATOM      2  C   UNL     1       9.219  -0.765  21.835  0.00  0.00    +0.121 A 
ATOM      3  C   UNL     1       9.212   0.582  21.481  0.00  0.00    +0.049 A 
ATOM      4  C   UNL     1       8.130   1.380  21.851  0.00  0.00    +0.049 A 
ATOM      5  C   UNL     1       7.082   0.826  22.580  0.00  0.00    +0.117 A 
ATOM      6  C   UNL     1       7.086  -0.522  22.930  0.00  0.00    +0.053 A 
ENDROOT
BRANCH   2   7
ATOM      7  O   UNL     1      10.295  -1.555  21.533  0.00  0.00    -0.506 OA
ATOM      8  H   UNL     1       9.964  -2.316  21.018  0.00  0.00    +0.292 HD
ENDBRANCH   2   7
BRANCH   5   9
ATOM      9  O   UNL     1       6.057   1.650  22.938  0.00  0.00    -0.507 OA
ATOM     10  H   UNL     1       5.512   1.200  23.606  0.00  0.00    +0.292 HD
ENDBRANCH   5   9
BRANCH   1  11
ATOM     11  C   UNL     1       8.157  -2.807  22.897  0.00  0.00    +0.159 C 
BRANCH  11  12
ATOM     12  C   UNL     1       8.854  -3.107  24.202  0.00  0.00    +0.309 C 
ATOM     13  O   UNL     1       8.283  -3.147  25.283  0.00  0.00    -0.251 OA
BRANCH  12  14
ATOM     14  O   UNL     1      10.176  -3.370  24.069  0.00  0.00    -0.480 OA
ATOM     15  H   UNL     1      10.513  -3.936  24.798  0.00  0.00    +0.295 HD
ENDBRANCH  12  14
ENDBRANCH  11  12
ENDBRANCH   1  11
TORSDOF 5
ENDMDL
MODEL 8
REMARK VINA RESULT:      -4.6      2.226      3.038
REMARK  Name = 
REMARK  5 active torsions:
REMARK  status: ('A' for Active; 'I' for Inactive)
REMARK    1  A    between atoms: O_1  and  C_2
REMARK    2  A    between atoms: C_2  and  C_4
REMARK    3  A    between atoms: C_4  and  C_5
REMARK    4  A    between atoms: C_7  and  O_8
REMARK    5  A    between atoms: C_11  and  O_12
REMARK                            x       y       z     vdW  Elec       q    Type
REMARK                         _______ _______ _______ _____ _____    ______ ____
ROOT
ATOM      1  C   UNL     1       9.113  -0.199  23.167  0.00  0.00    +0.008 A 
ATOM      2  C   UNL     1       9.137  -1.358  22.382  0.00  0.00    +0.121 A 
ATOM      3  C   UNL     1       8.013  -2.171  22.251  0.00  0.00    +0.049 A 
ATOM      4  C   UNL     1       6.833  -1.815  22.902  0.00  0.00    +0.049 A 
ATOM      5  C   UNL     1       6.787  -0.649  23.659  0.00  0.00    +0.117 A 
ATOM      6  C   UNL     1       7.911   0.162  23.795  0.00  0.00    +0.053 A 
ENDROOT
BRANCH   2   7
ATOM      7  O   UNL     1      10.290  -1.655  21.708  0.00  0.00    -0.506 OA
ATOM      8  H   UNL     1      10.035  -1.997  20.830  0.00  0.00    +0.292 HD
ENDBRANCH   2   7
BRANCH   5   9
ATOM      9  O   UNL     1       5.605  -0.332  24.259  0.00  0.00    -0.507 OA
ATOM     10  H   UNL     1       5.761  -0.204  25.210  0.00  0.00    +0.292 HD
ENDBRANCH   5   9
BRANCH   1  11
ATOM     11  C   UNL     1      10.340   0.663  23.328  0.00  0.00    +0.159 C 
BRANCH  11  12
ATOM     12  C   UNL     1      10.174   2.054  22.765  0.00  0.00    +0.309 C 
ATOM     13  O   UNL     1      10.333   3.074  23.420  0.00  0.00    -0.251 OA
BRANCH  12  14
ATOM     14  O   UNL     1       9.868   2.079  21.446  0.00  0.00    -0.480 OA
ATOM     15  H   UNL     1       9.130   1.468  21.228  0.00  0.00    +0.295 HD
ENDBRANCH  12  14
ENDBRANCH  11  12
ENDBRANCH   1  11
TORSDOF 5
ENDMDL
MODEL 9
REMARK VINA RESULT:      -4.6      5.247      7.029
REMARK  Name = 
REMARK  5 active torsions:
REMARK  status: ('A' for Active; 'I' for Inactive)
REMARK    1  A    between atoms: O_1  and  C_2
REMARK    2  A    between atoms: C_2  and  C_4
REMARK    3  A    between atoms: C_4  and  C_5
REMARK    4  A    between atoms: C_7  and  O_8
REMARK    5  A    between atoms: C_11  and  O_12
REMARK                            x       y       z     vdW  Elec       q    Type
REMARK                         _______ _______ _______ _____ _____    ______ ____
ROOT
ATOM      1  C   UNL     1       6.816  -4.549  24.278  0.00  0.00    +0.008 A 
ATOM      2  C   UNL     1       8.020  -3.942  23.901  0.00  0.00    +0.121 A 
ATOM      3  C   UNL     1       9.138  -3.968  24.731  0.00  0.00    +0.049 A 
ATOM      4  C   UNL     1       9.065  -4.627  25.957  0.00  0.00    +0.049 A 
ATOM      5  C   UNL     1       7.883  -5.262  26.328  0.00  0.00    +0.117 A 
ATOM      6  C   UNL     1       6.763  -5.233  25.502  0.00  0.00    +0.053 A 
ENDROOT
BRANCH   2   7
ATOM      7  O   UNL     1       8.084  -3.350  22.669  0.00  0.00    -0.506 OA
ATOM      8  H   UNL     1       7.591  -2.510  22.722  0.00  0.00    +0.292 HD
ENDBRANCH   2   7
BRANCH   5   9
ATOM      9  O   UNL     1       7.866  -5.912  27.526  0.00  0.00    -0.507 OA
ATOM     10  H   UNL     1       6.965  -6.237  27.693  0.00  0.00    +0.292 HD
ENDBRANCH   5   9
BRANCH   1  11
ATOM     11  C   UNL     1       5.600  -4.494  23.388  0.00  0.00    +0.159 C 
BRANCH  11  12
ATOM     12  C   UNL     1       5.699  -5.394  22.180  0.00  0.00    +0.309 C 
ATOM     13  O   UNL     1       5.894  -4.986  21.044  0.00  0.00    -0.251 OA
BRANCH  12  14
ATOM     14  O   UNL     1       5.592  -6.713  22.469  0.00  0.00    -0.480 OA
ATOM     15  H   UNL     1       5.566  -7.266  21.657  0.00  0.00    +0.295 HD
ENDBRANCH  12  14
ENDBRANCH  11  12
ENDBRANCH   1  11
TORSDOF 5
ENDMDL
