MODEL 1
REMARK VINA RESULT:      -6.5      0.000      0.000
REMARK  Name = 
REMARK  16 active torsions:
REMARK  status: ('A' for Active; 'I' for Inactive)
REMARK    1  A    between atoms: C_1  and  O_2
REMARK    2  A    between atoms: O_2  and  C_3
REMARK    3  A    between atoms: C_7  and  O_8
REMARK    4  A    between atoms: O_8  and  C_9
REMARK    5  A    between atoms: C_10  and  C_11
REMARK    6  A    between atoms: N_13  and  C_14
REMARK    7  A    between atoms: C_14  and  C_16
REMARK    8  A    between atoms: C_14  and  C_28
REMARK    9  A    between atoms: C_19  and  C_21
REMARK   10  A    between atoms: C_24  and  C_25
REMARK   11  A    between atoms: C_24  and  C_26
REMARK   12  A    between atoms: C_28  and  O_30
REMARK   13  A    between atoms: O_30  and  C_31
REMARK   14  A    between atoms: C_31  and  C_32
REMARK   15  A    between atoms: C_32  and  N_34
REMARK   16  A    between atoms: C_32  and  C_35
REMARK                            x       y       z     vdW  Elec       q    Type
REMARK                         _______ _______ _______ _____ _____    ______ ____
ROOT
ATOM      1  C   UNK A   0       8.817  -0.460  23.233  0.00  0.00    +0.209 C 
ENDROOT
BRANCH   1   2
ATOM      2  C   UNK A   0       8.392   0.540  22.117  0.00  0.00    +0.144 C 
ATOM      3  S   UNK A   0       6.959   1.578  22.618  0.00  0.00    -0.131 S 
ATOM      4  C   UNK A   1       8.004   3.028  23.084  0.00  0.00    +0.033 C 
ATOM      5  C   UNK A   1       7.911   3.194  24.603  0.00  0.00    +0.024 C 
ATOM      6  C   UNK A   1       7.407   4.269  22.400  0.00  0.00    +0.024 C 
ATOM      7  C   UNK A   1       9.406   2.707  22.511  0.00  0.00    +0.116 C 
ATOM      8  N   UNK A   1       9.339   1.517  21.582  0.00  0.00    -0.294 NA
ATOM      9  H   UNK A   1       8.949   1.862  20.709  0.00  0.00    +0.124 HD
BRANCH   7  10
ATOM     10  C   UNK A   1      10.636   2.683  23.480  0.00  0.00    +0.060 C 
ATOM     11  O   UNK A   1      10.843   1.620  24.125  0.00  0.00    -0.548 OA
ATOM     12  O   UNK A   1      11.341   3.738  23.442  0.00  0.00    -0.548 OA
ENDBRANCH   7  10
ENDBRANCH   1   2
BRANCH   1  14
ATOM     13  C   UNK A   0       7.631  -1.087  25.386  0.00  0.00    +0.252 C 
ATOM     14  N   UNK A   0       7.616  -0.918  24.020  0.00  0.00    -0.296 N 
ATOM     15  H   UNK A   0       6.865  -1.345  23.485  0.00  0.00    +0.150 HD
ATOM     16  O   UNK A   0       8.625  -0.773  26.031  0.00  0.00    -0.270 OA
BRANCH  13  18
ATOM     17  C   UNK A   0       5.147  -0.941  26.049  0.00  0.00    +0.136 A 
ATOM     18  C   UNK A   0       6.391  -1.619  26.074  0.00  0.00    +0.120 A 
ATOM     19  C   UNK A   0       6.418  -2.857  26.782  0.00  0.00    +0.136 A 
ATOM     20  C   UNK A   0       5.273  -3.337  27.449  0.00  0.00    +0.046 A 
ATOM     21  C   UNK A   0       4.102  -2.602  27.487  0.00  0.00    +0.007 A 
ATOM     22  C   UNK A   0       4.039  -1.402  26.798  0.00  0.00    +0.046 A 
BRANCH  17  24
ATOM     23  C   UNK A   0       4.915   1.390  26.044  0.00  0.00    +0.277 C 
ATOM     24  O   UNK A   0       4.980   0.183  25.266  0.00  0.00    -0.494 OA
ENDBRANCH  17  24
BRANCH  19  25
ATOM     25  O   UNK A   0       7.427  -3.794  26.752  0.00  0.00    -0.494 OA
ATOM     26  C   UNK A   0       7.021  -5.137  26.500  0.00  0.00    +0.277 C 
ENDBRANCH  19  25
ENDBRANCH  13  18
ENDBRANCH   1  14
BRANCH   1  27
ATOM     27  C   UNK A   1       9.396  -1.752  22.638  0.00  0.00    +0.330 C 
ATOM     28  O   UNK A   1      10.595  -1.896  22.400  0.00  0.00    -0.249 OA
BRANCH  27  29
ATOM     29  O   UNK A   1       8.400  -2.576  22.220  0.00  0.00    -0.461 OA
BRANCH  29  30
ATOM     30  C   UNK A   1       8.106  -3.765  22.992  0.00  0.00    +0.256 C 
BRANCH  30  31
ATOM     31  C   UNK A   1       6.646  -4.201  22.868  0.00  0.00    +0.135 C 
BRANCH  31  32
ATOM     32  C   UNK A   1       6.472  -5.251  21.708  0.00  0.00    +0.062 C 
ATOM     33  O   UNK A   1       7.025  -6.379  21.913  0.00  0.00    -0.548 OA
ATOM     34  O   UNK A   1       5.846  -4.871  20.672  0.00  0.00    -0.548 OA
ENDBRANCH  31  32
BRANCH  31  35
ATOM     35  N   UNK A   1       5.743  -3.031  22.636  0.00  0.00    -0.320 NA
ATOM     36  H   UNK A   1       4.895  -3.226  23.169  0.00  0.00    +0.119 HD
ATOM     37  H   UNK A   1       6.189  -2.212  23.097  0.00  0.00    +0.119 HD
ENDBRANCH  31  35
ENDBRANCH  30  31
ENDBRANCH  29  30
ENDBRANCH  27  29
ENDBRANCH   1  27
TORSDOF 12
ENDMDL
MODEL 2
REMARK VINA RESULT:      -6.5      2.756      4.832
REMARK  Name = 
REMARK  16 active torsions:
REMARK  status: ('A' for Active; 'I' for Inactive)
REMARK    1  A    between atoms: C_1  and  O_2
REMARK    2  A    between atoms: O_2  and  C_3
REMARK    3  A    between atoms: C_7  and  O_8
REMARK    4  A    between atoms: O_8  and  C_9
REMARK    5  A    between atoms: C_10  and  C_11
REMARK    6  A    between atoms: N_13  and  C_14
REMARK    7  A    between atoms: C_14  and  C_16
REMARK    8  A    between atoms: C_14  and  C_28
REMARK    9  A    between atoms: C_19  and  C_21
REMARK   10  A    between atoms: C_24  and  C_25
REMARK   11  A    between atoms: C_24  and  C_26
REMARK   12  A    between atoms: C_28  and  O_30
REMARK   13  A    between atoms: O_30  and  C_31
REMARK   14  A    between atoms: C_31  and  C_32
REMARK   15  A    between atoms: C_32  and  N_34
REMARK   16  A    between atoms: C_32  and  C_35
REMARK                            x       y       z     vdW  Elec       q    Type
REMARK                         _______ _______ _______ _____ _____    ______ ____
ROOT
ATOM      1  C   UNK A   0       8.001  -3.040  24.893  0.00  0.00    +0.209 C 
ENDROOT
BRANCH   1   2
ATOM      2  C   UNK A   0       8.767  -2.882  23.546  0.00  0.00    +0.144 C 
ATOM      3  S   UNK A   0       7.813  -1.915  22.308  0.00  0.00    -0.131 S 
ATOM      4  C   UNK A   1       8.717  -0.341  22.646  0.00  0.00    +0.033 C 
ATOM      5  C   UNK A   1       7.728   0.628  23.304  0.00  0.00    +0.024 C 
ATOM      6  C   UNK A   1       9.168   0.236  21.294  0.00  0.00    +0.024 C 
ATOM      7  C   UNK A   1       9.939  -0.760  23.499  0.00  0.00    +0.116 C 
ATOM      8  N   UNK A   1      10.091  -2.263  23.502  0.00  0.00    -0.294 NA
ATOM      9  H   UNK A   1      10.504  -2.507  22.605  0.00  0.00    +0.124 HD
BRANCH   7  10
ATOM     10  C   UNK A   1      10.147  -0.101  24.905  0.00  0.00    +0.060 C 
ATOM     11  O   UNK A   1       9.453  -0.543  25.859  0.00  0.00    -0.548 OA
ATOM     12  O   UNK A   1      11.071   0.771  24.932  0.00  0.00    -0.548 OA
ENDBRANCH   7  10
ENDBRANCH   1   2
BRANCH   1  14
ATOM     13  C   UNK A   0       5.465  -3.094  24.856  0.00  0.00    +0.252 C 
ATOM     14  N   UNK A   0       6.675  -3.723  24.671  0.00  0.00    -0.296 N 
ATOM     15  H   UNK A   0       6.695  -4.738  24.628  0.00  0.00    +0.150 HD
ATOM     16  O   UNK A   0       5.431  -1.899  25.127  0.00  0.00    -0.270 OA
BRANCH  13  18
ATOM     17  C   UNK A   0       3.851  -4.536  23.460  0.00  0.00    +0.136 A 
ATOM     18  C   UNK A   0       4.188  -3.888  24.675  0.00  0.00    +0.120 A 
ATOM     19  C   UNK A   0       3.256  -4.035  25.744  0.00  0.00    +0.136 A 
ATOM     20  C   UNK A   0       2.054  -4.748  25.567  0.00  0.00    +0.046 A 
ATOM     21  C   UNK A   0       1.710  -5.284  24.339  0.00  0.00    +0.007 A 
ATOM     22  C   UNK A   0       2.600  -5.171  23.284  0.00  0.00    +0.046 A 
BRANCH  17  24
ATOM     23  C   UNK A   0       5.362  -5.878  22.274  0.00  0.00    +0.277 C 
ATOM     24  O   UNK A   0       4.756  -4.582  22.419  0.00  0.00    -0.494 OA
ENDBRANCH  17  24
BRANCH  19  25
ATOM     25  O   UNK A   0       3.467  -3.702  27.064  0.00  0.00    -0.494 OA
ATOM     26  C   UNK A   0       2.538  -2.780  27.629  0.00  0.00    +0.277 C 
ENDBRANCH  19  25
ENDBRANCH  13  18
ENDBRANCH   1  14
BRANCH   1  27
ATOM     27  C   UNK A   1       8.749  -3.970  25.859  0.00  0.00    +0.330 C 
ATOM     28  O   UNK A   1       9.793  -4.546  25.552  0.00  0.00    -0.249 OA
BRANCH  27  29
ATOM     29  O   UNK A   1       7.995  -4.228  26.959  0.00  0.00    -0.461 OA
BRANCH  29  30
ATOM     30  C   UNK A   1       7.655  -5.601  27.267  0.00  0.00    +0.256 C 
BRANCH  30  31
ATOM     31  C   UNK A   1       6.226  -5.752  27.787  0.00  0.00    +0.135 C 
BRANCH  31  32
ATOM     32  C   UNK A   1       6.221  -6.280  29.269  0.00  0.00    +0.062 C 
ATOM     33  O   UNK A   1       6.525  -7.509  29.405  0.00  0.00    -0.548 OA
ATOM     34  O   UNK A   1       5.877  -5.461  30.174  0.00  0.00    -0.548 OA
ENDBRANCH  31  32
BRANCH  31  35
ATOM     35  N   UNK A   1       5.421  -6.666  26.917  0.00  0.00    -0.320 NA
ATOM     36  H   UNK A   1       4.505  -6.226  26.825  0.00  0.00    +0.119 HD
ATOM     37  H   UNK A   1       5.850  -6.635  25.970  0.00  0.00    +0.119 HD
ENDBRANCH  31  35
ENDBRANCH  30  31
ENDBRANCH  29  30
ENDBRANCH  27  29
ENDBRANCH   1  27
TORSDOF 12
ENDMDL
MODEL 3
REMARK VINA RESULT:      -6.4      1.800      2.752
REMARK  Name = 
REMARK  16 active torsions:
REMARK  status: ('A' for Active; 'I' for Inactive)
REMARK    1  A    between atoms: C_1  and  O_2
REMARK    2  A    between atoms: O_2  and  C_3
REMARK    3  A    between atoms: C_7  and  O_8
REMARK    4  A    between atoms: O_8  and  C_9
REMARK    5  A    between atoms: C_10  and  C_11
REMARK    6  A    between atoms: N_13  and  C_14
REMARK    7  A    between atoms: C_14  and  C_16
REMARK    8  A    between atoms: C_14  and  C_28
REMARK    9  A    between atoms: C_19  and  C_21
REMARK   10  A    between atoms: C_24  and  C_25
REMARK   11  A    between atoms: C_24  and  C_26
REMARK   12  A    between atoms: C_28  and  O_30
REMARK   13  A    between atoms: O_30  and  C_31
REMARK   14  A    between atoms: C_31  and  C_32
REMARK   15  A    between atoms: C_32  and  N_34
REMARK   16  A    between atoms: C_32  and  C_35
REMARK                            x       y       z     vdW  Elec       q    Type
REMARK                         _______ _______ _______ _____ _____    ______ ____
ROOT
ATOM      1  C   UNK A   0       8.429  -0.848  23.222  0.00  0.00    +0.209 C 
ENDROOT
BRANCH   1   2
ATOM      2  C   UNK A   0       8.209   0.192  22.082  0.00  0.00    +0.144 C 
ATOM      3  S   UNK A   0       6.845   1.364  22.459  0.00  0.00    -0.131 S 
ATOM      4  C   UNK A   1       7.978   2.704  23.035  0.00  0.00    +0.033 C 
ATOM      5  C   UNK A   1       7.760   2.876  24.542  0.00  0.00    +0.024 C 
ATOM      6  C   UNK A   1       7.571   3.999  22.313  0.00  0.00    +0.024 C 
ATOM      7  C   UNK A   1       9.389   2.247  22.592  0.00  0.00    +0.116 C 
ATOM      8  N   UNK A   1       9.293   1.072  21.648  0.00  0.00    -0.294 NA
ATOM      9  H   UNK A   1       9.022   1.456  20.746  0.00  0.00    +0.124 HD
BRANCH   7  10
ATOM     10  C   UNK A   1      10.515   2.101  23.671  0.00  0.00    +0.060 C 
ATOM     11  O   UNK A   1      10.514   1.050  24.368  0.00  0.00    -0.548 OA
ATOM     12  O   UNK A   1      11.361   3.048  23.663  0.00  0.00    -0.548 OA
ENDBRANCH   7  10
ENDBRANCH   1   2
BRANCH   1  14
ATOM     13  C   UNK A   0       6.501  -1.780  24.582  0.00  0.00    +0.252 C 
ATOM     14  N   UNK A   0       7.202  -1.705  23.399  0.00  0.00    -0.296 N 
ATOM     15  H   UNK A   0       7.054  -2.426  22.699  0.00  0.00    +0.150 HD
ATOM     16  O   UNK A   0       6.812  -1.060  25.524  0.00  0.00    -0.270 OA
BRANCH  13  18
ATOM     17  C   UNK A   0       4.177  -2.449  25.466  0.00  0.00    +0.136 A 
ATOM     18  C   UNK A   0       5.323  -2.726  24.679  0.00  0.00    +0.120 A 
ATOM     19  C   UNK A   0       5.307  -3.957  23.957  0.00  0.00    +0.136 A 
ATOM     20  C   UNK A   0       4.225  -4.852  24.071  0.00  0.00    +0.046 A 
ATOM     21  C   UNK A   0       3.167  -4.596  24.926  0.00  0.00    +0.007 A 
ATOM     22  C   UNK A   0       3.146  -3.403  25.630  0.00  0.00    +0.046 A 
BRANCH  17  24
ATOM     23  C   UNK A   0       3.829  -1.334  27.496  0.00  0.00    +0.277 C 
ATOM     24  O   UNK A   0       4.030  -1.221  26.077  0.00  0.00    -0.494 OA
ENDBRANCH  17  24
BRANCH  19  25
ATOM     25  O   UNK A   0       6.183  -4.332  22.962  0.00  0.00    -0.494 OA
ATOM     26  C   UNK A   0       6.252  -5.730  22.690  0.00  0.00    +0.277 C 
ENDBRANCH  19  25
ENDBRANCH  13  18
ENDBRANCH   1  14
BRANCH   1  27
ATOM     27  C   UNK A   1       9.540  -1.845  22.865  0.00  0.00    +0.330 C 
ATOM     28  O   UNK A   1      10.470  -1.562  22.109  0.00  0.00    -0.249 OA
BRANCH  27  29
ATOM     29  O   UNK A   1       9.227  -3.092  23.303  0.00  0.00    -0.461 OA
BRANCH  29  30
ATOM     30  C   UNK A   1       9.554  -3.458  24.665  0.00  0.00    +0.256 C 
BRANCH  30  31
ATOM     31  C   UNK A   1       9.066  -4.859  25.032  0.00  0.00    +0.135 C 
BRANCH  31  32
ATOM     32  C   UNK A   1       8.087  -4.807  26.264  0.00  0.00    +0.062 C 
ATOM     33  O   UNK A   1       7.300  -5.802  26.369  0.00  0.00    -0.548 OA
ATOM     34  O   UNK A   1       8.139  -3.776  27.001  0.00  0.00    -0.548 OA
ENDBRANCH  31  32
BRANCH  31  35
ATOM     35  N   UNK A   1      10.210  -5.777  25.329  0.00  0.00    -0.320 NA
ATOM     36  H   UNK A   1       9.989  -6.214  26.224  0.00  0.00    +0.119 HD
ATOM     37  H   UNK A   1      10.176  -6.539  24.622  0.00  0.00    +0.119 HD
ENDBRANCH  31  35
ENDBRANCH  30  31
ENDBRANCH  29  30
ENDBRANCH  27  29
ENDBRANCH   1  27
TORSDOF 12
ENDMDL
MODEL 4
REMARK VINA RESULT:      -6.4      1.758      2.772
REMARK  Name = 
REMARK  16 active torsions:
REMARK  status: ('A' for Active; 'I' for Inactive)
REMARK    1  A    between atoms: C_1  and  O_2
REMARK    2  A    between atoms: O_2  and  C_3
REMARK    3  A    between atoms: C_7  and  O_8
REMARK    4  A    between atoms: O_8  and  C_9
REMARK    5  A    between atoms: C_10  and  C_11
REMARK    6  A    between atoms: N_13  and  C_14
REMARK    7  A    between atoms: C_14  and  C_16
REMARK    8  A    between atoms: C_14  and  C_28
REMARK    9  A    between atoms: C_19  and  C_21
REMARK   10  A    between atoms: C_24  and  C_25
REMARK   11  A    between atoms: C_24  and  C_26
REMARK   12  A    between atoms: C_28  and  O_30
REMARK   13  A    between atoms: O_30  and  C_31
REMARK   14  A    between atoms: C_31  and  C_32
REMARK   15  A    between atoms: C_32  and  N_34
REMARK   16  A    between atoms: C_32  and  C_35
REMARK                            x       y       z     vdW  Elec       q    Type
REMARK                         _______ _______ _______ _____ _____    ______ ____
ROOT
ATOM      1  C   UNK A   0       9.108  -2.163  24.262  0.00  0.00    +0.209 C 
ENDROOT
BRANCH   1   2
ATOM      2  C   UNK A   0       9.026  -1.603  22.810  0.00  0.00    +0.144 C 
ATOM      3  S   UNK A   0       7.476  -0.662  22.510  0.00  0.00    -0.131 S 
ATOM      4  C   UNK A   1       8.271   0.985  22.765  0.00  0.00    +0.033 C 
ATOM      5  C   UNK A   1       7.696   1.581  24.054  0.00  0.00    +0.024 C 
ATOM      6  C   UNK A   1       7.882   1.878  21.576  0.00  0.00    +0.024 C 
ATOM      7  C   UNK A   1       9.792   0.696  22.760  0.00  0.00    +0.116 C 
ATOM      8  N   UNK A   1      10.062  -0.713  22.288  0.00  0.00    -0.294 NA
ATOM      9  H   UNK A   1       9.958  -0.697  21.276  0.00  0.00    +0.124 HD
BRANCH   7  10
ATOM     10  C   UNK A   1      10.651   1.123  23.998  0.00  0.00    +0.060 C 
ATOM     11  O   UNK A   1      10.913   0.235  24.854  0.00  0.00    -0.548 OA
ATOM     12  O   UNK A   1      11.057   2.326  23.953  0.00  0.00    -0.548 OA
ENDBRANCH   7  10
ENDBRANCH   1   2
BRANCH   1  14
ATOM     13  C   UNK A   0       7.830  -1.442  26.331  0.00  0.00    +0.252 C 
ATOM     14  N   UNK A   0       7.841  -1.858  25.019  0.00  0.00    -0.296 N 
ATOM     15  H   UNK A   0       6.980  -2.214  24.614  0.00  0.00    +0.150 HD
ATOM     16  O   UNK A   0       8.887  -1.213  26.910  0.00  0.00    -0.270 OA
BRANCH  13  18
ATOM     17  C   UNK A   0       5.502  -2.233  27.096  0.00  0.00    +0.136 A 
ATOM     18  C   UNK A   0       6.500  -1.230  27.023  0.00  0.00    +0.120 A 
ATOM     19  C   UNK A   0       6.191   0.010  27.658  0.00  0.00    +0.136 A 
ATOM     20  C   UNK A   0       4.942   0.219  28.275  0.00  0.00    +0.046 A 
ATOM     21  C   UNK A   0       3.953  -0.748  28.241  0.00  0.00    +0.007 A 
ATOM     22  C   UNK A   0       4.226  -1.968  27.645  0.00  0.00    +0.046 A 
BRANCH  17  24
ATOM     23  C   UNK A   0       5.965  -4.441  27.728  0.00  0.00    +0.277 C 
ATOM     24  O   UNK A   0       5.764  -3.512  26.649  0.00  0.00    -0.494 OA
ENDBRANCH  17  24
BRANCH  19  25
ATOM     25  O   UNK A   0       7.073   1.037  27.919  0.00  0.00    -0.494 OA
ATOM     26  C   UNK A   0       7.036   1.566  29.243  0.00  0.00    +0.277 C 
ENDBRANCH  19  25
ENDBRANCH  13  18
ENDBRANCH   1  14
BRANCH   1  27
ATOM     27  C   UNK A   1       9.195  -3.695  24.269  0.00  0.00    +0.330 C 
ATOM     28  O   UNK A   1      10.050  -4.311  24.908  0.00  0.00    -0.249 OA
BRANCH  27  29
ATOM     29  O   UNK A   1       8.376  -4.228  23.325  0.00  0.00    -0.461 OA
BRANCH  29  30
ATOM     30  C   UNK A   1       7.345  -5.157  23.737  0.00  0.00    +0.256 C 
BRANCH  30  31
ATOM     31  C   UNK A   1       5.976  -4.815  23.150  0.00  0.00    +0.135 C 
BRANCH  31  32
ATOM     32  C   UNK A   1       6.047  -4.721  21.580  0.00  0.00    +0.062 C 
ATOM     33  O   UNK A   1       5.663  -3.612  21.088  0.00  0.00    -0.548 OA
ATOM     34  O   UNK A   1       6.432  -5.756  20.955  0.00  0.00    -0.548 OA
ENDBRANCH  31  32
BRANCH  31  35
ATOM     35  N   UNK A   1       5.442  -3.535  23.713  0.00  0.00    -0.320 NA
ATOM     36  H   UNK A   1       5.794  -2.797  23.103  0.00  0.00    +0.119 HD
ATOM     37  H   UNK A   1       4.411  -3.553  23.575  0.00  0.00    +0.119 HD
ENDBRANCH  31  35
ENDBRANCH  30  31
ENDBRANCH  29  30
ENDBRANCH  27  29
ENDBRANCH   1  27
TORSDOF 12
ENDMDL
MODEL 5
REMARK VINA RESULT:      -6.4      1.881      3.349
REMARK  Name = 
REMARK  16 active torsions:
REMARK  status: ('A' for Active; 'I' for Inactive)
REMARK    1  A    between atoms: C_1  and  O_2
REMARK    2  A    between atoms: O_2  and  C_3
REMARK    3  A    between atoms: C_7  and  O_8
REMARK    4  A    between atoms: O_8  and  C_9
REMARK    5  A    between atoms: C_10  and  C_11
REMARK    6  A    between atoms: N_13  and  C_14
REMARK    7  A    between atoms: C_14  and  C_16
REMARK    8  A    between atoms: C_14  and  C_28
REMARK    9  A    between atoms: C_19  and  C_21
REMARK   10  A    between atoms: C_24  and  C_25
REMARK   11  A    between atoms: C_24  and  C_26
REMARK   12  A    between atoms: C_28  and  O_30
REMARK   13  A    between atoms: O_30  and  C_31
REMARK   14  A    between atoms: C_31  and  C_32
REMARK   15  A    between atoms: C_32  and  N_34
REMARK   16  A    between atoms: C_32  and  C_35
REMARK                            x       y       z     vdW  Elec       q    Type
REMARK                         _______ _______ _______ _____ _____    ______ ____
ROOT
ATOM      1  C   UNK A   0       8.380  -0.846  23.094  0.00  0.00    +0.209 C 
ENDROOT
BRANCH   1   2
ATOM      2  C   UNK A   0       8.174   0.265  22.021  0.00  0.00    +0.144 C 
ATOM      3  S   UNK A   0       6.810   1.416  22.458  0.00  0.00    -0.131 S 
ATOM      4  C   UNK A   1       7.941   2.711  23.130  0.00  0.00    +0.033 C 
ATOM      5  C   UNK A   1       7.710   2.788  24.642  0.00  0.00    +0.024 C 
ATOM      6  C   UNK A   1       7.546   4.051  22.488  0.00  0.00    +0.024 C 
ATOM      7  C   UNK A   1       9.356   2.279  22.671  0.00  0.00    +0.116 C 
ATOM      8  N   UNK A   1       9.265   1.167  21.654  0.00  0.00    -0.294 NA
ATOM      9  H   UNK A   1       9.003   1.608  20.775  0.00  0.00    +0.124 HD
BRANCH   7  10
ATOM     10  C   UNK A   1      10.470   2.060  23.749  0.00  0.00    +0.060 C 
ATOM     11  O   UNK A   1      10.387   1.026  24.465  0.00  0.00    -0.548 OA
ATOM     12  O   UNK A   1      11.392   2.935  23.722  0.00  0.00    -0.548 OA
ENDBRANCH   7  10
ENDBRANCH   1   2
BRANCH   1  14
ATOM     13  C   UNK A   0       6.417  -1.943  24.267  0.00  0.00    +0.252 C 
ATOM     14  N   UNK A   0       7.186  -1.765  23.139  0.00  0.00    -0.296 N 
ATOM     15  H   UNK A   0       7.116  -2.447  22.389  0.00  0.00    +0.150 HD
ATOM     16  O   UNK A   0       6.633  -1.270  25.268  0.00  0.00    -0.270 OA
BRANCH  13  18
ATOM     17  C   UNK A   0       5.297  -4.096  23.406  0.00  0.00    +0.136 A 
ATOM     18  C   UNK A   0       5.280  -2.943  24.230  0.00  0.00    +0.120 A 
ATOM     19  C   UNK A   0       4.125  -2.773  25.050  0.00  0.00    +0.136 A 
ATOM     20  C   UNK A   0       3.053  -3.686  24.993  0.00  0.00    +0.046 A 
ATOM     21  C   UNK A   0       3.059  -4.747  24.105  0.00  0.00    +0.007 A 
ATOM     22  C   UNK A   0       4.172  -4.948  23.306  0.00  0.00    +0.046 A 
BRANCH  17  24
ATOM     23  C   UNK A   0       6.264  -5.635  21.928  0.00  0.00    +0.277 C 
ATOM     24  O   UNK A   0       6.431  -4.429  22.694  0.00  0.00    -0.494 OA
ENDBRANCH  17  24
BRANCH  19  25
ATOM     25  O   UNK A   0       3.982  -1.875  26.085  0.00  0.00    -0.494 OA
ATOM     26  C   UNK A   0       4.034  -2.427  27.398  0.00  0.00    +0.277 C 
ENDBRANCH  19  25
ENDBRANCH  13  18
ENDBRANCH   1  14
BRANCH   1  27
ATOM     27  C   UNK A   1       9.554  -1.766  22.731  0.00  0.00    +0.330 C 
ATOM     28  O   UNK A   1      10.448  -1.430  21.953  0.00  0.00    -0.249 OA
BRANCH  27  29
ATOM     29  O   UNK A   1       9.338  -3.027  23.191  0.00  0.00    -0.461 OA
BRANCH  29  30
ATOM     30  C   UNK A   1       9.663  -3.333  24.568  0.00  0.00    +0.256 C 
BRANCH  30  31
ATOM     31  C   UNK A   1       9.195  -4.726  24.988  0.00  0.00    +0.135 C 
BRANCH  31  32
ATOM     32  C   UNK A   1       8.101  -4.634  26.116  0.00  0.00    +0.062 C 
ATOM     33  O   UNK A   1       7.178  -5.508  26.045  0.00  0.00    -0.548 OA
ATOM     34  O   UNK A   1       8.211  -3.688  26.953  0.00  0.00    -0.548 OA
ENDBRANCH  31  32
BRANCH  31  35
ATOM     35  N   UNK A   1      10.339  -5.570  25.455  0.00  0.00    -0.320 NA
ATOM     36  H   UNK A   1      11.035  -4.917  25.816  0.00  0.00    +0.119 HD
ATOM     37  H   UNK A   1      10.000  -6.109  26.277  0.00  0.00    +0.119 HD
ENDBRANCH  31  35
ENDBRANCH  30  31
ENDBRANCH  29  30
ENDBRANCH  27  29
ENDBRANCH   1  27
TORSDOF 12
ENDMDL
MODEL 6
REMARK VINA RESULT:      -6.3      0.896      2.294
REMARK  Name = 
REMARK  16 active torsions:
REMARK  status: ('A' for Active; 'I' for Inactive)
REMARK    1  A    between atoms: C_1  and  O_2
REMARK    2  A    between atoms: O_2  and  C_3
REMARK    3  A    between atoms: C_7  and  O_8
REMARK    4  A    between atoms: O_8  and  C_9
REMARK    5  A    between atoms: C_10  and  C_11
REMARK    6  A    between atoms: N_13  and  C_14
REMARK    7  A    between atoms: C_14  and  C_16
REMARK    8  A    between atoms: C_14  and  C_28
REMARK    9  A    between atoms: C_19  and  C_21
REMARK   10  A    between atoms: C_24  and  C_25
REMARK   11  A    between atoms: C_24  and  C_26
REMARK   12  A    between atoms: C_28  and  O_30
REMARK   13  A    between atoms: O_30  and  C_31
REMARK   14  A    between atoms: C_31  and  C_32
REMARK   15  A    between atoms: C_32  and  N_34
REMARK   16  A    between atoms: C_32  and  C_35
REMARK                            x       y       z     vdW  Elec       q    Type
REMARK                         _______ _______ _______ _____ _____    ______ ____
ROOT
ATOM      1  C   UNK A   0       8.916  -0.562  23.328  0.00  0.00    +0.209 C 
ENDROOT
BRANCH   1   2
ATOM      2  C   UNK A   0       8.435   0.401  22.202  0.00  0.00    +0.144 C 
ATOM      3  S   UNK A   0       6.982   1.404  22.712  0.00  0.00    -0.131 S 
ATOM      4  C   UNK A   1       7.989   2.895  23.125  0.00  0.00    +0.033 C 
ATOM      5  C   UNK A   1       7.924   3.091  24.643  0.00  0.00    +0.024 C 
ATOM      6  C   UNK A   1       7.339   4.102  22.429  0.00  0.00    +0.024 C 
ATOM      7  C   UNK A   1       9.388   2.606  22.528  0.00  0.00    +0.116 C 
ATOM      8  N   UNK A   1       9.339   1.395  21.626  0.00  0.00    -0.294 NA
ATOM      9  H   UNK A   1       8.920   1.710  20.754  0.00  0.00    +0.124 HD
BRANCH   7  10
ATOM     10  C   UNK A   1      10.638   2.641  23.471  0.00  0.00    +0.060 C 
ATOM     11  O   UNK A   1      10.889   1.602  24.138  0.00  0.00    -0.548 OA
ATOM     12  O   UNK A   1      11.313   3.715  23.390  0.00  0.00    -0.548 OA
ENDBRANCH   7  10
ENDBRANCH   1   2
BRANCH   1  14
ATOM     13  C   UNK A   0       7.958  -1.087  25.618  0.00  0.00    +0.252 C 
ATOM     14  N   UNK A   0       7.783  -0.885  24.267  0.00  0.00    -0.296 N 
ATOM     15  H   UNK A   0       6.920  -1.204  23.836  0.00  0.00    +0.150 HD
ATOM     16  O   UNK A   0       9.062  -0.915  26.124  0.00  0.00    -0.270 OA
BRANCH  13  18
ATOM     17  C   UNK A   0       6.438  -2.825  26.758  0.00  0.00    +0.136 A 
ATOM     18  C   UNK A   0       6.765  -1.478  26.464  0.00  0.00    +0.120 A 
ATOM     19  C   UNK A   0       5.905  -0.486  27.025  0.00  0.00    +0.136 A 
ATOM     20  C   UNK A   0       4.777  -0.849  27.785  0.00  0.00    +0.046 A 
ATOM     21  C   UNK A   0       4.432  -2.176  27.971  0.00  0.00    +0.007 A 
ATOM     22  C   UNK A   0       5.253  -3.163  27.451  0.00  0.00    +0.046 A 
BRANCH  17  24
ATOM     23  C   UNK A   0       6.624  -5.117  26.312  0.00  0.00    +0.277 C 
ATOM     24  O   UNK A   0       7.292  -3.846  26.392  0.00  0.00    -0.494 OA
ENDBRANCH  17  24
BRANCH  19  25
ATOM     25  O   UNK A   0       6.145   0.870  27.073  0.00  0.00    -0.494 OA
ATOM     26  C   UNK A   0       6.803   1.343  28.246  0.00  0.00    +0.277 C 
ENDBRANCH  19  25
ENDBRANCH  13  18
ENDBRANCH   1  14
BRANCH   1  27
ATOM     27  C   UNK A   1       9.339  -1.924  22.760  0.00  0.00    +0.330 C 
ATOM     28  O   UNK A   1      10.516  -2.280  22.692  0.00  0.00    -0.249 OA
BRANCH  27  29
ATOM     29  O   UNK A   1       8.289  -2.542  22.160  0.00  0.00    -0.461 OA
BRANCH  29  30
ATOM     30  C   UNK A   1       7.807  -3.793  22.707  0.00  0.00    +0.256 C 
BRANCH  30  31
ATOM     31  C   UNK A   1       6.289  -3.814  22.882  0.00  0.00    +0.135 C 
BRANCH  31  32
ATOM     32  C   UNK A   1       5.651  -5.018  22.095  0.00  0.00    +0.062 C 
ATOM     33  O   UNK A   1       5.917  -5.051  20.851  0.00  0.00    -0.548 OA
ATOM     34  O   UNK A   1       4.906  -5.808  22.751  0.00  0.00    -0.548 OA
ENDBRANCH  31  32
BRANCH  31  35
ATOM     35  N   UNK A   1       5.669  -2.527  22.435  0.00  0.00    -0.320 NA
ATOM     36  H   UNK A   1       5.725  -1.899  23.237  0.00  0.00    +0.119 HD
ATOM     37  H   UNK A   1       6.300  -2.124  21.713  0.00  0.00    +0.119 HD
ENDBRANCH  31  35
ENDBRANCH  30  31
ENDBRANCH  29  30
ENDBRANCH  27  29
ENDBRANCH   1  27
TORSDOF 12
ENDMDL
MODEL 7
REMARK VINA RESULT:      -6.2      1.744      2.612
REMARK  Name = 
REMARK  16 active torsions:
REMARK  status: ('A' for Active; 'I' for Inactive)
REMARK    1  A    between atoms: C_1  and  O_2
REMARK    2  A    between atoms: O_2  and  C_3
REMARK    3  A    between atoms: C_7  and  O_8
REMARK    4  A    between atoms: O_8  and  C_9
REMARK    5  A    between atoms: C_10  and  C_11
REMARK    6  A    between atoms: N_13  and  C_14
REMARK    7  A    between atoms: C_14  and  C_16
REMARK    8  A    between atoms: C_14  and  C_28
REMARK    9  A    between atoms: C_19  and  C_21
REMARK   10  A    between atoms: C_24  and  C_25
REMARK   11  A    between atoms: C_24  and  C_26
REMARK   12  A    between atoms: C_28  and  O_30
REMARK   13  A    between atoms: O_30  and  C_31
REMARK   14  A    between atoms: C_31  and  C_32
REMARK   15  A    between atoms: C_32  and  N_34
REMARK   16  A    between atoms: C_32  and  C_35
REMARK                            x       y       z     vdW  Elec       q    Type
REMARK                         _______ _______ _______ _____ _____    ______ ____
ROOT
ATOM      1  C   UNK A   0       8.601  -0.761  23.358  0.00  0.00    +0.209 C 
ENDROOT
BRANCH   1   2
ATOM      2  C   UNK A   0       8.279   0.227  22.197  0.00  0.00    +0.144 C 
ATOM      3  S   UNK A   0       6.916   1.385  22.621  0.00  0.00    -0.131 S 
ATOM      4  C   UNK A   1       8.054   2.770  23.065  0.00  0.00    +0.033 C 
ATOM      5  C   UNK A   1       7.937   2.999  24.575  0.00  0.00    +0.024 C 
ATOM      6  C   UNK A   1       7.569   4.026  22.323  0.00  0.00    +0.024 C 
ATOM      7  C   UNK A   1       9.443   2.325  22.542  0.00  0.00    +0.116 C 
ATOM      8  N   UNK A   1       9.310   1.111  21.654  0.00  0.00    -0.294 NA
ATOM      9  H   UNK A   1       8.968   1.452  20.759  0.00  0.00    +0.124 HD
BRANCH   7  10
ATOM     10  C   UNK A   1      10.643   2.246  23.545  0.00  0.00    +0.060 C 
ATOM     11  O   UNK A   1      10.862   1.135  24.098  0.00  0.00    -0.548 OA
ATOM     12  O   UNK A   1      11.317   3.320  23.626  0.00  0.00    -0.548 OA
ENDBRANCH   7  10
ENDBRANCH   1   2
BRANCH   1  14
ATOM     13  C   UNK A   0       7.795  -0.635  25.760  0.00  0.00    +0.252 C 
ATOM     14  N   UNK A   0       7.525  -0.707  24.412  0.00  0.00    -0.296 N 
ATOM     15  H   UNK A   0       6.593  -0.983  24.116  0.00  0.00    +0.150 HD
ATOM     16  O   UNK A   0       8.953  -0.518  26.147  0.00  0.00    -0.270 OA
BRANCH  13  18
ATOM     17  C   UNK A   0       6.370   0.413  27.632  0.00  0.00    +0.136 A 
ATOM     18  C   UNK A   0       6.643  -0.657  26.743  0.00  0.00    +0.120 A 
ATOM     19  C   UNK A   0       5.755  -1.772  26.810  0.00  0.00    +0.136 A 
ATOM     20  C   UNK A   0       4.703  -1.807  27.745  0.00  0.00    +0.046 A 
ATOM     21  C   UNK A   0       4.524  -0.789  28.665  0.00  0.00    +0.007 A 
ATOM     22  C   UNK A   0       5.360   0.314  28.617  0.00  0.00    +0.046 A 
BRANCH  17  24
ATOM     23  C   UNK A   0       6.821   2.475  28.647  0.00  0.00    +0.277 C 
ATOM     24  O   UNK A   0       7.074   1.595  27.538  0.00  0.00    -0.494 OA
ENDBRANCH  17  24
BRANCH  19  25
ATOM     25  O   UNK A   0       5.677  -2.809  25.906  0.00  0.00    -0.494 OA
ATOM     26  C   UNK A   0       4.517  -2.824  25.077  0.00  0.00    +0.277 C 
ENDBRANCH  19  25
ENDBRANCH  13  18
ENDBRANCH   1  14
BRANCH   1  27
ATOM     27  C   UNK A   1       8.587  -2.218  22.876  0.00  0.00    +0.330 C 
ATOM     28  O   UNK A   1       8.124  -2.553  21.785  0.00  0.00    -0.249 OA
BRANCH  27  29
ATOM     29  O   UNK A   1       8.931  -3.062  23.884  0.00  0.00    -0.461 OA
BRANCH  29  30
ATOM     30  C   UNK A   1       8.211  -4.310  24.027  0.00  0.00    +0.256 C 
BRANCH  30  31
ATOM     31  C   UNK A   1       8.862  -5.253  25.039  0.00  0.00    +0.135 C 
BRANCH  31  32
ATOM     32  C   UNK A   1       8.338  -4.961  26.494  0.00  0.00    +0.062 C 
ATOM     33  O   UNK A   1       7.552  -5.842  26.971  0.00  0.00    -0.548 OA
ATOM     34  O   UNK A   1       8.704  -3.873  27.034  0.00  0.00    -0.548 OA
ENDBRANCH  31  32
BRANCH  31  35
ATOM     35  N   UNK A   1      10.354  -5.147  25.003  0.00  0.00    -0.320 NA
ATOM     36  H   UNK A   1      10.702  -6.099  25.125  0.00  0.00    +0.119 HD
ATOM     37  H   UNK A   1      10.613  -4.870  24.035  0.00  0.00    +0.119 HD
ENDBRANCH  31  35
ENDBRANCH  30  31
ENDBRANCH  29  30
ENDBRANCH  27  29
ENDBRANCH   1  27
TORSDOF 12
ENDMDL
MODEL 8
REMARK VINA RESULT:      -6.2      2.611      6.337
REMARK  Name = 
REMARK  16 active torsions:
REMARK  status: ('A' for Active; 'I' for Inactive)
REMARK    1  A    between atoms: C_1  and  O_2
REMARK    2  A    between atoms: O_2  and  C_3
REMARK    3  A    between atoms: C_7  and  O_8
REMARK    4  A    between atoms: O_8  and  C_9
REMARK    5  A    between atoms: C_10  and  C_11
REMARK    6  A    between atoms: N_13  and  C_14
REMARK    7  A    between atoms: C_14  and  C_16
REMARK    8  A    between atoms: C_14  and  C_28
REMARK    9  A    between atoms: C_19  and  C_21
REMARK   10  A    between atoms: C_24  and  C_25
REMARK   11  A    between atoms: C_24  and  C_26
REMARK   12  A    between atoms: C_28  and  O_30
REMARK   13  A    between atoms: O_30  and  C_31
REMARK   14  A    between atoms: C_31  and  C_32
REMARK   15  A    between atoms: C_32  and  N_34
REMARK   16  A    between atoms: C_32  and  C_35
REMARK                            x       y       z     vdW  Elec       q    Type
REMARK                         _______ _______ _______ _____ _____    ______ ____
ROOT
ATOM      1  C   UNK A   0       5.943  -2.576  25.951  0.00  0.00    +0.209 C 
ENDROOT
BRANCH   1   2
ATOM      2  C   UNK A   0       5.564  -3.859  25.153  0.00  0.00    +0.144 C 
ATOM      3  S   UNK A   0       5.538  -3.571  23.338  0.00  0.00    -0.131 S 
ATOM      4  C   UNK A   1       7.222  -4.279  23.068  0.00  0.00    +0.033 C 
ATOM      5  C   UNK A   1       8.145  -3.131  22.650  0.00  0.00    +0.024 C 
ATOM      6  C   UNK A   1       7.120  -5.293  21.917  0.00  0.00    +0.024 C 
ATOM      7  C   UNK A   1       7.570  -4.992  24.398  0.00  0.00    +0.116 C 
ATOM      8  N   UNK A   1       6.350  -5.085  25.284  0.00  0.00    -0.294 NA
ATOM      9  H   UNK A   1       5.785  -5.842  24.907  0.00  0.00    +0.124 HD
BRANCH   7  10
ATOM     10  C   UNK A   1       8.875  -4.582  25.161  0.00  0.00    +0.060 C 
ATOM     11  O   UNK A   1       8.741  -3.883  26.201  0.00  0.00    -0.548 OA
ATOM     12  O   UNK A   1       9.935  -5.081  24.671  0.00  0.00    -0.548 OA
ENDBRANCH   7  10
ENDBRANCH   1   2
BRANCH   1  14
ATOM     13  C   UNK A   0       6.904  -0.488  24.877  0.00  0.00    +0.252 C 
ATOM     14  N   UNK A   0       5.854  -1.358  25.068  0.00  0.00    -0.296 N 
ATOM     15  H   UNK A   0       4.917  -1.053  24.817  0.00  0.00    +0.150 HD
ATOM     16  O   UNK A   0       8.001  -0.737  25.364  0.00  0.00    -0.270 OA
BRANCH  13  18
ATOM     17  C   UNK A   0       5.565   1.597  24.172  0.00  0.00    +0.136 A 
ATOM     18  C   UNK A   0       6.690   0.746  24.026  0.00  0.00    +0.120 A 
ATOM     19  C   UNK A   0       7.637   1.123  23.028  0.00  0.00    +0.136 A 
ATOM     20  C   UNK A   0       7.424   2.253  22.214  0.00  0.00    +0.046 A 
ATOM     21  C   UNK A   0       6.267   3.005  22.317  0.00  0.00    +0.007 A 
ATOM     22  C   UNK A   0       5.334   2.673  23.285  0.00  0.00    +0.046 A 
BRANCH  17  24
ATOM     23  C   UNK A   0       4.921   2.288  26.315  0.00  0.00    +0.277 C 
ATOM     24  O   UNK A   0       4.675   1.404  25.208  0.00  0.00    -0.494 OA
ENDBRANCH  17  24
BRANCH  19  25
ATOM     25  O   UNK A   0       8.900   0.599  22.860  0.00  0.00    -0.494 OA
ATOM     26  C   UNK A   0       9.284   0.322  21.515  0.00  0.00    +0.277 C 
ENDBRANCH  19  25
ENDBRANCH  13  18
ENDBRANCH   1  14
BRANCH   1  27
ATOM     27  C   UNK A   1       4.940  -2.300  27.080  0.00  0.00    +0.330 C 
ATOM     28  O   UNK A   1       4.961  -1.268  27.752  0.00  0.00    -0.249 OA
BRANCH  27  29
ATOM     29  O   UNK A   1       4.215  -3.414  27.362  0.00  0.00    -0.461 OA
BRANCH  29  30
ATOM     30  C   UNK A   1       4.445  -4.098  28.618  0.00  0.00    +0.256 C 
BRANCH  30  31
ATOM     31  C   UNK A   1       4.371  -5.619  28.482  0.00  0.00    +0.135 C 
BRANCH  31  32
ATOM     32  C   UNK A   1       5.810  -6.256  28.530  0.00  0.00    +0.062 C 
ATOM     33  O   UNK A   1       6.770  -5.428  28.413  0.00  0.00    -0.548 OA
ATOM     34  O   UNK A   1       5.882  -7.518  28.633  0.00  0.00    -0.548 OA
ENDBRANCH  31  32
BRANCH  31  35
ATOM     35  N   UNK A   1       3.678  -6.022  27.218  0.00  0.00    -0.320 NA
ATOM     36  H   UNK A   1       2.679  -5.927  27.408  0.00  0.00    +0.119 HD
ATOM     37  H   UNK A   1       3.903  -5.298  26.507  0.00  0.00    +0.119 HD
ENDBRANCH  31  35
ENDBRANCH  30  31
ENDBRANCH  29  30
ENDBRANCH  27  29
ENDBRANCH   1  27
TORSDOF 12
ENDMDL
MODEL 9
REMARK VINA RESULT:      -6.2      2.622      6.516
REMARK  Name = 
REMARK  16 active torsions:
REMARK  status: ('A' for Active; 'I' for Inactive)
REMARK    1  A    between atoms: C_1  and  O_2
REMARK    2  A    between atoms: O_2  and  C_3
REMARK    3  A    between atoms: C_7  and  O_8
REMARK    4  A    between atoms: O_8  and  C_9
REMARK    5  A    between atoms: C_10  and  C_11
REMARK    6  A    between atoms: N_13  and  C_14
REMARK    7  A    between atoms: C_14  and  C_16
REMARK    8  A    between atoms: C_14  and  C_28
REMARK    9  A    between atoms: C_19  and  C_21
REMARK   10  A    between atoms: C_24  and  C_25
REMARK   11  A    between atoms: C_24  and  C_26
REMARK   12  A    between atoms: C_28  and  O_30
REMARK   13  A    between atoms: O_30  and  C_31
REMARK   14  A    between atoms: C_31  and  C_32
REMARK   15  A    between atoms: C_32  and  N_34
REMARK   16  A    between atoms: C_32  and  C_35
REMARK                            x       y       z     vdW  Elec       q    Type
REMARK                         _______ _______ _______ _____ _____    ______ ____
ROOT
ATOM      1  C   UNK A   0       5.864  -2.446  25.730  0.00  0.00    +0.209 C 
ENDROOT
BRANCH   1   2
ATOM      2  C   UNK A   0       5.434  -3.729  24.956  0.00  0.00    +0.144 C 
ATOM      3  S   UNK A   0       5.458  -3.487  23.134  0.00  0.00    -0.131 S 
ATOM      4  C   UNK A   1       7.108  -4.289  22.918  0.00  0.00    +0.033 C 
ATOM      5  C   UNK A   1       8.098  -3.201  22.490  0.00  0.00    +0.024 C 
ATOM      6  C   UNK A   1       6.976  -5.326  21.790  0.00  0.00    +0.024 C 
ATOM      7  C   UNK A   1       7.392  -4.984  24.272  0.00  0.00    +0.116 C 
ATOM      8  N   UNK A   1       6.152  -4.990  25.134  0.00  0.00    -0.294 NA
ATOM      9  H   UNK A   1       5.555  -5.726  24.765  0.00  0.00    +0.124 HD
BRANCH   7  10
ATOM     10  C   UNK A   1       8.701  -4.623  25.051  0.00  0.00    +0.060 C 
ATOM     11  O   UNK A   1       9.774  -5.157  24.659  0.00  0.00    -0.548 OA
ATOM     12  O   UNK A   1       8.535  -3.752  25.961  0.00  0.00    -0.548 OA
ENDBRANCH   7  10
ENDBRANCH   1   2
BRANCH   1  14
ATOM     13  C   UNK A   0       6.825  -0.368  24.638  0.00  0.00    +0.252 C 
ATOM     14  N   UNK A   0       5.774  -1.235  24.838  0.00  0.00    -0.296 N 
ATOM     15  H   UNK A   0       4.838  -0.931  24.587  0.00  0.00    +0.150 HD
ATOM     16  O   UNK A   0       7.923  -0.615  25.124  0.00  0.00    -0.270 OA
BRANCH  13  18
ATOM     17  C   UNK A   0       7.413   1.157  22.647  0.00  0.00    +0.136 A 
ATOM     18  C   UNK A   0       6.611   0.860  23.778  0.00  0.00    +0.120 A 
ATOM     19  C   UNK A   0       5.562   1.784  24.064  0.00  0.00    +0.136 A 
ATOM     20  C   UNK A   0       5.383   2.943  23.283  0.00  0.00    +0.046 A 
ATOM     21  C   UNK A   0       6.245   3.253  22.247  0.00  0.00    +0.007 A 
ATOM     22  C   UNK A   0       7.265   2.369  21.934  0.00  0.00    +0.046 A 
BRANCH  17  24
ATOM     23  C   UNK A   0       9.684   0.788  22.206  0.00  0.00    +0.277 C 
ATOM     24  O   UNK A   0       8.351   0.249  22.199  0.00  0.00    -0.494 OA
ENDBRANCH  17  24
BRANCH  19  25
ATOM     25  O   UNK A   0       4.526   1.595  24.951  0.00  0.00    -0.494 OA
ATOM     26  C   UNK A   0       4.399   2.576  25.977  0.00  0.00    +0.277 C 
ENDBRANCH  19  25
ENDBRANCH  13  18
ENDBRANCH   1  14
BRANCH   1  27
ATOM     27  C   UNK A   1       4.902  -2.139  26.885  0.00  0.00    +0.330 C 
ATOM     28  O   UNK A   1       4.889  -1.055  27.470  0.00  0.00    -0.249 OA
BRANCH  27  29
ATOM     29  O   UNK A   1       4.266  -3.267  27.295  0.00  0.00    -0.461 OA
BRANCH  29  30
ATOM     30  C   UNK A   1       4.737  -3.943  28.486  0.00  0.00    +0.256 C 
BRANCH  30  31
ATOM     31  C   UNK A   1       4.496  -5.451  28.442  0.00  0.00    +0.135 C 
BRANCH  31  32
ATOM     32  C   UNK A   1       5.860  -6.237  28.466  0.00  0.00    +0.062 C 
ATOM     33  O   UNK A   1       6.891  -5.537  28.205  0.00  0.00    -0.548 OA
ATOM     34  O   UNK A   1       5.806  -7.483  28.695  0.00  0.00    -0.548 OA
ENDBRANCH  31  32
BRANCH  31  35
ATOM     35  N   UNK A   1       3.704  -5.844  27.234  0.00  0.00    -0.320 NA
ATOM     36  H   UNK A   1       3.988  -6.799  27.015  0.00  0.00    +0.119 HD
ATOM     37  H   UNK A   1       2.710  -5.903  27.534  0.00  0.00    +0.119 HD
ENDBRANCH  31  35
ENDBRANCH  30  31
ENDBRANCH  29  30
ENDBRANCH  27  29
ENDBRANCH   1  27
TORSDOF 12
ENDMDL
