MODEL 1
REMARK VINA RESULT:      -4.8      0.000      0.000
REMARK  Name = 
REMARK  3 active torsions:
REMARK  status: ('A' for Active; 'I' for Inactive)
REMARK    1  A    between atoms: N_1  and  C_2
REMARK    2  A    between atoms: C_5  and  C_8
REMARK    3  A    between atoms: C_8  and  O_9
REMARK                            x       y       z     vdW  Elec       q    Type
REMARK                         _______ _______ _______ _____ _____    ______ ____
ROOT
ATOM      1  C   UNL     1      10.019   0.958  22.167  0.00  0.00    +0.025 A 
ATOM      2  C   UNL     1       9.377  -0.012  21.394  0.00  0.00    +0.023 A 
ATOM      3  C   UNL     1       9.139  -1.292  21.905  0.00  0.00    +0.017 A 
ATOM      4  C   UNL     1       9.508  -1.603  23.216  0.00  0.00    +0.059 A 
ATOM      5  C   UNL     1      10.074  -0.613  24.026  0.00  0.00    +0.017 A 
ATOM      6  C   UNL     1      10.315   0.662  23.502  0.00  0.00    +0.023 A 
ENDROOT
BRANCH   1   7
ATOM      7  N   UNL     1      10.136   2.269  21.696  0.00  0.00    -0.358 N 
ATOM      8  H   UNL     1       9.268   2.663  21.346  0.00  0.00    +0.142 HD
ATOM      9  H   UNL     1      10.910   2.417  21.057  0.00  0.00    +0.142 HD
ENDBRANCH   1   7
BRANCH   4  10
ATOM     10  C   UNL     1       9.215  -2.969  23.722  0.00  0.00    +0.337 C 
ATOM     11  O   UNL     1      10.032  -3.642  24.324  0.00  0.00    -0.245 OA
BRANCH  10  12
ATOM     12  O   UNL     1       7.947  -3.373  23.498  0.00  0.00    -0.477 OA
ATOM     13  H   UNL     1       7.566  -3.941  24.191  0.00  0.00    +0.295 HD
ENDBRANCH  10  12
ENDBRANCH   4  10
TORSDOF 3
ENDMDL
MODEL 2
REMARK VINA RESULT:      -4.7      1.257      2.106
REMARK  Name = 
REMARK  3 active torsions:
REMARK  status: ('A' for Active; 'I' for Inactive)
REMARK    1  A    between atoms: N_1  and  C_2
REMARK    2  A    between atoms: C_5  and  C_8
REMARK    3  A    between atoms: C_8  and  O_9
REMARK                            x       y       z     vdW  Elec       q    Type
REMARK                         _______ _______ _______ _____ _____    ______ ____
ROOT
ATOM      1  C   UNL     1      10.412   2.257  23.119  0.00  0.00    +0.025 A 
ATOM      2  C   UNL     1      10.681   1.425  24.209  0.00  0.00    +0.023 A 
ATOM      3  C   UNL     1      10.405   0.056  24.148  0.00  0.00    +0.017 A 
ATOM      4  C   UNL     1       9.890  -0.505  22.976  0.00  0.00    +0.059 A 
ATOM      5  C   UNL     1       9.697   0.305  21.852  0.00  0.00    +0.017 A 
ATOM      6  C   UNL     1       9.969   1.676  21.926  0.00  0.00    +0.023 A 
ENDROOT
BRANCH   1   7
ATOM      7  N   UNL     1      10.811   3.596  23.143  0.00  0.00    -0.358 N 
ATOM      8  H   UNL     1      10.514   4.104  23.971  0.00  0.00    +0.142 HD
ATOM      9  H   UNL     1      10.614   4.107  22.289  0.00  0.00    +0.142 HD
ENDBRANCH   1   7
BRANCH   4  10
ATOM     10  C   UNL     1       9.633  -1.968  22.952  0.00  0.00    +0.337 C 
ATOM     11  O   UNL     1      10.266  -2.763  23.624  0.00  0.00    -0.245 OA
BRANCH  10  12
ATOM     12  O   UNL     1       8.604  -2.329  22.158  0.00  0.00    -0.477 OA
ATOM     13  H   UNL     1       8.859  -2.694  21.292  0.00  0.00    +0.295 HD
ENDBRANCH  10  12
ENDBRANCH   4  10
TORSDOF 3
ENDMDL
MODEL 3
REMARK VINA RESULT:      -4.7      1.274      1.533
REMARK  Name = 
REMARK  3 active torsions:
REMARK  status: ('A' for Active; 'I' for Inactive)
REMARK    1  A    between atoms: N_1  and  C_2
REMARK    2  A    between atoms: C_5  and  C_8
REMARK    3  A    between atoms: C_8  and  O_9
REMARK                            x       y       z     vdW  Elec       q    Type
REMARK                         _______ _______ _______ _____ _____    ______ ____
ROOT
ATOM      1  C   UNL     1      10.476   2.266  23.084  0.00  0.00    +0.025 A 
ATOM      2  C   UNL     1       9.947   1.659  21.942  0.00  0.00    +0.023 A 
ATOM      3  C   UNL     1       9.714   0.281  21.907  0.00  0.00    +0.017 A 
ATOM      4  C   UNL     1       9.973  -0.503  23.034  0.00  0.00    +0.059 A 
ATOM      5  C   UNL     1      10.423   0.107  24.210  0.00  0.00    +0.017 A 
ATOM      6  C   UNL     1      10.660   1.486  24.231  0.00  0.00    +0.023 A 
ENDROOT
BRANCH   1   7
ATOM      7  N   UNL     1      10.583   3.657  23.155  0.00  0.00    -0.358 N 
ATOM      8  H   UNL     1      10.605   4.024  24.102  0.00  0.00    +0.142 HD
ATOM      9  H   UNL     1       9.929   4.159  22.564  0.00  0.00    +0.142 HD
ENDBRANCH   1   7
BRANCH   4  10
ATOM     10  C   UNL     1       9.689  -1.960  22.956  0.00  0.00    +0.337 C 
ATOM     11  O   UNL     1      10.278  -2.787  23.630  0.00  0.00    -0.245 OA
BRANCH  10  12
ATOM     12  O   UNL     1       8.687  -2.276  22.109  0.00  0.00    -0.477 OA
ATOM     13  H   UNL     1       8.962  -2.449  21.191  0.00  0.00    +0.295 HD
ENDBRANCH  10  12
ENDBRANCH   4  10
TORSDOF 3
ENDMDL
MODEL 4
REMARK VINA RESULT:      -4.6      0.704      1.669
REMARK  Name = 
REMARK  3 active torsions:
REMARK  status: ('A' for Active; 'I' for Inactive)
REMARK    1  A    between atoms: N_1  and  C_2
REMARK    2  A    between atoms: C_5  and  C_8
REMARK    3  A    between atoms: C_8  and  O_9
REMARK                            x       y       z     vdW  Elec       q    Type
REMARK                         _______ _______ _______ _____ _____    ______ ____
ROOT
ATOM      1  C   UNL     1       9.948   1.096  22.312  0.00  0.00    +0.025 A 
ATOM      2  C   UNL     1      10.243   0.948  23.669  0.00  0.00    +0.023 A 
ATOM      3  C   UNL     1      10.056  -0.279  24.312  0.00  0.00    +0.017 A 
ATOM      4  C   UNL     1       9.605  -1.388  23.590  0.00  0.00    +0.059 A 
ATOM      5  C   UNL     1       9.388  -1.271  22.213  0.00  0.00    +0.017 A 
ATOM      6  C   UNL     1       9.571  -0.036  21.582  0.00  0.00    +0.023 A 
ENDROOT
BRANCH   1   7
ATOM      7  N   UNL     1      10.259   2.287  21.651  0.00  0.00    -0.358 N 
ATOM      8  H   UNL     1       9.878   3.119  22.091  0.00  0.00    +0.142 HD
ATOM      9  H   UNL     1      10.088   2.269  20.651  0.00  0.00    +0.142 HD
ENDBRANCH   1   7
BRANCH   4  10
ATOM     10  C   UNL     1       9.443  -2.677  24.312  0.00  0.00    +0.337 C 
ATOM     11  O   UNL     1      10.187  -3.627  24.146  0.00  0.00    -0.245 OA
BRANCH  10  12
ATOM     12  O   UNL     1       8.429  -2.679  25.202  0.00  0.00    -0.477 OA
ATOM     13  H   UNL     1       8.633  -2.268  26.061  0.00  0.00    +0.295 HD
ENDBRANCH  10  12
ENDBRANCH   4  10
TORSDOF 3
ENDMDL
MODEL 5
REMARK VINA RESULT:      -4.5      4.030      5.030
REMARK  Name = 
REMARK  3 active torsions:
REMARK  status: ('A' for Active; 'I' for Inactive)
REMARK    1  A    between atoms: N_1  and  C_2
REMARK    2  A    between atoms: C_5  and  C_8
REMARK    3  A    between atoms: C_8  and  O_9
REMARK                            x       y       z     vdW  Elec       q    Type
REMARK                         _______ _______ _______ _____ _____    ______ ____
ROOT
ATOM      1  C   UNL     1      10.168  -0.592  22.885  0.00  0.00    +0.025 A 
ATOM      2  C   UNL     1      10.530  -0.049  24.121  0.00  0.00    +0.023 A 
ATOM      3  C   UNL     1      10.642   1.334  24.290  0.00  0.00    +0.017 A 
ATOM      4  C   UNL     1      10.352   2.196  23.228  0.00  0.00    +0.059 A 
ATOM      5  C   UNL     1       9.907   1.666  22.012  0.00  0.00    +0.017 A 
ATOM      6  C   UNL     1       9.806   0.280  21.852  0.00  0.00    +0.023 A 
ENDROOT
BRANCH   1   7
ATOM      7  N   UNL     1       9.934  -1.964  22.761  0.00  0.00    -0.358 N 
ATOM      8  H   UNL     1       9.131  -2.197  22.185  0.00  0.00    +0.142 HD
ATOM      9  H   UNL     1       9.937  -2.471  23.640  0.00  0.00    +0.142 HD
ENDBRANCH   1   7
BRANCH   4  10
ATOM     10  C   UNL     1      10.464   3.659  23.462  0.00  0.00    +0.337 C 
ATOM     11  O   UNL     1       9.628   4.297  24.078  0.00  0.00    -0.245 OA
BRANCH  10  12
ATOM     12  O   UNL     1      11.597   4.205  22.975  0.00  0.00    -0.477 OA
ATOM     13  H   UNL     1      11.681   4.185  22.005  0.00  0.00    +0.295 HD
ENDBRANCH  10  12
ENDBRANCH   4  10
TORSDOF 3
ENDMDL
MODEL 6
REMARK VINA RESULT:      -4.4      3.615      4.266
REMARK  Name = 
REMARK  3 active torsions:
REMARK  status: ('A' for Active; 'I' for Inactive)
REMARK    1  A    between atoms: N_1  and  C_2
REMARK    2  A    between atoms: C_5  and  C_8
REMARK    3  A    between atoms: C_8  and  O_9
REMARK                            x       y       z     vdW  Elec       q    Type
REMARK                         _______ _______ _______ _____ _____    ______ ____
ROOT
ATOM      1  C   UNL     1       9.628  -1.973  23.933  0.00  0.00    +0.025 A 
ATOM      2  C   UNL     1       9.926  -1.644  22.608  0.00  0.00    +0.023 A 
ATOM      3  C   UNL     1      10.113  -0.313  22.226  0.00  0.00    +0.017 A 
ATOM      4  C   UNL     1      10.042   0.707  23.179  0.00  0.00    +0.059 A 
ATOM      5  C   UNL     1       9.828   0.381  24.523  0.00  0.00    +0.017 A 
ATOM      6  C   UNL     1       9.634  -0.955  24.892  0.00  0.00    +0.023 A 
ENDROOT
BRANCH   1   7
ATOM      7  N   UNL     1       9.571  -3.312  24.329  0.00  0.00    -0.358 N 
ATOM      8  H   UNL     1       9.427  -3.965  23.565  0.00  0.00    +0.142 HD
ATOM      9  H   UNL     1       8.950  -3.492  25.111  0.00  0.00    +0.142 HD
ENDBRANCH   1   7
BRANCH   4  10
ATOM     10  C   UNL     1      10.269   2.105  22.729  0.00  0.00    +0.337 C 
ATOM     11  O   UNL     1      10.762   2.959  23.445  0.00  0.00    -0.245 OA
BRANCH  10  12
ATOM     12  O   UNL     1       9.928   2.327  21.443  0.00  0.00    -0.477 OA
ATOM     13  H   UNL     1      10.641   2.179  20.796  0.00  0.00    +0.295 HD
ENDBRANCH  10  12
ENDBRANCH   4  10
TORSDOF 3
ENDMDL
MODEL 7
REMARK VINA RESULT:      -4.4      5.467      6.242
REMARK  Name = 
REMARK  3 active torsions:
REMARK  status: ('A' for Active; 'I' for Inactive)
REMARK    1  A    between atoms: N_1  and  C_2
REMARK    2  A    between atoms: C_5  and  C_8
REMARK    3  A    between atoms: C_8  and  O_9
REMARK                            x       y       z     vdW  Elec       q    Type
REMARK                         _______ _______ _______ _____ _____    ______ ____
ROOT
ATOM      1  C   UNL     1       6.105  -5.708  22.937  0.00  0.00    +0.025 A 
ATOM      2  C   UNL     1       7.459  -5.377  23.020  0.00  0.00    +0.023 A 
ATOM      3  C   UNL     1       8.059  -5.125  24.258  0.00  0.00    +0.017 A 
ATOM      4  C   UNL     1       7.315  -5.242  25.435  0.00  0.00    +0.059 A 
ATOM      5  C   UNL     1       5.980  -5.656  25.368  0.00  0.00    +0.017 A 
ATOM      6  C   UNL     1       5.388  -5.897  24.123  0.00  0.00    +0.023 A 
ENDROOT
BRANCH   1   7
ATOM      7  N   UNL     1       5.547  -6.083  21.711  0.00  0.00    -0.358 N 
ATOM      8  H   UNL     1       5.787  -7.025  21.417  0.00  0.00    +0.142 HD
ATOM      9  H   UNL     1       5.673  -5.404  20.968  0.00  0.00    +0.142 HD
ENDBRANCH   1   7
BRANCH   4  10
ATOM     10  C   UNL     1       8.001  -4.987  26.728  0.00  0.00    +0.337 C 
ATOM     11  O   UNL     1       8.680  -3.997  26.933  0.00  0.00    -0.245 OA
BRANCH  10  12
ATOM     12  O   UNL     1       7.763  -5.926  27.667  0.00  0.00    -0.477 OA
ATOM     13  H   UNL     1       8.434  -6.629  27.727  0.00  0.00    +0.295 HD
ENDBRANCH  10  12
ENDBRANCH   4  10
TORSDOF 3
ENDMDL
MODEL 8
REMARK VINA RESULT:      -4.3      5.555      6.364
REMARK  Name = 
REMARK  3 active torsions:
REMARK  status: ('A' for Active; 'I' for Inactive)
REMARK    1  A    between atoms: N_1  and  C_2
REMARK    2  A    between atoms: C_5  and  C_8
REMARK    3  A    between atoms: C_8  and  O_9
REMARK                            x       y       z     vdW  Elec       q    Type
REMARK                         _______ _______ _______ _____ _____    ______ ____
ROOT
ATOM      1  C   UNL     1       7.451  -5.399  25.858  0.00  0.00    +0.025 A 
ATOM      2  C   UNL     1       6.095  -5.630  25.611  0.00  0.00    +0.023 A 
ATOM      3  C   UNL     1       5.564  -5.465  24.329  0.00  0.00    +0.017 A 
ATOM      4  C   UNL     1       6.396  -5.102  23.266  0.00  0.00    +0.059 A 
ATOM      5  C   UNL     1       7.769  -4.951  23.486  0.00  0.00    +0.017 A 
ATOM      6  C   UNL     1       8.289  -5.111  24.775  0.00  0.00    +0.023 A 
ENDROOT
BRANCH   1   7
ATOM      7  N   UNL     1       7.997  -5.691  27.111  0.00  0.00    -0.358 N 
ATOM      8  H   UNL     1       8.025  -6.682  27.331  0.00  0.00    +0.142 HD
ATOM      9  H   UNL     1       7.617  -5.139  27.873  0.00  0.00    +0.142 HD
ENDBRANCH   1   7
BRANCH   4  10
ATOM     10  C   UNL     1       5.789  -4.960  21.917  0.00  0.00    +0.337 C 
ATOM     11  O   UNL     1       5.648  -3.884  21.364  0.00  0.00    -0.245 OA
BRANCH  10  12
ATOM     12  O   UNL     1       5.456  -6.135  21.342  0.00  0.00    -0.477 OA
ATOM     13  H   UNL     1       4.605  -6.136  20.869  0.00  0.00    +0.295 HD
ENDBRANCH  10  12
ENDBRANCH   4  10
TORSDOF 3
ENDMDL
MODEL 9
REMARK VINA RESULT:      -4.2      5.423      6.153
REMARK  Name = 
REMARK  3 active torsions:
REMARK  status: ('A' for Active; 'I' for Inactive)
REMARK    1  A    between atoms: N_1  and  C_2
REMARK    2  A    between atoms: C_5  and  C_8
REMARK    3  A    between atoms: C_8  and  O_9
REMARK                            x       y       z     vdW  Elec       q    Type
REMARK                         _______ _______ _______ _____ _____    ______ ____
ROOT
ATOM      1  C   UNL     1       8.353  -5.170  25.784  0.00  0.00    +0.025 A 
ATOM      2  C   UNL     1       8.674  -4.954  24.442  0.00  0.00    +0.023 A 
ATOM      3  C   UNL     1       7.696  -5.051  23.448  0.00  0.00    +0.017 A 
ATOM      4  C   UNL     1       6.370  -5.328  23.793  0.00  0.00    +0.059 A 
ATOM      5  C   UNL     1       6.023  -5.462  25.142  0.00  0.00    +0.017 A 
ATOM      6  C   UNL     1       7.012  -5.371  26.127  0.00  0.00    +0.023 A 
ENDROOT
BRANCH   1   7
ATOM      7  N   UNL     1       9.307  -4.944  26.780  0.00  0.00    -0.358 N 
ATOM      8  H   UNL     1       9.370  -3.977  27.083  0.00  0.00    +0.142 HD
ATOM      9  H   UNL     1      10.218  -5.347  26.588  0.00  0.00    +0.142 HD
ENDBRANCH   1   7
BRANCH   4  10
ATOM     10  C   UNL     1       5.362  -5.399  22.703  0.00  0.00    +0.337 C 
ATOM     11  O   UNL     1       4.450  -4.599  22.591  0.00  0.00    -0.245 OA
BRANCH  10  12
ATOM     12  O   UNL     1       5.578  -6.399  21.824  0.00  0.00    -0.477 OA
ATOM     13  H   UNL     1       4.886  -7.084  21.799  0.00  0.00    +0.295 HD
ENDBRANCH  10  12
ENDBRANCH   4  10
TORSDOF 3
ENDMDL
