MODEL 1
REMARK VINA RESULT:      -4.9      0.000      0.000
REMARK  Name = 
REMARK  4 active torsions:
REMARK  status: ('A' for Active; 'I' for Inactive)
REMARK    1  A    between atoms: N_1  and  C_2
REMARK    2  A    between atoms: C_5  and  C_13
REMARK    3  A    between atoms: C_7  and  O_9
REMARK    4  A    between atoms: C_10  and  O_12
REMARK                            x       y       z     vdW  Elec       q    Type
REMARK                         _______ _______ _______ _____ _____    ______ ____
ROOT
ATOM      1  C   UNL     1       9.155  -4.360  25.020  0.00  0.00    +0.106 C 
ATOM      2  C   UNL     1       8.657  -3.960  26.443  0.00  0.00    +0.164 C 
ATOM      3  C   UNL     1       7.393  -4.688  26.943  0.00  0.00    +0.149 C 
ATOM      4  C   UNL     1       6.310  -4.944  25.880  0.00  0.00    +0.070 C 
ATOM      5  C   UNL     1       6.829  -5.168  24.489  0.00  0.00    -0.025 C 
ATOM      6  C   UNL     1       8.091  -4.894  24.119  0.00  0.00    -0.001 C 
ENDROOT
BRANCH   1   7
ATOM      7  N   UNL     1      10.245  -5.348  25.048  0.00  0.00    -0.322 NA
ATOM      8  H   UNL     1      11.091  -4.876  25.364  0.00  0.00    +0.119 HD
ATOM      9  H   UNL     1      10.029  -6.026  25.781  0.00  0.00    +0.119 HD
ENDBRANCH   1   7
BRANCH   5  10
ATOM     10  C   UNL     1       5.827  -5.738  23.447  0.00  0.00    +0.068 C 
ATOM     11  O   UNL     1       5.954  -5.293  22.270  0.00  0.00    -0.545 OA
ATOM     12  O   UNL     1       5.010  -6.582  23.908  0.00  0.00    -0.545 OA
ENDBRANCH   5  10
BRANCH   2  13
ATOM     13  O   UNL     1       8.434  -2.533  26.490  0.00  0.00    -0.387 OA
ATOM     14  H   UNL     1       8.000  -2.363  27.341  0.00  0.00    +0.210 HD
ENDBRANCH   2  13
BRANCH   3  15
ATOM     15  O   UNL     1       7.759  -5.921  27.586  0.00  0.00    -0.389 OA
ATOM     16  H   UNL     1       8.723  -5.992  27.498  0.00  0.00    +0.210 HD
ENDBRANCH   3  15
TORSDOF 4
ENDMDL
MODEL 2
REMARK VINA RESULT:      -4.8      2.169      2.564
REMARK  Name = 
REMARK  4 active torsions:
REMARK  status: ('A' for Active; 'I' for Inactive)
REMARK    1  A    between atoms: N_1  and  C_2
REMARK    2  A    between atoms: C_5  and  C_13
REMARK    3  A    between atoms: C_7  and  O_9
REMARK    4  A    between atoms: C_10  and  O_12
REMARK                            x       y       z     vdW  Elec       q    Type
REMARK                         _______ _______ _______ _____ _____    ______ ____
ROOT
ATOM      1  C   UNL     1       8.968  -2.532  23.630  0.00  0.00    +0.106 C 
ATOM      2  C   UNL     1       8.988  -3.339  24.964  0.00  0.00    +0.164 C 
ATOM      3  C   UNL     1       8.570  -4.821  24.861  0.00  0.00    +0.149 C 
ATOM      4  C   UNL     1       7.412  -5.117  23.892  0.00  0.00    +0.070 C 
ATOM      5  C   UNL     1       7.337  -4.210  22.698  0.00  0.00    -0.025 C 
ATOM      6  C   UNL     1       8.025  -3.060  22.600  0.00  0.00    -0.001 C 
ENDROOT
BRANCH   1   7
ATOM      7  N   UNL     1      10.294  -2.426  23.001  0.00  0.00    -0.322 NA
ATOM      8  H   UNL     1      10.737  -3.342  23.044  0.00  0.00    +0.119 HD
ATOM      9  H   UNL     1      10.150  -2.246  22.006  0.00  0.00    +0.119 HD
ENDBRANCH   1   7
BRANCH   5  10
ATOM     10  C   UNL     1       6.400  -4.649  21.538  0.00  0.00    +0.068 C 
ATOM     11  O   UNL     1       6.464  -5.871  21.220  0.00  0.00    -0.545 OA
ATOM     12  O   UNL     1       5.684  -3.725  21.062  0.00  0.00    -0.545 OA
ENDBRANCH   5  10
BRANCH   2  13
ATOM     13  O   UNL     1       8.152  -2.677  25.940  0.00  0.00    -0.387 OA
ATOM     14  H   UNL     1       7.291  -3.121  25.893  0.00  0.00    +0.210 HD
ENDBRANCH   2  13
BRANCH   3  15
ATOM     15  O   UNL     1       9.711  -5.630  24.533  0.00  0.00    -0.389 OA
ATOM     16  H   UNL     1       9.731  -5.684  23.564  0.00  0.00    +0.210 HD
ENDBRANCH   3  15
TORSDOF 4
ENDMDL
MODEL 3
REMARK VINA RESULT:      -4.7      2.529      4.026
REMARK  Name = 
REMARK  4 active torsions:
REMARK  status: ('A' for Active; 'I' for Inactive)
REMARK    1  A    between atoms: N_1  and  C_2
REMARK    2  A    between atoms: C_5  and  C_13
REMARK    3  A    between atoms: C_7  and  O_9
REMARK    4  A    between atoms: C_10  and  O_12
REMARK                            x       y       z     vdW  Elec       q    Type
REMARK                         _______ _______ _______ _____ _____    ______ ____
ROOT
ATOM      1  C   UNL     1       9.003  -4.574  25.292  0.00  0.00    +0.106 C 
ATOM      2  C   UNL     1       7.588  -5.094  24.893  0.00  0.00    +0.164 C 
ATOM      3  C   UNL     1       7.147  -4.802  23.445  0.00  0.00    +0.149 C 
ATOM      4  C   UNL     1       7.557  -3.426  22.891  0.00  0.00    +0.070 C 
ATOM      5  C   UNL     1       8.854  -2.890  23.425  0.00  0.00    -0.025 C 
ATOM      6  C   UNL     1       9.479  -3.402  24.498  0.00  0.00    -0.001 C 
ENDROOT
BRANCH   1   7
ATOM      7  N   UNL     1      10.042  -5.612  25.211  0.00  0.00    -0.322 NA
ATOM      8  H   UNL     1       9.655  -6.476  25.586  0.00  0.00    +0.119 HD
ATOM      9  H   UNL     1      10.213  -5.802  24.223  0.00  0.00    +0.119 HD
ENDBRANCH   1   7
BRANCH   5  10
ATOM     10  C   UNL     1       9.472  -1.674  22.680  0.00  0.00    +0.068 C 
ATOM     11  O   UNL     1       8.705  -0.679  22.532  0.00  0.00    -0.545 OA
ATOM     12  O   UNL     1      10.671  -1.831  22.320  0.00  0.00    -0.545 OA
ENDBRANCH   5  10
BRANCH   2  13
ATOM     13  O   UNL     1       6.604  -4.559  25.807  0.00  0.00    -0.387 OA
ATOM     14  H   UNL     1       5.757  -4.949  25.539  0.00  0.00    +0.210 HD
ENDBRANCH   2  13
BRANCH   3  15
ATOM     15  O   UNL     1       7.608  -5.846  22.571  0.00  0.00    -0.389 OA
ATOM     16  H   UNL     1       6.851  -6.080  22.011  0.00  0.00    +0.210 HD
ENDBRANCH   3  15
TORSDOF 4
ENDMDL
MODEL 4
REMARK VINA RESULT:      -4.7      2.298      4.517
REMARK  Name = 
REMARK  4 active torsions:
REMARK  status: ('A' for Active; 'I' for Inactive)
REMARK    1  A    between atoms: N_1  and  C_2
REMARK    2  A    between atoms: C_5  and  C_13
REMARK    3  A    between atoms: C_7  and  O_9
REMARK    4  A    between atoms: C_10  and  O_12
REMARK                            x       y       z     vdW  Elec       q    Type
REMARK                         _______ _______ _______ _____ _____    ______ ____
ROOT
ATOM      1  C   UNL     1       4.777  -5.937  24.074  0.00  0.00    +0.106 C 
ATOM      2  C   UNL     1       5.396  -5.204  22.846  0.00  0.00    +0.164 C 
ATOM      3  C   UNL     1       6.926  -5.011  22.876  0.00  0.00    +0.149 C 
ATOM      4  C   UNL     1       7.525  -4.675  24.254  0.00  0.00    +0.070 C 
ATOM      5  C   UNL     1       6.800  -5.277  25.423  0.00  0.00    -0.025 C 
ATOM      6  C   UNL     1       5.576  -5.824  25.331  0.00  0.00    -0.001 C 
ENDROOT
BRANCH   1   7
ATOM      7  N   UNL     1       4.541  -7.369  23.831  0.00  0.00    -0.322 NA
ATOM      8  H   UNL     1       3.593  -7.476  23.474  0.00  0.00    +0.119 HD
ATOM      9  H   UNL     1       5.150  -7.657  23.063  0.00  0.00    +0.119 HD
ENDBRANCH   1   7
BRANCH   5  10
ATOM     10  C   UNL     1       7.526  -5.239  26.797  0.00  0.00    +0.068 C 
ATOM     11  O   UNL     1       7.133  -6.092  27.643  0.00  0.00    -0.545 OA
ATOM     12  O   UNL     1       8.427  -4.360  26.892  0.00  0.00    -0.545 OA
ENDBRANCH   5  10
BRANCH   2  13
ATOM     13  O   UNL     1       4.759  -3.916  22.683  0.00  0.00    -0.387 OA
ATOM     14  H   UNL     1       4.763  -3.508  23.562  0.00  0.00    +0.210 HD
ENDBRANCH   2  13
BRANCH   3  15
ATOM     15  O   UNL     1       7.577  -6.165  22.320  0.00  0.00    -0.389 OA
ATOM     16  H   UNL     1       8.183  -5.829  21.641  0.00  0.00    +0.210 HD
ENDBRANCH   3  15
TORSDOF 4
ENDMDL
MODEL 5
REMARK VINA RESULT:      -4.7      5.949      7.021
REMARK  Name = 
REMARK  4 active torsions:
REMARK  status: ('A' for Active; 'I' for Inactive)
REMARK    1  A    between atoms: N_1  and  C_2
REMARK    2  A    between atoms: C_5  and  C_13
REMARK    3  A    between atoms: C_7  and  O_9
REMARK    4  A    between atoms: C_10  and  O_12
REMARK                            x       y       z     vdW  Elec       q    Type
REMARK                         _______ _______ _______ _____ _____    ______ ____
ROOT
ATOM      1  C   UNL     1       9.688   1.724  24.311  0.00  0.00    +0.106 C 
ATOM      2  C   UNL     1       9.486   2.687  23.101  0.00  0.00    +0.164 C 
ATOM      3  C   UNL     1       8.781   2.083  21.869  0.00  0.00    +0.149 C 
ATOM      4  C   UNL     1       9.157   0.627  21.538  0.00  0.00    +0.070 C 
ATOM      5  C   UNL     1       9.499  -0.225  22.726  0.00  0.00    -0.025 C 
ATOM      6  C   UNL     1       9.743   0.277  23.948  0.00  0.00    -0.001 C 
ENDROOT
BRANCH   1   7
ATOM      7  N   UNL     1       8.657   1.879  25.349  0.00  0.00    -0.322 NA
ATOM      8  H   UNL     1       7.766   2.049  24.885  0.00  0.00    +0.119 HD
ATOM      9  H   UNL     1       8.548   0.976  25.813  0.00  0.00    +0.119 HD
ENDBRANCH   1   7
BRANCH   5  10
ATOM     10  C   UNL     1       9.576  -1.759  22.492  0.00  0.00    +0.068 C 
ATOM     11  O   UNL     1      10.677  -2.301  22.799  0.00  0.00    -0.545 OA
ATOM     12  O   UNL     1       8.522  -2.275  22.029  0.00  0.00    -0.545 OA
ENDBRANCH   5  10
BRANCH   2  13
ATOM     13  O   UNL     1      10.764   3.228  22.698  0.00  0.00    -0.387 OA
ATOM     14  H   UNL     1      11.289   2.470  22.400  0.00  0.00    +0.210 HD
ENDBRANCH   2  13
BRANCH   3  15
ATOM     15  O   UNL     1       7.356   2.207  22.009  0.00  0.00    -0.389 OA
ATOM     16  H   UNL     1       7.000   2.231  21.107  0.00  0.00    +0.210 HD
ENDBRANCH   3  15
TORSDOF 4
ENDMDL
MODEL 6
REMARK VINA RESULT:      -4.5      5.556      6.850
REMARK  Name = 
REMARK  4 active torsions:
REMARK  status: ('A' for Active; 'I' for Inactive)
REMARK    1  A    between atoms: N_1  and  C_2
REMARK    2  A    between atoms: C_5  and  C_13
REMARK    3  A    between atoms: C_7  and  O_9
REMARK    4  A    between atoms: C_10  and  O_12
REMARK                            x       y       z     vdW  Elec       q    Type
REMARK                         _______ _______ _______ _____ _____    ______ ____
ROOT
ATOM      1  C   UNL     1       7.469   1.185  23.643  0.00  0.00    +0.106 C 
ATOM      2  C   UNL     1       8.514   2.337  23.534  0.00  0.00    +0.164 C 
ATOM      3  C   UNL     1       9.872   1.958  22.909  0.00  0.00    +0.149 C 
ATOM      4  C   UNL     1      10.413   0.568  23.290  0.00  0.00    +0.070 C 
ATOM      5  C   UNL     1       9.362  -0.474  23.540  0.00  0.00    -0.025 C 
ATOM      6  C   UNL     1       8.061  -0.185  23.706  0.00  0.00    -0.001 C 
ENDROOT
BRANCH   1   7
ATOM      7  N   UNL     1       6.489   1.191  22.544  0.00  0.00    -0.322 NA
ATOM      8  H   UNL     1       5.602   1.528  22.915  0.00  0.00    +0.119 HD
ATOM      9  H   UNL     1       6.784   1.901  21.872  0.00  0.00    +0.119 HD
ENDBRANCH   1   7
BRANCH   5  10
ATOM     10  C   UNL     1       9.839  -1.951  23.616  0.00  0.00    +0.068 C 
ATOM     11  O   UNL     1       9.365  -2.627  24.573  0.00  0.00    -0.545 OA
ATOM     12  O   UNL     1      10.640  -2.293  22.703  0.00  0.00    -0.545 OA
ENDBRANCH   5  10
BRANCH   2  13
ATOM     13  O   UNL     1       8.737   2.908  24.844  0.00  0.00    -0.387 OA
ATOM     14  H   UNL     1       9.560   2.510  25.168  0.00  0.00    +0.210 HD
ENDBRANCH   2  13
BRANCH   3  15
ATOM     15  O   UNL     1       9.807   2.090  21.479  0.00  0.00    -0.389 OA
ATOM     16  H   UNL     1       9.041   1.565  21.197  0.00  0.00    +0.210 HD
ENDBRANCH   3  15
TORSDOF 4
ENDMDL
MODEL 7
REMARK VINA RESULT:      -4.5      5.116      6.098
REMARK  Name = 
REMARK  4 active torsions:
REMARK  status: ('A' for Active; 'I' for Inactive)
REMARK    1  A    between atoms: N_1  and  C_2
REMARK    2  A    between atoms: C_5  and  C_13
REMARK    3  A    between atoms: C_7  and  O_9
REMARK    4  A    between atoms: C_10  and  O_12
REMARK                            x       y       z     vdW  Elec       q    Type
REMARK                         _______ _______ _______ _____ _____    ______ ____
ROOT
ATOM      1  C   UNL     1       9.295  -0.267  21.756  0.00  0.00    +0.106 C 
ATOM      2  C   UNL     1      10.073   0.989  22.255  0.00  0.00    +0.164 C 
ATOM      3  C   UNL     1       9.929   1.317  23.756  0.00  0.00    +0.149 C 
ATOM      4  C   UNL     1       8.529   1.089  24.354  0.00  0.00    +0.070 C 
ATOM      5  C   UNL     1       7.751  -0.034  23.732  0.00  0.00    -0.025 C 
ATOM      6  C   UNL     1       8.096  -0.619  22.573  0.00  0.00    -0.001 C 
ENDROOT
BRANCH   1   7
ATOM      7  N   UNL     1      10.138  -1.469  21.670  0.00  0.00    -0.322 NA
ATOM      8  H   UNL     1       9.986  -2.023  22.511  0.00  0.00    +0.119 HD
ATOM      9  H   UNL     1       9.780  -2.043  20.904  0.00  0.00    +0.119 HD
ENDBRANCH   1   7
BRANCH   5  10
ATOM     10  C   UNL     1       6.481  -0.513  24.490  0.00  0.00    +0.068 C 
ATOM     11  O   UNL     1       5.540   0.329  24.561  0.00  0.00    -0.545 OA
ATOM     12  O   UNL     1       6.547  -1.692  24.936  0.00  0.00    -0.545 OA
ENDBRANCH   5  10
BRANCH   2  13
ATOM     13  O   UNL     1       9.676   2.141  21.477  0.00  0.00    -0.387 OA
ATOM     14  H   UNL     1      10.262   2.862  21.758  0.00  0.00    +0.210 HD
ENDBRANCH   2  13
BRANCH   3  15
ATOM     15  O   UNL     1      10.916   0.596  24.512  0.00  0.00    -0.389 OA
ATOM     16  H   UNL     1      11.773   0.976  24.264  0.00  0.00    +0.210 HD
ENDBRANCH   3  15
TORSDOF 4
ENDMDL
MODEL 8
REMARK VINA RESULT:      -4.5      5.419      6.520
REMARK  Name = 
REMARK  4 active torsions:
REMARK  status: ('A' for Active; 'I' for Inactive)
REMARK    1  A    between atoms: N_1  and  C_2
REMARK    2  A    between atoms: C_5  and  C_13
REMARK    3  A    between atoms: C_7  and  O_9
REMARK    4  A    between atoms: C_10  and  O_12
REMARK                            x       y       z     vdW  Elec       q    Type
REMARK                         _______ _______ _______ _____ _____    ______ ____
ROOT
ATOM      1  C   UNL     1       8.796   1.375  21.817  0.00  0.00    +0.106 C 
ATOM      2  C   UNL     1       7.760   1.882  22.867  0.00  0.00    +0.164 C 
ATOM      3  C   UNL     1       7.921   1.325  24.296  0.00  0.00    +0.149 C 
ATOM      4  C   UNL     1       8.327  -0.157  24.388  0.00  0.00    +0.070 C 
ATOM      5  C   UNL     1       9.199  -0.645  23.267  0.00  0.00    -0.025 C 
ATOM      6  C   UNL     1       9.389   0.040  22.128  0.00  0.00    -0.001 C 
ENDROOT
BRANCH   1   7
ATOM      7  N   UNL     1       9.909   2.313  21.607  0.00  0.00    -0.322 NA
ATOM      8  H   UNL     1      10.565   1.884  20.957  0.00  0.00    +0.119 HD
ATOM      9  H   UNL     1       9.538   3.127  21.113  0.00  0.00    +0.119 HD
ENDBRANCH   1   7
BRANCH   5  10
ATOM     10  C   UNL     1       9.894  -2.021  23.464  0.00  0.00    +0.068 C 
ATOM     11  O   UNL     1       9.485  -2.701  24.449  0.00  0.00    -0.545 OA
ATOM     12  O   UNL     1      10.780  -2.292  22.607  0.00  0.00    -0.545 OA
ENDBRANCH   5  10
BRANCH   2  13
ATOM     13  O   UNL     1       6.422   1.603  22.396  0.00  0.00    -0.387 OA
ATOM     14  H   UNL     1       6.525   0.962  21.676  0.00  0.00    +0.210 HD
ENDBRANCH   2  13
BRANCH   3  15
ATOM     15  O   UNL     1       8.843   2.139  25.039  0.00  0.00    -0.389 OA
ATOM     16  H   UNL     1       8.494   2.179  25.944  0.00  0.00    +0.210 HD
ENDBRANCH   3  15
TORSDOF 4
ENDMDL
MODEL 9
REMARK VINA RESULT:      -4.5      1.837      2.659
REMARK  Name = 
REMARK  4 active torsions:
REMARK  status: ('A' for Active; 'I' for Inactive)
REMARK    1  A    between atoms: N_1  and  C_2
REMARK    2  A    between atoms: C_5  and  C_13
REMARK    3  A    between atoms: C_7  and  O_9
REMARK    4  A    between atoms: C_10  and  O_12
REMARK                            x       y       z     vdW  Elec       q    Type
REMARK                         _______ _______ _______ _____ _____    ______ ____
ROOT
ATOM      1  C   UNL     1       7.869  -5.262  25.968  0.00  0.00    +0.106 C 
ATOM      2  C   UNL     1       9.143  -4.590  25.369  0.00  0.00    +0.164 C 
ATOM      3  C   UNL     1       8.896  -3.555  24.251  0.00  0.00    +0.149 C 
ATOM      4  C   UNL     1       7.769  -3.903  23.262  0.00  0.00    +0.070 C 
ATOM      5  C   UNL     1       6.633  -4.691  23.849  0.00  0.00    -0.025 C 
ATOM      6  C   UNL     1       6.695  -5.297  25.045  0.00  0.00    -0.001 C 
ENDROOT
BRANCH   1   7
ATOM      7  N   UNL     1       7.424  -4.636  27.223  0.00  0.00    -0.322 NA
ATOM      8  H   UNL     1       7.916  -5.087  27.992  0.00  0.00    +0.119 HD
ATOM      9  H   UNL     1       7.758  -3.671  27.222  0.00  0.00    +0.119 HD
ENDBRANCH   1   7
BRANCH   5  10
ATOM     10  C   UNL     1       5.338  -4.797  22.997  0.00  0.00    +0.068 C 
ATOM     11  O   UNL     1       5.086  -3.800  22.262  0.00  0.00    -0.545 OA
ATOM     12  O   UNL     1       4.699  -5.876  23.142  0.00  0.00    -0.545 OA
ENDBRANCH   5  10
BRANCH   2  13
ATOM     13  O   UNL     1      10.041  -5.612  24.880  0.00  0.00    -0.387 OA
ATOM     14  H   UNL     1      10.890  -5.448  25.319  0.00  0.00    +0.210 HD
ENDBRANCH   2  13
BRANCH   3  15
ATOM     15  O   UNL     1       8.669  -2.258  24.826  0.00  0.00    -0.389 OA
ATOM     16  H   UNL     1       7.706  -2.162  24.898  0.00  0.00    +0.210 HD
ENDBRANCH   3  15
TORSDOF 4
ENDMDL
