MODEL 1
REMARK VINA RESULT:      -8.1      0.000      0.000
REMARK  Name = 
REMARK  5 active torsions:
REMARK  status: ('A' for Active; 'I' for Inactive)
REMARK    1  A    between atoms: C_5  and  C_6
REMARK    2  A    between atoms: C_6  and  C_7
REMARK    3  A    between atoms: N_12  and  C_13
REMARK    4  A    between atoms: C_17  and  O_18
REMARK    5  A    between atoms: O_18  and  C_19
REMARK                            x       y       z     vdW  Elec       q    Type
REMARK                         _______ _______ _______ _____ _____    ______ ____
ROOT
ATOM      1  C   UNL     1       7.781   1.550  23.028  0.00  0.00    +0.038 A 
ATOM      2  C   UNL     1       8.191   1.901  24.321  0.00  0.00    +0.027 A 
ATOM      3  C   UNL     1       8.295   3.244  24.703  0.00  0.00    +0.051 A 
ATOM      4  C   UNL     1       8.082   4.255  23.766  0.00  0.00    +0.164 A 
ATOM      5  C   UNL     1       7.607   3.898  22.501  0.00  0.00    +0.167 A 
ATOM      6  F   UNL     1       7.313   4.852  21.605  0.00  0.00    -0.202 F 
ATOM      7  C   UNL     1       7.447   2.561  22.129  0.00  0.00    +0.065 A 
ENDROOT
BRANCH   1  12
ATOM      8  C   UNL     1       7.431  -2.617  22.705  0.00  0.00    +0.225 C 
ATOM      9  N   UNL     1       8.526  -1.954  22.185  0.00  0.00    -0.240 N 
ATOM     10  H   UNL     1       9.325  -2.486  21.870  0.00  0.00    +0.159 HD
ATOM     11  C   UNL     1       8.798  -0.601  22.250  0.00  0.00    +0.310 C 
ATOM     12  N   UNL     1       7.772   0.179  22.713  0.00  0.00    -0.269 N 
ATOM     13  H   UNL     1       6.887  -0.313  22.836  0.00  0.00    +0.156 HD
ATOM     14  O   UNL     1       9.916  -0.216  21.916  0.00  0.00    -0.252 OA
ATOM     15  O   UNL     1       6.396  -2.042  23.050  0.00  0.00    -0.275 OA
BRANCH   8  16
ATOM     16  C   UNL     1       7.578  -4.126  22.785  0.00  0.00    +0.131 C 
BRANCH  16  21
ATOM     17  F   UNL     1       7.103  -5.934  28.111  0.00  0.00    -0.205 F 
ATOM     18  C   UNL     1       7.227  -5.544  26.836  0.00  0.00    +0.123 A 
ATOM     19  C   UNL     1       6.162  -5.712  25.961  0.00  0.00    +0.038 A 
ATOM     20  C   UNL     1       6.282  -5.277  24.638  0.00  0.00    +0.007 A 
ATOM     21  C   UNL     1       7.472  -4.681  24.186  0.00  0.00    -0.038 A 
ATOM     22  C   UNL     1       8.538  -4.530  25.087  0.00  0.00    +0.007 A 
ATOM     23  C   UNL     1       8.414  -4.963  26.408  0.00  0.00    +0.038 A 
ENDBRANCH  16  21
ENDBRANCH   8  16
ENDBRANCH   1  12
BRANCH   4  24
ATOM     24  O   UNL     1       8.250   5.599  24.005  0.00  0.00    -0.452 OA
BRANCH  24  25
ATOM     25  C   UNL     1       9.333   6.071  24.715  0.00  0.00    +0.141 A 
ATOM     26  C   UNL     1      10.616   5.929  24.148  0.00  0.00    +0.061 A 
ATOM     27  C   UNL     1      11.157   5.326  22.976  0.00  0.00    +0.032 A 
ATOM     28  C   UNL     1      12.527   5.499  23.004  0.00  0.00    +0.085 A 
ATOM     29  N   UNL     1      12.832   6.223  24.128  0.00  0.00    -0.346 N 
ATOM     30  H   UNL     1      13.751   6.515  24.426  0.00  0.00    +0.167 HD
ATOM     31  C   UNL     1      11.695   6.457  24.851  0.00  0.00    +0.142 A 
ATOM     32  N   UNL     1      11.671   7.084  26.040  0.00  0.00    -0.237 NA
ATOM     33  C   UNL     1      10.438   7.108  26.589  0.00  0.00    +0.117 A 
ATOM     34  C   UNL     1       9.281   6.607  26.008  0.00  0.00    +0.066 A 
ENDBRANCH  24  25
ENDBRANCH   4  24
TORSDOF 5
ENDMDL
MODEL 2
REMARK VINA RESULT:      -8.1      2.767      4.071
REMARK  Name = 
REMARK  5 active torsions:
REMARK  status: ('A' for Active; 'I' for Inactive)
REMARK    1  A    between atoms: C_5  and  C_6
REMARK    2  A    between atoms: C_6  and  C_7
REMARK    3  A    between atoms: N_12  and  C_13
REMARK    4  A    between atoms: C_17  and  O_18
REMARK    5  A    between atoms: O_18  and  C_19
REMARK                            x       y       z     vdW  Elec       q    Type
REMARK                         _______ _______ _______ _____ _____    ______ ____
ROOT
ATOM      1  C   UNL     1       8.660  -2.104  23.025  0.00  0.00    +0.038 A 
ATOM      2  C   UNL     1       8.980  -1.341  21.894  0.00  0.00    +0.027 A 
ATOM      3  C   UNL     1       9.741  -0.172  22.007  0.00  0.00    +0.051 A 
ATOM      4  C   UNL     1      10.111   0.301  23.267  0.00  0.00    +0.164 A 
ATOM      5  C   UNL     1       9.846  -0.500  24.381  0.00  0.00    +0.167 A 
ATOM      6  F   UNL     1      10.263  -0.112  25.596  0.00  0.00    -0.202 F 
ATOM      7  C   UNL     1       9.135  -1.697  24.269  0.00  0.00    +0.065 A 
ENDROOT
BRANCH   1  12
ATOM      8  C   UNL     1       5.667  -5.001  22.532  0.00  0.00    +0.225 C 
ATOM      9  N   UNL     1       6.882  -5.326  23.104  0.00  0.00    -0.240 N 
ATOM     10  H   UNL     1       6.994  -6.223  23.555  0.00  0.00    +0.159 HD
ATOM     11  C   UNL     1       7.940  -4.477  23.367  0.00  0.00    +0.310 C 
ATOM     12  N   UNL     1       7.834  -3.225  22.823  0.00  0.00    -0.269 N 
ATOM     13  H   UNL     1       7.048  -3.105  22.184  0.00  0.00    +0.156 HD
ATOM     14  O   UNL     1       8.860  -4.894  24.067  0.00  0.00    -0.252 OA
ATOM     15  O   UNL     1       5.473  -3.954  21.910  0.00  0.00    -0.275 OA
BRANCH   8  16
ATOM     16  C   UNL     1       4.585  -6.055  22.691  0.00  0.00    +0.131 C 
BRANCH  16  21
ATOM     17  F   UNL     1       2.250  -5.823  27.825  0.00  0.00    -0.205 F 
ATOM     18  C   UNL     1       2.771  -5.900  26.594  0.00  0.00    +0.123 A 
ATOM     19  C   UNL     1       2.386  -4.982  25.627  0.00  0.00    +0.038 A 
ATOM     20  C   UNL     1       2.953  -5.045  24.351  0.00  0.00    +0.007 A 
ATOM     21  C   UNL     1       3.901  -6.035  24.037  0.00  0.00    -0.038 A 
ATOM     22  C   UNL     1       4.267  -6.959  25.029  0.00  0.00    +0.007 A 
ATOM     23  C   UNL     1       3.701  -6.891  26.303  0.00  0.00    +0.038 A 
ENDBRANCH  16  21
ENDBRANCH   8  16
ENDBRANCH   1  12
BRANCH   4  24
ATOM     24  O   UNL     1      10.772   1.484  23.501  0.00  0.00    -0.452 OA
BRANCH  24  25
ATOM     25  C   UNL     1      10.088   2.640  23.810  0.00  0.00    +0.141 A 
ATOM     26  C   UNL     1      10.756   3.873  23.652  0.00  0.00    +0.061 A 
ATOM     27  C   UNL     1      12.071   4.287  23.292  0.00  0.00    +0.032 A 
ATOM     28  C   UNL     1      12.112   5.666  23.352  0.00  0.00    +0.085 A 
ATOM     29  N   UNL     1      10.859   6.105  23.694  0.00  0.00    -0.346 N 
ATOM     30  H   UNL     1      10.569   7.064  23.814  0.00  0.00    +0.167 HD
ATOM     31  C   UNL     1      10.038   5.035  23.917  0.00  0.00    +0.142 A 
ATOM     32  N   UNL     1       8.763   5.135  24.334  0.00  0.00    -0.237 NA
ATOM     33  C   UNL     1       8.199   3.931  24.567  0.00  0.00    +0.117 A 
ATOM     34  C   UNL     1       8.802   2.697  24.360  0.00  0.00    +0.066 A 
ENDBRANCH  24  25
ENDBRANCH   4  24
TORSDOF 5
ENDMDL
MODEL 3
REMARK VINA RESULT:      -8.0      2.952     10.130
REMARK  Name = 
REMARK  5 active torsions:
REMARK  status: ('A' for Active; 'I' for Inactive)
REMARK    1  A    between atoms: C_5  and  C_6
REMARK    2  A    between atoms: C_6  and  C_7
REMARK    3  A    between atoms: N_12  and  C_13
REMARK    4  A    between atoms: C_17  and  O_18
REMARK    5  A    between atoms: O_18  and  C_19
REMARK                            x       y       z     vdW  Elec       q    Type
REMARK                         _______ _______ _______ _____ _____    ______ ____
ROOT
ATOM      1  C   UNL     1       9.183  -1.261  22.975  0.00  0.00    +0.038 A 
ATOM      2  C   UNL     1       9.807  -2.166  23.844  0.00  0.00    +0.027 A 
ATOM      3  C   UNL     1       9.257  -3.431  24.082  0.00  0.00    +0.051 A 
ATOM      4  C   UNL     1       8.024  -3.772  23.526  0.00  0.00    +0.164 A 
ATOM      5  C   UNL     1       7.444  -2.892  22.608  0.00  0.00    +0.167 A 
ATOM      6  F   UNL     1       6.300  -3.229  21.992  0.00  0.00    -0.202 F 
ATOM      7  C   UNL     1       8.015  -1.650  22.322  0.00  0.00    +0.065 A 
ENDROOT
BRANCH   1  12
ATOM      8  C   UNL     1      10.795   2.598  23.287  0.00  0.00    +0.225 C 
ATOM      9  N   UNL     1      10.157   2.187  22.133  0.00  0.00    -0.240 N 
ATOM     10  H   UNL     1       9.932   2.867  21.421  0.00  0.00    +0.159 HD
ATOM     11  C   UNL     1       9.545   0.970  21.899  0.00  0.00    +0.310 C 
ATOM     12  N   UNL     1       9.771   0.011  22.851  0.00  0.00    -0.269 N 
ATOM     13  H   UNL     1      10.463   0.265  23.554  0.00  0.00    +0.156 HD
ATOM     14  O   UNL     1       8.850   0.853  20.893  0.00  0.00    -0.252 OA
ATOM     15  O   UNL     1      11.159   1.819  24.171  0.00  0.00    -0.275 OA
BRANCH   8  16
ATOM     16  C   UNL     1      11.056   4.092  23.374  0.00  0.00    +0.131 C 
BRANCH  16  21
ATOM     17  F   UNL     1       6.539   7.030  25.053  0.00  0.00    -0.205 F 
ATOM     18  C   UNL     1       7.628   6.341  24.691  0.00  0.00    +0.123 A 
ATOM     19  C   UNL     1       7.752   5.009  25.062  0.00  0.00    +0.038 A 
ATOM     20  C   UNL     1       8.876   4.283  24.658  0.00  0.00    +0.007 A 
ATOM     21  C   UNL     1       9.884   4.892  23.891  0.00  0.00    -0.038 A 
ATOM     22  C   UNL     1       9.741   6.243  23.536  0.00  0.00    +0.007 A 
ATOM     23  C   UNL     1       8.615   6.964  23.938  0.00  0.00    +0.038 A 
ENDBRANCH  16  21
ENDBRANCH   8  16
ENDBRANCH   1  12
BRANCH   4  24
ATOM     24  O   UNL     1       7.348  -4.944  23.769  0.00  0.00    -0.452 OA
BRANCH  24  25
ATOM     25  C   UNL     1       6.933  -5.284  25.039  0.00  0.00    +0.141 A 
ATOM     26  C   UNL     1       5.748  -6.038  25.175  0.00  0.00    +0.061 A 
ATOM     27  C   UNL     1       4.743  -6.534  24.295  0.00  0.00    +0.032 A 
ATOM     28  C   UNL     1       3.797  -7.187  25.058  0.00  0.00    +0.085 A 
ATOM     29  N   UNL     1       4.212  -7.142  26.364  0.00  0.00    -0.346 N 
ATOM     30  H   UNL     1       3.736  -7.537  27.162  0.00  0.00    +0.167 HD
ATOM     31  C   UNL     1       5.369  -6.419  26.458  0.00  0.00    +0.142 A 
ATOM     32  N   UNL     1       5.992  -6.137  27.615  0.00  0.00    -0.237 NA
ATOM     33  C   UNL     1       7.062  -5.331  27.445  0.00  0.00    +0.117 A 
ATOM     34  C   UNL     1       7.542  -4.865  26.228  0.00  0.00    +0.066 A 
ENDBRANCH  24  25
ENDBRANCH   4  24
TORSDOF 5
ENDMDL
MODEL 4
REMARK VINA RESULT:      -7.9      2.984     10.244
REMARK  Name = 
REMARK  5 active torsions:
REMARK  status: ('A' for Active; 'I' for Inactive)
REMARK    1  A    between atoms: C_5  and  C_6
REMARK    2  A    between atoms: C_6  and  C_7
REMARK    3  A    between atoms: N_12  and  C_13
REMARK    4  A    between atoms: C_17  and  O_18
REMARK    5  A    between atoms: O_18  and  C_19
REMARK                            x       y       z     vdW  Elec       q    Type
REMARK                         _______ _______ _______ _____ _____    ______ ____
ROOT
ATOM      1  C   UNL     1       8.736  -0.850  23.419  0.00  0.00    +0.038 A 
ATOM      2  C   UNL     1       9.678  -1.717  23.987  0.00  0.00    +0.027 A 
ATOM      3  C   UNL     1       9.401  -3.080  24.142  0.00  0.00    +0.051 A 
ATOM      4  C   UNL     1       8.138  -3.576  23.818  0.00  0.00    +0.164 A 
ATOM      5  C   UNL     1       7.230  -2.720  23.189  0.00  0.00    +0.167 A 
ATOM      6  F   UNL     1       6.038  -3.189  22.788  0.00  0.00    -0.202 F 
ATOM      7  C   UNL     1       7.520  -1.370  22.980  0.00  0.00    +0.065 A 
ENDROOT
BRANCH   1  12
ATOM      8  C   UNL     1       9.263   3.297  23.762  0.00  0.00    +0.225 C 
ATOM      9  N   UNL     1       9.405   2.662  22.543  0.00  0.00    -0.240 N 
ATOM     10  H   UNL     1       9.475   3.214  21.700  0.00  0.00    +0.159 HD
ATOM     11  C   UNL     1       9.224   1.319  22.269  0.00  0.00    +0.310 C 
ATOM     12  N   UNL     1       9.076   0.514  23.367  0.00  0.00    -0.269 N 
ATOM     13  H   UNL     1       9.242   0.978  24.259  0.00  0.00    +0.156 HD
ATOM     14  O   UNL     1       9.190   0.965  21.093  0.00  0.00    -0.252 OA
ATOM     15  O   UNL     1       9.235   2.694  24.837  0.00  0.00    -0.275 OA
BRANCH   8  16
ATOM     16  C   UNL     1       9.182   4.811  23.685  0.00  0.00    +0.131 C 
BRANCH  16  21
ATOM     17  F   UNL     1       4.168   6.955  22.228  0.00  0.00    -0.205 F 
ATOM     18  C   UNL     1       5.355   6.420  22.542  0.00  0.00    +0.123 A 
ATOM     19  C   UNL     1       6.504   6.883  21.915  0.00  0.00    +0.038 A 
ATOM     20  C   UNL     1       7.745   6.345  22.264  0.00  0.00    +0.007 A 
ATOM     21  C   UNL     1       7.838   5.334  23.236  0.00  0.00    -0.038 A 
ATOM     22  C   UNL     1       6.661   4.875  23.850  0.00  0.00    +0.007 A 
ATOM     23  C   UNL     1       5.424   5.417  23.500  0.00  0.00    +0.038 A 
ENDBRANCH  16  21
ENDBRANCH   8  16
ENDBRANCH   1  12
BRANCH   4  24
ATOM     24  O   UNL     1       7.726  -4.873  24.019  0.00  0.00    -0.452 OA
BRANCH  24  25
ATOM     25  C   UNL     1       7.157  -5.269  25.210  0.00  0.00    +0.141 A 
ATOM     26  C   UNL     1       5.937  -5.977  25.165  0.00  0.00    +0.061 A 
ATOM     27  C   UNL     1       5.021  -6.374  24.148  0.00  0.00    +0.032 A 
ATOM     28  C   UNL     1       3.970  -7.029  24.759  0.00  0.00    +0.085 A 
ATOM     29  N   UNL     1       4.236  -7.081  26.102  0.00  0.00    -0.346 N 
ATOM     30  H   UNL     1       3.657  -7.501  26.815  0.00  0.00    +0.167 HD
ATOM     31  C   UNL     1       5.400  -6.416  26.371  0.00  0.00    +0.142 A 
ATOM     32  N   UNL     1       5.898  -6.231  27.606  0.00  0.00    -0.237 NA
ATOM     33  C   UNL     1       7.009  -5.466  27.608  0.00  0.00    +0.117 A 
ATOM     34  C   UNL     1       7.642  -4.950  26.484  0.00  0.00    +0.066 A 
ENDBRANCH  24  25
ENDBRANCH   4  24
TORSDOF 5
ENDMDL
MODEL 5
REMARK VINA RESULT:      -7.8      2.989     10.297
REMARK  Name = 
REMARK  5 active torsions:
REMARK  status: ('A' for Active; 'I' for Inactive)
REMARK    1  A    between atoms: C_5  and  C_6
REMARK    2  A    between atoms: C_6  and  C_7
REMARK    3  A    between atoms: N_12  and  C_13
REMARK    4  A    between atoms: C_17  and  O_18
REMARK    5  A    between atoms: O_18  and  C_19
REMARK                            x       y       z     vdW  Elec       q    Type
REMARK                         _______ _______ _______ _____ _____    ______ ____
ROOT
ATOM      1  C   UNL     1       7.737   0.089  23.958  0.00  0.00    +0.038 A 
ATOM      2  C   UNL     1       6.550  -0.656  23.963  0.00  0.00    +0.027 A 
ATOM      3  C   UNL     1       6.578  -2.054  24.017  0.00  0.00    +0.051 A 
ATOM      4  C   UNL     1       7.798  -2.730  23.968  0.00  0.00    +0.164 A 
ATOM      5  C   UNL     1       8.976  -1.979  24.032  0.00  0.00    +0.167 A 
ATOM      6  F   UNL     1      10.163  -2.604  24.072  0.00  0.00    -0.202 F 
ATOM      7  C   UNL     1       8.955  -0.583  24.036  0.00  0.00    +0.065 A 
ENDROOT
BRANCH   1  12
ATOM      8  C   UNL     1       7.900   4.199  23.137  0.00  0.00    +0.225 C 
ATOM      9  N   UNL     1       7.551   3.739  24.393  0.00  0.00    -0.240 N 
ATOM     10  H   UNL     1       7.493   4.392  25.162  0.00  0.00    +0.159 HD
ATOM     11  C   UNL     1       7.495   2.427  24.821  0.00  0.00    +0.310 C 
ATOM     12  N   UNL     1       7.612   1.485  23.833  0.00  0.00    -0.269 N 
ATOM     13  H   UNL     1       7.601   1.860  22.886  0.00  0.00    +0.156 HD
ATOM     14  O   UNL     1       7.367   2.212  26.024  0.00  0.00    -0.252 OA
ATOM     15  O   UNL     1       7.929   3.476  22.138  0.00  0.00    -0.275 OA
BRANCH   8  16
ATOM     16  C   UNL     1       8.210   5.684  23.065  0.00  0.00    +0.131 C 
BRANCH  16  21
ATOM     17  F   UNL     1      12.850   6.957  26.018  0.00  0.00    -0.205 F 
ATOM     18  C   UNL     1      11.755   6.689  25.294  0.00  0.00    +0.123 A 
ATOM     19  C   UNL     1      11.876   5.983  24.105  0.00  0.00    +0.038 A 
ATOM     20  C   UNL     1      10.730   5.678  23.365  0.00  0.00    +0.007 A 
ATOM     21  C   UNL     1       9.461   6.087  23.810  0.00  0.00    -0.038 A 
ATOM     22  C   UNL     1       9.365   6.808  25.012  0.00  0.00    +0.007 A 
ATOM     23  C   UNL     1      10.512   7.108  25.749  0.00  0.00    +0.038 A 
ENDBRANCH  16  21
ENDBRANCH   8  16
ENDBRANCH   1  12
BRANCH   4  24
ATOM     24  O   UNL     1       7.940  -4.097  23.917  0.00  0.00    -0.452 OA
BRANCH  24  25
ATOM     25  C   UNL     1       6.905  -4.939  24.263  0.00  0.00    +0.141 A 
ATOM     26  C   UNL     1       6.750  -5.284  25.622  0.00  0.00    +0.061 A 
ATOM     27  C   UNL     1       7.464  -5.032  26.830  0.00  0.00    +0.032 A 
ATOM     28  C   UNL     1       6.809  -5.689  27.852  0.00  0.00    +0.085 A 
ATOM     29  N   UNL     1       5.701  -6.294  27.317  0.00  0.00    -0.346 N 
ATOM     30  H   UNL     1       5.017  -6.847  27.812  0.00  0.00    +0.167 HD
ATOM     31  C   UNL     1       5.671  -6.092  25.964  0.00  0.00    +0.142 A 
ATOM     32  N   UNL     1       4.745  -6.616  25.143  0.00  0.00    -0.237 NA
ATOM     33  C   UNL     1       4.991  -6.342  23.844  0.00  0.00    +0.117 A 
ATOM     34  C   UNL     1       6.035  -5.565  23.361  0.00  0.00    +0.066 A 
ENDBRANCH  24  25
ENDBRANCH   4  24
TORSDOF 5
ENDMDL
MODEL 6
REMARK VINA RESULT:      -7.7      2.935     10.367
REMARK  Name = 
REMARK  5 active torsions:
REMARK  status: ('A' for Active; 'I' for Inactive)
REMARK    1  A    between atoms: C_5  and  C_6
REMARK    2  A    between atoms: C_6  and  C_7
REMARK    3  A    between atoms: N_12  and  C_13
REMARK    4  A    between atoms: C_17  and  O_18
REMARK    5  A    between atoms: O_18  and  C_19
REMARK                            x       y       z     vdW  Elec       q    Type
REMARK                         _______ _______ _______ _____ _____    ______ ____
ROOT
ATOM      1  C   UNL     1       8.998  -2.631  24.990  0.00  0.00    +0.038 A 
ATOM      2  C   UNL     1       7.812  -2.446  25.712  0.00  0.00    +0.027 A 
ATOM      3  C   UNL     1       7.126  -3.536  26.260  0.00  0.00    +0.051 A 
ATOM      4  C   UNL     1       7.568  -4.836  26.010  0.00  0.00    +0.164 A 
ATOM      5  C   UNL     1       8.787  -5.007  25.348  0.00  0.00    +0.167 A 
ATOM      6  F   UNL     1       9.280  -6.242  25.167  0.00  0.00    -0.202 F 
ATOM      7  C   UNL     1       9.507  -3.920  24.847  0.00  0.00    +0.065 A 
ENDROOT
BRANCH   1  12
ATOM      8  C   UNL     1      10.382   1.138  23.776  0.00  0.00    +0.225 C 
ATOM      9  N   UNL     1      10.155   0.134  22.854  0.00  0.00    -0.240 N 
ATOM     10  H   UNL     1      10.165   0.355  21.868  0.00  0.00    +0.159 HD
ATOM     11  C   UNL     1       9.665  -1.135  23.097  0.00  0.00    +0.310 C 
ATOM     12  N   UNL     1       9.581  -1.485  24.418  0.00  0.00    -0.269 N 
ATOM     13  H   UNL     1      10.007  -0.819  25.061  0.00  0.00    +0.156 HD
ATOM     14  O   UNL     1       9.332  -1.823  22.135  0.00  0.00    -0.252 OA
ATOM     15  O   UNL     1      10.449   0.935  24.991  0.00  0.00    -0.275 OA
BRANCH   8  16
ATOM     16  C   UNL     1      10.586   2.519  23.178  0.00  0.00    +0.131 C 
BRANCH  16  21
ATOM     17  F   UNL     1       6.087   5.927  23.061  0.00  0.00    -0.205 F 
ATOM     18  C   UNL     1       7.137   5.097  23.119  0.00  0.00    +0.123 A 
ATOM     19  C   UNL     1       7.102   3.897  22.423  0.00  0.00    +0.038 A 
ATOM     20  C   UNL     1       8.209   3.045  22.461  0.00  0.00    +0.007 A 
ATOM     21  C   UNL     1       9.351   3.389  23.205  0.00  0.00    -0.038 A 
ATOM     22  C   UNL     1       9.359   4.604  23.909  0.00  0.00    +0.007 A 
ATOM     23  C   UNL     1       8.252   5.453  23.866  0.00  0.00    +0.038 A 
ENDBRANCH  16  21
ENDBRANCH   8  16
ENDBRANCH   1  12
BRANCH   4  24
ATOM     24  O   UNL     1       6.920  -5.979  26.416  0.00  0.00    -0.452 OA
BRANCH  24  25
ATOM     25  C   UNL     1       5.603  -6.215  26.084  0.00  0.00    +0.141 A 
ATOM     26  C   UNL     1       5.231  -6.128  24.726  0.00  0.00    +0.061 A 
ATOM     27  C   UNL     1       5.879  -5.773  23.507  0.00  0.00    +0.032 A 
ATOM     28  C   UNL     1       4.946  -5.855  22.493  0.00  0.00    +0.085 A 
ATOM     29  N   UNL     1       3.768  -6.286  23.045  0.00  0.00    -0.346 N 
ATOM     30  H   UNL     1       2.898  -6.448  22.558  0.00  0.00    +0.167 HD
ATOM     31  C   UNL     1       3.911  -6.419  24.398  0.00  0.00    +0.142 A 
ATOM     32  N   UNL     1       2.914  -6.761  25.233  0.00  0.00    -0.237 NA
ATOM     33  C   UNL     1       3.292  -6.734  26.529  0.00  0.00    +0.117 A 
ATOM     34  C   UNL     1       4.568  -6.447  26.997  0.00  0.00    +0.066 A 
ENDBRANCH  24  25
ENDBRANCH   4  24
TORSDOF 5
ENDMDL
MODEL 7
REMARK VINA RESULT:      -7.7      3.237     10.588
REMARK  Name = 
REMARK  5 active torsions:
REMARK  status: ('A' for Active; 'I' for Inactive)
REMARK    1  A    between atoms: C_5  and  C_6
REMARK    2  A    between atoms: C_6  and  C_7
REMARK    3  A    between atoms: N_12  and  C_13
REMARK    4  A    between atoms: C_17  and  O_18
REMARK    5  A    between atoms: O_18  and  C_19
REMARK                            x       y       z     vdW  Elec       q    Type
REMARK                         _______ _______ _______ _____ _____    ______ ____
ROOT
ATOM      1  C   UNL     1       8.275  -2.843  23.670  0.00  0.00    +0.038 A 
ATOM      2  C   UNL     1       8.258  -3.712  24.769  0.00  0.00    +0.027 A 
ATOM      3  C   UNL     1       7.505  -4.891  24.743  0.00  0.00    +0.051 A 
ATOM      4  C   UNL     1       6.682  -5.170  23.651  0.00  0.00    +0.164 A 
ATOM      5  C   UNL     1       6.758  -4.335  22.532  0.00  0.00    +0.167 A 
ATOM      6  F   UNL     1       6.042  -4.623  21.435  0.00  0.00    -0.202 F 
ATOM      7  C   UNL     1       7.550  -3.185  22.530  0.00  0.00    +0.065 A 
ENDROOT
BRANCH   1  12
ATOM      8  C   UNL     1       9.823   1.029  24.121  0.00  0.00    +0.225 C 
ATOM      9  N   UNL     1      10.484   0.084  23.360  0.00  0.00    -0.240 N 
ATOM     10  H   UNL     1      11.258   0.369  22.776  0.00  0.00    +0.159 HD
ATOM     11  C   UNL     1      10.080  -1.209  23.088  0.00  0.00    +0.310 C 
ATOM     12  N   UNL     1       9.004  -1.649  23.813  0.00  0.00    -0.269 N 
ATOM     13  H   UNL     1       8.707  -1.018  24.556  0.00  0.00    +0.156 HD
ATOM     14  O   UNL     1      10.688  -1.840  22.227  0.00  0.00    -0.252 OA
ATOM     15  O   UNL     1       8.913   0.747  24.904  0.00  0.00    -0.275 OA
BRANCH   8  16
ATOM     16  C   UNL     1      10.328   2.451  23.951  0.00  0.00    +0.131 C 
BRANCH  16  21
ATOM     17  F   UNL     1       6.553   6.181  22.028  0.00  0.00    -0.205 F 
ATOM     18  C   UNL     1       7.423   5.287  22.515  0.00  0.00    +0.123 A 
ATOM     19  C   UNL     1       7.309   3.952  22.152  0.00  0.00    +0.038 A 
ATOM     20  C   UNL     1       8.234   3.024  22.637  0.00  0.00    +0.007 A 
ATOM     21  C   UNL     1       9.271   3.429  23.496  0.00  0.00    -0.038 A 
ATOM     22  C   UNL     1       9.360   4.783  23.857  0.00  0.00    +0.007 A 
ATOM     23  C   UNL     1       8.435   5.707  23.368  0.00  0.00    +0.038 A 
ENDBRANCH  16  21
ENDBRANCH   8  16
ENDBRANCH   1  12
BRANCH   4  24
ATOM     24  O   UNL     1       5.830  -6.246  23.561  0.00  0.00    -0.452 OA
BRANCH  24  25
ATOM     25  C   UNL     1       4.505  -6.145  23.928  0.00  0.00    +0.141 A 
ATOM     26  C   UNL     1       4.173  -6.334  25.286  0.00  0.00    +0.061 A 
ATOM     27  C   UNL     1       4.877  -6.693  26.472  0.00  0.00    +0.032 A 
ATOM     28  C   UNL     1       3.963  -6.747  27.506  0.00  0.00    +0.085 A 
ATOM     29  N   UNL     1       2.740  -6.393  26.999  0.00  0.00    -0.346 N 
ATOM     30  H   UNL     1       1.870  -6.333  27.510  0.00  0.00    +0.167 HD
ATOM     31  C   UNL     1       2.840  -6.178  25.653  0.00  0.00    +0.142 A 
ATOM     32  N   UNL     1       1.799  -5.881  24.855  0.00  0.00    -0.237 NA
ATOM     33  C   UNL     1       2.149  -5.808  23.553  0.00  0.00    +0.117 A 
ATOM     34  C   UNL     1       3.433  -5.957  23.047  0.00  0.00    +0.066 A 
ENDBRANCH  24  25
ENDBRANCH   4  24
TORSDOF 5
ENDMDL
MODEL 8
REMARK VINA RESULT:      -7.7      3.100      4.876
REMARK  Name = 
REMARK  5 active torsions:
REMARK  status: ('A' for Active; 'I' for Inactive)
REMARK    1  A    between atoms: C_5  and  C_6
REMARK    2  A    between atoms: C_6  and  C_7
REMARK    3  A    between atoms: N_12  and  C_13
REMARK    4  A    between atoms: C_17  and  O_18
REMARK    5  A    between atoms: O_18  and  C_19
REMARK                            x       y       z     vdW  Elec       q    Type
REMARK                         _______ _______ _______ _____ _____    ______ ____
ROOT
ATOM      1  C   UNL     1       8.920  -2.170  23.815  0.00  0.00    +0.038 A 
ATOM      2  C   UNL     1       8.733  -1.886  22.456  0.00  0.00    +0.027 A 
ATOM      3  C   UNL     1       9.291  -0.740  21.877  0.00  0.00    +0.051 A 
ATOM      4  C   UNL     1       9.963   0.187  22.673  0.00  0.00    +0.164 A 
ATOM      5  C   UNL     1      10.203  -0.137  24.012  0.00  0.00    +0.167 A 
ATOM      6  F   UNL     1      10.920   0.697  24.782  0.00  0.00    -0.202 F 
ATOM      7  C   UNL     1       9.697  -1.306  24.584  0.00  0.00    +0.065 A 
ENDROOT
BRANCH   1  12
ATOM      8  C   UNL     1       6.589  -5.101  25.704  0.00  0.00    +0.225 C 
ATOM      9  N   UNL     1       7.914  -5.339  25.394  0.00  0.00    -0.240 N 
ATOM     10  H   UNL     1       8.372  -6.159  25.767  0.00  0.00    +0.159 HD
ATOM     11  C   UNL     1       8.812  -4.463  24.814  0.00  0.00    +0.310 C 
ATOM     12  N   UNL     1       8.266  -3.306  24.325  0.00  0.00    -0.269 N 
ATOM     13  H   UNL     1       7.246  -3.283  24.331  0.00  0.00    +0.156 HD
ATOM     14  O   UNL     1      10.001  -4.772  24.801  0.00  0.00    -0.252 OA
ATOM     15  O   UNL     1       5.946  -4.160  25.235  0.00  0.00    -0.275 OA
BRANCH   8  16
ATOM     16  C   UNL     1       5.962  -6.117  26.642  0.00  0.00    +0.131 C 
BRANCH  16  21
ATOM     17  F   UNL     1       0.745  -7.515  25.001  0.00  0.00    -0.205 F 
ATOM     18  C   UNL     1       1.988  -7.222  25.405  0.00  0.00    +0.123 A 
ATOM     19  C   UNL     1       3.063  -7.496  24.569  0.00  0.00    +0.038 A 
ATOM     20  C   UNL     1       4.356  -7.163  24.979  0.00  0.00    +0.007 A 
ATOM     21  C   UNL     1       4.579  -6.563  26.231  0.00  0.00    -0.038 A 
ATOM     22  C   UNL     1       3.477  -6.304  27.062  0.00  0.00    +0.007 A 
ATOM     23  C   UNL     1       2.186  -6.636  26.648  0.00  0.00    +0.038 A 
ENDBRANCH  16  21
ENDBRANCH   8  16
ENDBRANCH   1  12
BRANCH   4  24
ATOM     24  O   UNL     1      10.464   1.389  22.230  0.00  0.00    -0.452 OA
BRANCH  24  25
ATOM     25  C   UNL     1      10.022   2.587  22.749  0.00  0.00    +0.141 A 
ATOM     26  C   UNL     1       8.661   2.920  22.591  0.00  0.00    +0.061 A 
ATOM     27  C   UNL     1       7.534   2.344  21.935  0.00  0.00    +0.032 A 
ATOM     28  C   UNL     1       6.458   3.188  22.124  0.00  0.00    +0.085 A 
ATOM     29  N   UNL     1       6.879   4.232  22.906  0.00  0.00    -0.346 N 
ATOM     30  H   UNL     1       6.321   5.012  23.222  0.00  0.00    +0.167 HD
ATOM     31  C   UNL     1       8.216   4.107  23.165  0.00  0.00    +0.142 A 
ATOM     32  N   UNL     1       8.940   5.009  23.851  0.00  0.00    -0.237 NA
ATOM     33  C   UNL     1      10.253   4.697  23.890  0.00  0.00    +0.117 A 
ATOM     34  C   UNL     1      10.834   3.557  23.349  0.00  0.00    +0.066 A 
ENDBRANCH  24  25
ENDBRANCH   4  24
TORSDOF 5
ENDMDL
MODEL 9
REMARK VINA RESULT:      -7.7      3.443     10.695
REMARK  Name = 
REMARK  5 active torsions:
REMARK  status: ('A' for Active; 'I' for Inactive)
REMARK    1  A    between atoms: C_5  and  C_6
REMARK    2  A    between atoms: C_6  and  C_7
REMARK    3  A    between atoms: N_12  and  C_13
REMARK    4  A    between atoms: C_17  and  O_18
REMARK    5  A    between atoms: O_18  and  C_19
REMARK                            x       y       z     vdW  Elec       q    Type
REMARK                         _______ _______ _______ _____ _____    ______ ____
ROOT
ATOM      1  C   UNL     1       8.458  -3.115  25.081  0.00  0.00    +0.038 A 
ATOM      2  C   UNL     1       8.704  -3.679  26.340  0.00  0.00    +0.027 A 
ATOM      3  C   UNL     1       7.999  -4.808  26.773  0.00  0.00    +0.051 A 
ATOM      4  C   UNL     1       6.969  -5.330  25.990  0.00  0.00    +0.164 A 
ATOM      5  C   UNL     1       6.778  -4.806  24.709  0.00  0.00    +0.167 A 
ATOM      6  F   UNL     1       5.852  -5.343  23.900  0.00  0.00    -0.202 F 
ATOM      7  C   UNL     1       7.516  -3.714  24.247  0.00  0.00    +0.065 A 
ENDROOT
BRANCH   1  12
ATOM      8  C   UNL     1       9.951   0.705  24.205  0.00  0.00    +0.225 C 
ATOM      9  N   UNL     1      10.457  -0.416  23.576  0.00  0.00    -0.240 N 
ATOM     10  H   UNL     1      11.074  -0.305  22.784  0.00  0.00    +0.159 HD
ATOM     11  C   UNL     1      10.042  -1.725  23.729  0.00  0.00    +0.310 C 
ATOM     12  N   UNL     1       9.165  -1.943  24.759  0.00  0.00    -0.269 N 
ATOM     13  H   UNL     1       9.020  -1.139  25.369  0.00  0.00    +0.156 HD
ATOM     14  O   UNL     1      10.464  -2.566  22.939  0.00  0.00    -0.252 OA
ATOM     15  O   UNL     1       9.244   0.651  25.214  0.00  0.00    -0.275 OA
BRANCH   8  16
ATOM     16  C   UNL     1      10.363   2.027  23.581  0.00  0.00    +0.131 C 
BRANCH  16  21
ATOM     17  F   UNL     1       6.205   5.600  22.239  0.00  0.00    -0.205 F 
ATOM     18  C   UNL     1       7.168   4.737  22.588  0.00  0.00    +0.123 A 
ATOM     19  C   UNL     1       7.152   3.448  22.074  0.00  0.00    +0.038 A 
ATOM     20  C   UNL     1       8.173   2.557  22.415  0.00  0.00    +0.007 A 
ATOM     21  C   UNL     1       9.208   2.952  23.280  0.00  0.00    -0.038 A 
ATOM     22  C   UNL     1       9.198   4.259  23.794  0.00  0.00    +0.007 A 
ATOM     23  C   UNL     1       8.178   5.147  23.449  0.00  0.00    +0.038 A 
ENDBRANCH  16  21
ENDBRANCH   8  16
ENDBRANCH   1  12
BRANCH   4  24
ATOM     24  O   UNL     1       6.150  -6.372  26.359  0.00  0.00    -0.452 OA
BRANCH  24  25
ATOM     25  C   UNL     1       4.892  -6.148  26.875  0.00  0.00    +0.141 A 
ATOM     26  C   UNL     1       3.788  -6.732  26.218  0.00  0.00    +0.061 A 
ATOM     27  C   UNL     1       3.590  -7.502  25.035  0.00  0.00    +0.032 A 
ATOM     28  C   UNL     1       2.237  -7.748  24.913  0.00  0.00    +0.085 A 
ATOM     29  N   UNL     1       1.613  -7.193  26.000  0.00  0.00    -0.346 N 
ATOM     30  H   UNL     1       0.623  -7.209  26.199  0.00  0.00    +0.167 HD
ATOM     31  C   UNL     1       2.529  -6.542  26.778  0.00  0.00    +0.142 A 
ATOM     32  N   UNL     1       2.219  -5.839  27.882  0.00  0.00    -0.237 NA
ATOM     33  C   UNL     1       3.291  -5.217  28.417  0.00  0.00    +0.117 A 
ATOM     34  C   UNL     1       4.598  -5.307  27.955  0.00  0.00    +0.066 A 
ENDBRANCH  24  25
ENDBRANCH   4  24
TORSDOF 5
ENDMDL
