MODEL 1
REMARK VINA RESULT:      -7.1      0.000      0.000
REMARK  Name = 
REMARK  12 active torsions:
REMARK  status: ('A' for Active; 'I' for Inactive)
REMARK    1  A    between atoms: C_1  and  C_2
REMARK    2  A    between atoms: C_2  and  C_3
REMARK    3  A    between atoms: C_2  and  C_4
REMARK    4  A    between atoms: C_2  and  C_5
REMARK    5  A    between atoms: C_5  and  O_7
REMARK    6  A    between atoms: O_7  and  C_8
REMARK    7  A    between atoms: N_12  and  C_13
REMARK    8  A    between atoms: C_13  and  C_14
REMARK    9  A    between atoms: C_14  and  C_15
REMARK   10  A    between atoms: C_15  and  O_16
REMARK   11  A    between atoms: C_19  and  C_21
REMARK   12  A    between atoms: C_23  and  N_27
REMARK                            x       y       z     vdW  Elec       q    Type
REMARK                         _______ _______ _______ _____ _____    ______ ____
ROOT
ATOM      1  C   UNL     1       6.758  -4.103  24.527  0.00  0.00    +0.134 A 
ATOM      2  C   UNL     1       7.360  -3.062  23.818  0.00  0.00    +0.076 A 
ATOM      3  C   UNL     1       7.767  -1.931  24.526  0.00  0.00    +0.094 A 
ATOM      4  C   UNL     1       7.609  -1.865  25.904  0.00  0.00    +0.070 A 
ATOM      5  N   UNL     1       8.120  -0.617  26.231  0.00  0.00    -0.311 N 
ATOM      6  C   UNL     1       8.558  -0.010  25.062  0.00  0.00    +0.203 A 
ATOM      7  N   UNL     1       9.123   1.248  24.990  0.00  0.00    -0.252 N 
ATOM      8  H   UNL     1       9.198   1.793  25.830  0.00  0.00    +0.158 HD
ATOM      9  C   UNL     1       9.483   1.793  23.767  0.00  0.00    +0.251 C 
ATOM     10  O   UNL     1       9.378   1.269  22.663  0.00  0.00    -0.270 OA
ATOM     11  C   UNL     1       7.054  -2.928  26.638  0.00  0.00    +0.031 A 
ATOM     12  N   UNL     1       8.353  -0.806  24.041  0.00  0.00    -0.214 NA
ATOM     13  C   UNL     1       6.630  -4.057  25.916  0.00  0.00    +0.048 A 
ENDROOT
BRANCH   9  14
ATOM     14  C   UNL     1      10.054   3.175  23.787  0.00  0.00    +0.044 A 
ATOM     15  C   UNL     1       9.253   4.201  24.323  0.00  0.00    +0.013 A 
ATOM     16  C   UNL     1       9.683   5.530  24.323  0.00  0.00    +0.007 A 
ATOM     17  C   UNL     1      10.926   5.854  23.787  0.00  0.00    +0.084 A 
ATOM     18  C   UNL     1      11.731   4.837  23.254  0.00  0.00    +0.274 A 
ATOM     19  C   UNL     1      11.303   3.497  23.248  0.00  0.00    +0.097 A 
BRANCH  18  20
ATOM     20  N   UNL     1      13.041   5.177  22.682  0.00  0.00    +0.080 N 
ATOM     21  O   UNL     1      14.050   4.919  23.350  0.00  0.00    +0.041 OA
ATOM     22  O   UNL     1      13.053   5.697  21.556  0.00  0.00    -0.576 OA
ENDBRANCH  18  20
ENDBRANCH   9  14
BRANCH   1  23
ATOM     23  O   UNL     1       6.377  -5.275  23.853  0.00  0.00    -0.425 OA
BRANCH  23  24
ATOM     24  C   UNL     1       5.204  -5.171  23.101  0.00  0.00    +0.318 C 
ATOM     25  O   UNL     1       5.124  -4.702  21.972  0.00  0.00    -0.250 OA
BRANCH  24  27
ATOM     26  C   UNL     1       2.998  -6.325  22.904  0.00  0.00    +0.022 C 
ATOM     27  C   UNL     1       4.015  -5.726  23.890  0.00  0.00    +0.060 C 
ATOM     28  C   UNL     1       4.484  -6.839  24.839  0.00  0.00    +0.022 C 
ATOM     29  C   UNL     1       3.362  -4.587  24.674  0.00  0.00    +0.022 C 
ENDBRANCH  24  27
ENDBRANCH  23  24
ENDBRANCH   1  23
BRANCH   5  30
ATOM     30  C   UNL     1       8.255  -0.112  27.582  0.00  0.00    +0.127 C 
BRANCH  30  31
ATOM     31  C   UNL     1       7.047   0.636  28.139  0.00  0.00    +0.049 C 
BRANCH  31  32
ATOM     32  C   UNL     1       7.349   1.476  29.370  0.00  0.00    +0.157 C 
BRANCH  32  33
ATOM     33  O   UNL     1       8.578   1.033  29.934  0.00  0.00    -0.395 OA
ATOM     34  H   UNL     1       9.015   0.447  29.292  0.00  0.00    +0.209 HD
ENDBRANCH  32  33
ENDBRANCH  31  32
ENDBRANCH  30  31
ENDBRANCH   5  30
TORSDOF 9
ENDMDL
MODEL 2
REMARK VINA RESULT:      -7.0      3.300     10.078
REMARK  Name = 
REMARK  12 active torsions:
REMARK  status: ('A' for Active; 'I' for Inactive)
REMARK    1  A    between atoms: C_1  and  C_2
REMARK    2  A    between atoms: C_2  and  C_3
REMARK    3  A    between atoms: C_2  and  C_4
REMARK    4  A    between atoms: C_2  and  C_5
REMARK    5  A    between atoms: C_5  and  O_7
REMARK    6  A    between atoms: O_7  and  C_8
REMARK    7  A    between atoms: N_12  and  C_13
REMARK    8  A    between atoms: C_13  and  C_14
REMARK    9  A    between atoms: C_14  and  C_15
REMARK   10  A    between atoms: C_15  and  O_16
REMARK   11  A    between atoms: C_19  and  C_21
REMARK   12  A    between atoms: C_23  and  N_27
REMARK                            x       y       z     vdW  Elec       q    Type
REMARK                         _______ _______ _______ _____ _____    ______ ____
ROOT
ATOM      1  C   UNL     1       9.021   0.037  22.756  0.00  0.00    +0.134 A 
ATOM      2  C   UNL     1       7.752  -0.305  23.228  0.00  0.00    +0.076 A 
ATOM      3  C   UNL     1       7.520  -1.630  23.597  0.00  0.00    +0.094 A 
ATOM      4  C   UNL     1       8.541  -2.570  23.531  0.00  0.00    +0.070 A 
ATOM      5  N   UNL     1       7.935  -3.739  23.968  0.00  0.00    -0.311 N 
ATOM      6  C   UNL     1       6.613  -3.451  24.276  0.00  0.00    +0.203 A 
ATOM      7  N   UNL     1       5.692  -4.371  24.738  0.00  0.00    -0.252 N 
ATOM      8  H   UNL     1       5.972  -5.331  24.831  0.00  0.00    +0.158 HD
ATOM      9  C   UNL     1       4.376  -3.999  24.970  0.00  0.00    +0.251 C 
ATOM     10  O   UNL     1       3.885  -2.884  24.828  0.00  0.00    -0.270 OA
ATOM     11  C   UNL     1       9.838  -2.227  23.111  0.00  0.00    +0.031 A 
ATOM     12  N   UNL     1       6.369  -2.181  24.061  0.00  0.00    -0.214 NA
ATOM     13  C   UNL     1      10.059  -0.894  22.723  0.00  0.00    +0.048 A 
ENDROOT
BRANCH   9  14
ATOM     14  C   UNL     1       3.445  -5.073  25.435  0.00  0.00    +0.044 A 
ATOM     15  C   UNL     1       2.883  -4.936  26.718  0.00  0.00    +0.013 A 
ATOM     16  C   UNL     1       2.054  -5.923  27.255  0.00  0.00    +0.007 A 
ATOM     17  C   UNL     1       1.772  -7.068  26.514  0.00  0.00    +0.084 A 
ATOM     18  C   UNL     1       2.326  -7.211  25.234  0.00  0.00    +0.274 A 
ATOM     19  C   UNL     1       3.165  -6.221  24.688  0.00  0.00    +0.097 A 
BRANCH  18  20
ATOM     20  N   UNL     1       2.037  -8.420  24.452  0.00  0.00    +0.080 N 
ATOM     21  O   UNL     1       2.132  -9.515  25.023  0.00  0.00    +0.041 OA
ATOM     22  O   UNL     1       1.707  -8.267  23.268  0.00  0.00    -0.576 OA
ENDBRANCH  18  20
ENDBRANCH   9  14
BRANCH   1  23
ATOM     23  O   UNL     1       9.301   1.372  22.419  0.00  0.00    -0.425 OA
BRANCH  23  24
ATOM     24  C   UNL     1       9.837   2.144  23.453  0.00  0.00    +0.318 C 
ATOM     25  O   UNL     1      10.908   1.938  24.010  0.00  0.00    -0.250 OA
BRANCH  24  27
ATOM     26  C   UNL     1       9.706   4.589  23.942  0.00  0.00    +0.022 C 
ATOM     27  C   UNL     1       8.889   3.294  23.805  0.00  0.00    +0.060 C 
ATOM     28  C   UNL     1       7.856   3.489  22.685  0.00  0.00    +0.022 C 
ATOM     29  C   UNL     1       8.195   2.980  25.131  0.00  0.00    +0.022 C 
ENDBRANCH  24  27
ENDBRANCH  23  24
ENDBRANCH   1  23
BRANCH   5  30
ATOM     30  C   UNL     1       8.622  -5.000  24.159  0.00  0.00    +0.127 C 
BRANCH  30  31
ATOM     31  C   UNL     1       9.529  -5.089  25.383  0.00  0.00    +0.049 C 
BRANCH  31  32
ATOM     32  C   UNL     1       8.823  -4.812  26.702  0.00  0.00    +0.157 C 
BRANCH  32  33
ATOM     33  O   UNL     1       7.817  -5.799  26.896  0.00  0.00    -0.395 OA
ATOM     34  H   UNL     1       8.254  -6.659  27.024  0.00  0.00    +0.209 HD
ENDBRANCH  32  33
ENDBRANCH  31  32
ENDBRANCH  30  31
ENDBRANCH   5  30
TORSDOF 9
ENDMDL
MODEL 3
REMARK VINA RESULT:      -6.9      2.795      4.071
REMARK  Name = 
REMARK  12 active torsions:
REMARK  status: ('A' for Active; 'I' for Inactive)
REMARK    1  A    between atoms: C_1  and  C_2
REMARK    2  A    between atoms: C_2  and  C_3
REMARK    3  A    between atoms: C_2  and  C_4
REMARK    4  A    between atoms: C_2  and  C_5
REMARK    5  A    between atoms: C_5  and  O_7
REMARK    6  A    between atoms: O_7  and  C_8
REMARK    7  A    between atoms: N_12  and  C_13
REMARK    8  A    between atoms: C_13  and  C_14
REMARK    9  A    between atoms: C_14  and  C_15
REMARK   10  A    between atoms: C_15  and  O_16
REMARK   11  A    between atoms: C_19  and  C_21
REMARK   12  A    between atoms: C_23  and  N_27
REMARK                            x       y       z     vdW  Elec       q    Type
REMARK                         _______ _______ _______ _____ _____    ______ ____
ROOT
ATOM      1  C   UNL     1       8.038  -4.663  26.737  0.00  0.00    +0.134 A 
ATOM      2  C   UNL     1       7.566  -3.351  26.805  0.00  0.00    +0.076 A 
ATOM      3  C   UNL     1       8.087  -2.415  25.912  0.00  0.00    +0.094 A 
ATOM      4  C   UNL     1       9.021  -2.794  24.957  0.00  0.00    +0.070 A 
ATOM      5  N   UNL     1       9.289  -1.615  24.277  0.00  0.00    -0.311 N 
ATOM      6  C   UNL     1       8.515  -0.609  24.837  0.00  0.00    +0.203 A 
ATOM      7  N   UNL     1       8.517   0.710  24.425  0.00  0.00    -0.252 N 
ATOM      8  H   UNL     1       9.144   0.986  23.692  0.00  0.00    +0.158 HD
ATOM      9  C   UNL     1       7.745   1.657  25.082  0.00  0.00    +0.251 C 
ATOM     10  O   UNL     1       6.995   1.471  26.035  0.00  0.00    -0.270 OA
ATOM     11  C   UNL     1       9.464  -4.124  24.841  0.00  0.00    +0.031 A 
ATOM     12  N   UNL     1       7.787  -1.094  25.813  0.00  0.00    -0.214 NA
ATOM     13  C   UNL     1       8.949  -5.057  25.757  0.00  0.00    +0.048 A 
ENDROOT
BRANCH   9  14
ATOM     14  C   UNL     1       7.841   3.065  24.586  0.00  0.00    +0.044 A 
ATOM     15  C   UNL     1       6.702   3.617  23.972  0.00  0.00    +0.013 A 
ATOM     16  C   UNL     1       6.725   4.902  23.425  0.00  0.00    +0.007 A 
ATOM     17  C   UNL     1       7.893   5.658  23.485  0.00  0.00    +0.084 A 
ATOM     18  C   UNL     1       9.031   5.116  24.098  0.00  0.00    +0.274 A 
ATOM     19  C   UNL     1       9.016   3.821  24.648  0.00  0.00    +0.097 A 
BRANCH  18  20
ATOM     20  N   UNL     1      10.267   5.908  24.157  0.00  0.00    +0.080 N 
ATOM     21  O   UNL     1      10.326   6.827  24.984  0.00  0.00    +0.041 OA
ATOM     22  O   UNL     1      11.179   5.600  23.376  0.00  0.00    -0.576 OA
ENDBRANCH  18  20
ENDBRANCH   9  14
BRANCH   1  23
ATOM     23  O   UNL     1       7.502  -5.640  27.592  0.00  0.00    -0.425 OA
BRANCH  23  24
ATOM     24  C   UNL     1       6.181  -6.007  27.317  0.00  0.00    +0.318 C 
ATOM     25  O   UNL     1       5.753  -6.349  26.222  0.00  0.00    -0.250 OA
BRANCH  24  27
ATOM     26  C   UNL     1       4.101  -6.830  28.427  0.00  0.00    +0.022 C 
ATOM     27  C   UNL     1       5.330  -5.918  28.587  0.00  0.00    +0.060 C 
ATOM     28  C   UNL     1       6.137  -6.402  29.800  0.00  0.00    +0.022 C 
ATOM     29  C   UNL     1       4.875  -4.471  28.782  0.00  0.00    +0.022 C 
ENDBRANCH  24  27
ENDBRANCH  23  24
ENDBRANCH   1  23
BRANCH   5  30
ATOM     30  C   UNL     1      10.153  -1.511  23.119  0.00  0.00    +0.127 C 
BRANCH  30  31
ATOM     31  C   UNL     1       9.453  -1.474  21.763  0.00  0.00    +0.049 C 
BRANCH  31  32
ATOM     32  C   UNL     1       9.271  -0.075  21.195  0.00  0.00    +0.157 C 
BRANCH  32  33
ATOM     33  O   UNL     1      10.084   0.826  21.936  0.00  0.00    -0.395 OA
ATOM     34  H   UNL     1      10.214   0.459  22.827  0.00  0.00    +0.209 HD
ENDBRANCH  32  33
ENDBRANCH  31  32
ENDBRANCH  30  31
ENDBRANCH   5  30
TORSDOF 9
ENDMDL
MODEL 4
REMARK VINA RESULT:      -6.9      3.181     10.021
REMARK  Name = 
REMARK  12 active torsions:
REMARK  status: ('A' for Active; 'I' for Inactive)
REMARK    1  A    between atoms: C_1  and  C_2
REMARK    2  A    between atoms: C_2  and  C_3
REMARK    3  A    between atoms: C_2  and  C_4
REMARK    4  A    between atoms: C_2  and  C_5
REMARK    5  A    between atoms: C_5  and  O_7
REMARK    6  A    between atoms: O_7  and  C_8
REMARK    7  A    between atoms: N_12  and  C_13
REMARK    8  A    between atoms: C_13  and  C_14
REMARK    9  A    between atoms: C_14  and  C_15
REMARK   10  A    between atoms: C_15  and  O_16
REMARK   11  A    between atoms: C_19  and  C_21
REMARK   12  A    between atoms: C_23  and  N_27
REMARK                            x       y       z     vdW  Elec       q    Type
REMARK                         _______ _______ _______ _____ _____    ______ ____
ROOT
ATOM      1  C   UNL     1       8.659   0.981  22.333  0.00  0.00    +0.134 A 
ATOM      2  C   UNL     1       7.744   0.628  23.326  0.00  0.00    +0.076 A 
ATOM      3  C   UNL     1       7.432  -0.723  23.485  0.00  0.00    +0.094 A 
ATOM      4  C   UNL     1       8.049  -1.687  22.700  0.00  0.00    +0.070 A 
ATOM      5  N   UNL     1       7.490  -2.876  23.145  0.00  0.00    -0.311 N 
ATOM      6  C   UNL     1       6.591  -2.578  24.159  0.00  0.00    +0.203 A 
ATOM      7  N   UNL     1       5.835  -3.509  24.843  0.00  0.00    -0.252 N 
ATOM      8  H   UNL     1       5.901  -4.475  24.577  0.00  0.00    +0.158 HD
ATOM      9  C   UNL     1       4.923  -3.109  25.808  0.00  0.00    +0.251 C 
ATOM     10  O   UNL     1       4.689  -1.962  26.177  0.00  0.00    -0.270 OA
ATOM     11  C   UNL     1       9.014  -1.351  21.734  0.00  0.00    +0.031 A 
ATOM     12  N   UNL     1       6.565  -1.284  24.367  0.00  0.00    -0.214 NA
ATOM     13  C   UNL     1       9.309   0.014  21.566  0.00  0.00    +0.048 A 
ENDROOT
BRANCH   9  14
ATOM     14  C   UNL     1       4.125  -4.187  26.469  0.00  0.00    +0.044 A 
ATOM     15  C   UNL     1       2.736  -4.202  26.239  0.00  0.00    +0.013 A 
ATOM     16  C   UNL     1       1.909  -5.136  26.867  0.00  0.00    +0.007 A 
ATOM     17  C   UNL     1       2.459  -6.074  27.736  0.00  0.00    +0.084 A 
ATOM     18  C   UNL     1       3.841  -6.067  27.968  0.00  0.00    +0.274 A 
ATOM     19  C   UNL     1       4.680  -5.127  27.342  0.00  0.00    +0.097 A 
BRANCH  18  20
ATOM     20  N   UNL     1       4.424  -7.051  28.890  0.00  0.00    +0.080 N 
ATOM     21  O   UNL     1       5.556  -7.483  28.636  0.00  0.00    +0.041 OA
ATOM     22  O   UNL     1       3.746  -7.381  29.873  0.00  0.00    -0.576 OA
ENDBRANCH  18  20
ENDBRANCH   9  14
BRANCH   1  23
ATOM     23  O   UNL     1       9.030   2.327  22.176  0.00  0.00    -0.425 OA
BRANCH  23  24
ATOM     24  C   UNL     1       9.732   2.878  23.251  0.00  0.00    +0.318 C 
ATOM     25  O   UNL     1      10.787   2.449  23.703  0.00  0.00    -0.250 OA
BRANCH  24  27
ATOM     26  C   UNL     1       7.850   4.465  22.837  0.00  0.00    +0.022 C 
ATOM     27  C   UNL     1       8.993   4.101  23.800  0.00  0.00    +0.060 C 
ATOM     28  C   UNL     1       8.386   3.779  25.173  0.00  0.00    +0.022 C 
ATOM     29  C   UNL     1       9.973   5.271  23.903  0.00  0.00    +0.022 C 
ENDBRANCH  24  27
ENDBRANCH  23  24
ENDBRANCH   1  23
BRANCH   5  30
ATOM     30  C   UNL     1       7.880  -4.192  22.683  0.00  0.00    +0.127 C 
BRANCH  30  31
ATOM     31  C   UNL     1       6.911  -4.877  21.723  0.00  0.00    +0.049 C 
BRANCH  31  32
ATOM     32  C   UNL     1       6.248  -6.123  22.291  0.00  0.00    +0.157 C 
BRANCH  32  33
ATOM     33  O   UNL     1       4.844  -6.025  22.084  0.00  0.00    -0.395 OA
ATOM     34  H   UNL     1       4.489  -6.924  21.972  0.00  0.00    +0.209 HD
ENDBRANCH  32  33
ENDBRANCH  31  32
ENDBRANCH  30  31
ENDBRANCH   5  30
TORSDOF 9
ENDMDL
MODEL 5
REMARK VINA RESULT:      -6.8      2.167      3.199
REMARK  Name = 
REMARK  12 active torsions:
REMARK  status: ('A' for Active; 'I' for Inactive)
REMARK    1  A    between atoms: C_1  and  C_2
REMARK    2  A    between atoms: C_2  and  C_3
REMARK    3  A    between atoms: C_2  and  C_4
REMARK    4  A    between atoms: C_2  and  C_5
REMARK    5  A    between atoms: C_5  and  O_7
REMARK    6  A    between atoms: O_7  and  C_8
REMARK    7  A    between atoms: N_12  and  C_13
REMARK    8  A    between atoms: C_13  and  C_14
REMARK    9  A    between atoms: C_14  and  C_15
REMARK   10  A    between atoms: C_15  and  O_16
REMARK   11  A    between atoms: C_19  and  C_21
REMARK   12  A    between atoms: C_23  and  N_27
REMARK                            x       y       z     vdW  Elec       q    Type
REMARK                         _______ _______ _______ _____ _____    ______ ____
ROOT
ATOM      1  C   UNL     1       5.374  -3.430  25.020  0.00  0.00    +0.134 A 
ATOM      2  C   UNL     1       5.271  -2.045  24.881  0.00  0.00    +0.076 A 
ATOM      3  C   UNL     1       6.435  -1.318  24.635  0.00  0.00    +0.094 A 
ATOM      4  C   UNL     1       7.656  -1.966  24.494  0.00  0.00    +0.070 A 
ATOM      5  N   UNL     1       8.549  -0.930  24.264  0.00  0.00    -0.311 N 
ATOM      6  C   UNL     1       7.840   0.262  24.270  0.00  0.00    +0.203 A 
ATOM      7  N   UNL     1       8.395   1.513  24.081  0.00  0.00    -0.252 N 
ATOM      8  H   UNL     1       9.390   1.587  23.965  0.00  0.00    +0.158 HD
ATOM      9  C   UNL     1       7.611   2.654  24.156  0.00  0.00    +0.251 C 
ATOM     10  O   UNL     1       6.403   2.711  24.365  0.00  0.00    -0.270 OA
ATOM     11  C   UNL     1       7.765  -3.365  24.576  0.00  0.00    +0.031 A 
ATOM     12  N   UNL     1       6.568   0.025  24.484  0.00  0.00    -0.214 NA
ATOM     13  C   UNL     1       6.590  -4.089  24.843  0.00  0.00    +0.048 A 
ENDROOT
BRANCH   9  14
ATOM     14  C   UNL     1       8.309   3.964  23.974  0.00  0.00    +0.044 A 
ATOM     15  C   UNL     1       7.519   5.084  23.653  0.00  0.00    +0.013 A 
ATOM     16  C   UNL     1       8.096   6.330  23.404  0.00  0.00    +0.007 A 
ATOM     17  C   UNL     1       9.479   6.478  23.473  0.00  0.00    +0.084 A 
ATOM     18  C   UNL     1      10.273   5.368  23.794  0.00  0.00    +0.274 A 
ATOM     19  C   UNL     1       9.698   4.108  24.043  0.00  0.00    +0.097 A 
BRANCH  18  20
ATOM     20  N   UNL     1      11.733   5.519  23.860  0.00  0.00    +0.080 N 
ATOM     21  O   UNL     1      12.190   6.419  24.577  0.00  0.00    +0.041 OA
ATOM     22  O   UNL     1      12.418   4.727  23.197  0.00  0.00    -0.576 OA
ENDBRANCH  18  20
ENDBRANCH   9  14
BRANCH   1  23
ATOM     23  O   UNL     1       4.214  -4.197  25.224  0.00  0.00    -0.425 OA
BRANCH  23  24
ATOM     24  C   UNL     1       3.733  -4.856  24.090  0.00  0.00    +0.318 C 
ATOM     25  O   UNL     1       3.835  -4.452  22.938  0.00  0.00    -0.250 OA
BRANCH  24  27
ATOM     26  C   UNL     1       4.094  -7.110  25.101  0.00  0.00    +0.022 C 
ATOM     27  C   UNL     1       3.047  -6.166  24.486  0.00  0.00    +0.060 C 
ATOM     28  C   UNL     1       1.961  -5.896  25.538  0.00  0.00    +0.022 C 
ATOM     29  C   UNL     1       2.442  -6.810  23.238  0.00  0.00    +0.022 C 
ENDBRANCH  24  27
ENDBRANCH  23  24
ENDBRANCH   1  23
BRANCH   5  30
ATOM     30  C   UNL     1       9.956  -1.108  23.968  0.00  0.00    +0.127 C 
BRANCH  30  31
ATOM     31  C   UNL     1      10.294  -1.476  22.526  0.00  0.00    +0.049 C 
BRANCH  31  32
ATOM     32  C   UNL     1       9.596  -0.616  21.484  0.00  0.00    +0.157 C 
BRANCH  32  33
ATOM     33  O   UNL     1      10.047   0.725  21.625  0.00  0.00    -0.395 OA
ATOM     34  H   UNL     1       9.447   1.187  22.235  0.00  0.00    +0.209 HD
ENDBRANCH  32  33
ENDBRANCH  31  32
ENDBRANCH  30  31
ENDBRANCH   5  30
TORSDOF 9
ENDMDL
MODEL 6
REMARK VINA RESULT:      -6.8      3.533      5.038
REMARK  Name = 
REMARK  12 active torsions:
REMARK  status: ('A' for Active; 'I' for Inactive)
REMARK    1  A    between atoms: C_1  and  C_2
REMARK    2  A    between atoms: C_2  and  C_3
REMARK    3  A    between atoms: C_2  and  C_4
REMARK    4  A    between atoms: C_2  and  C_5
REMARK    5  A    between atoms: C_5  and  O_7
REMARK    6  A    between atoms: O_7  and  C_8
REMARK    7  A    between atoms: N_12  and  C_13
REMARK    8  A    between atoms: C_13  and  C_14
REMARK    9  A    between atoms: C_14  and  C_15
REMARK   10  A    between atoms: C_15  and  O_16
REMARK   11  A    between atoms: C_19  and  C_21
REMARK   12  A    between atoms: C_23  and  N_27
REMARK                            x       y       z     vdW  Elec       q    Type
REMARK                         _______ _______ _______ _____ _____    ______ ____
ROOT
ATOM      1  C   UNL     1       7.577  -3.984  24.838  0.00  0.00    +0.134 A 
ATOM      2  C   UNL     1       6.750  -2.880  24.617  0.00  0.00    +0.076 A 
ATOM      3  C   UNL     1       7.339  -1.691  24.187  0.00  0.00    +0.094 A 
ATOM      4  C   UNL     1       8.705  -1.625  23.950  0.00  0.00    +0.070 A 
ATOM      5  N   UNL     1       8.902  -0.312  23.546  0.00  0.00    -0.311 N 
ATOM      6  C   UNL     1       7.673   0.331  23.553  0.00  0.00    +0.203 A 
ATOM      7  N   UNL     1       7.473   1.655  23.214  0.00  0.00    -0.252 N 
ATOM      8  H   UNL     1       8.269   2.219  22.978  0.00  0.00    +0.158 HD
ATOM      9  C   UNL     1       6.211   2.224  23.300  0.00  0.00    +0.251 C 
ATOM     10  O   UNL     1       5.171   1.672  23.644  0.00  0.00    -0.270 OA
ATOM     11  C   UNL     1       9.542  -2.743  24.115  0.00  0.00    +0.031 A 
ATOM     12  N   UNL     1       6.734  -0.503  23.929  0.00  0.00    -0.214 NA
ATOM     13  C   UNL     1       8.944  -3.933  24.567  0.00  0.00    +0.048 A 
ENDROOT
BRANCH   9  14
ATOM     14  C   UNL     1       6.101   3.673  22.948  0.00  0.00    +0.044 A 
ATOM     15  C   UNL     1       7.268   4.327  22.511  0.00  0.00    +0.013 A 
ATOM     16  C   UNL     1       7.268   5.693  22.222  0.00  0.00    +0.007 A 
ATOM     17  C   UNL     1       6.096   6.430  22.364  0.00  0.00    +0.084 A 
ATOM     18  C   UNL     1       4.928   5.786  22.796  0.00  0.00    +0.274 A 
ATOM     19  C   UNL     1       4.922   4.410  23.092  0.00  0.00    +0.097 A 
BRANCH  18  20
ATOM     20  N   UNL     1       3.691   6.562  22.954  0.00  0.00    +0.080 N 
ATOM     21  O   UNL     1       2.939   6.659  21.975  0.00  0.00    +0.041 OA
ATOM     22  O   UNL     1       3.474   7.067  24.065  0.00  0.00    -0.576 OA
ENDBRANCH  18  20
ENDBRANCH   9  14
BRANCH   1  23
ATOM     23  O   UNL     1       7.011  -5.209  25.228  0.00  0.00    -0.425 OA
BRANCH  23  24
ATOM     24  C   UNL     1       6.722  -5.321  26.591  0.00  0.00    +0.318 C 
ATOM     25  O   UNL     1       7.505  -5.085  27.503  0.00  0.00    -0.250 OA
BRANCH  24  27
ATOM     26  C   UNL     1       4.840  -6.594  25.555  0.00  0.00    +0.022 C 
ATOM     27  C   UNL     1       5.280  -5.792  26.792  0.00  0.00    +0.060 C 
ATOM     28  C   UNL     1       5.189  -6.707  28.021  0.00  0.00    +0.022 C 
ATOM     29  C   UNL     1       4.375  -4.570  26.960  0.00  0.00    +0.022 C 
ENDBRANCH  24  27
ENDBRANCH  23  24
ENDBRANCH   1  23
BRANCH   5  30
ATOM     30  C   UNL     1      10.170   0.230  23.101  0.00  0.00    +0.127 C 
BRANCH  30  31
ATOM     31  C   UNL     1      10.724   1.392  23.920  0.00  0.00    +0.049 C 
BRANCH  31  32
ATOM     32  C   UNL     1      10.801   2.708  23.161  0.00  0.00    +0.157 C 
BRANCH  32  33
ATOM     33  O   UNL     1      10.289   2.507  21.849  0.00  0.00    -0.395 OA
ATOM     34  H   UNL     1       9.382   2.856  21.818  0.00  0.00    +0.209 HD
ENDBRANCH  32  33
ENDBRANCH  31  32
ENDBRANCH  30  31
ENDBRANCH   5  30
TORSDOF 9
ENDMDL
MODEL 7
REMARK VINA RESULT:      -6.8      2.701      4.099
REMARK  Name = 
REMARK  12 active torsions:
REMARK  status: ('A' for Active; 'I' for Inactive)
REMARK    1  A    between atoms: C_1  and  C_2
REMARK    2  A    between atoms: C_2  and  C_3
REMARK    3  A    between atoms: C_2  and  C_4
REMARK    4  A    between atoms: C_2  and  C_5
REMARK    5  A    between atoms: C_5  and  O_7
REMARK    6  A    between atoms: O_7  and  C_8
REMARK    7  A    between atoms: N_12  and  C_13
REMARK    8  A    between atoms: C_13  and  C_14
REMARK    9  A    between atoms: C_14  and  C_15
REMARK   10  A    between atoms: C_15  and  O_16
REMARK   11  A    between atoms: C_19  and  C_21
REMARK   12  A    between atoms: C_23  and  N_27
REMARK                            x       y       z     vdW  Elec       q    Type
REMARK                         _______ _______ _______ _____ _____    ______ ____
ROOT
ATOM      1  C   UNL     1       5.048  -5.020  22.661  0.00  0.00    +0.134 A 
ATOM      2  C   UNL     1       4.789  -3.789  23.265  0.00  0.00    +0.076 A 
ATOM      3  C   UNL     1       5.811  -2.840  23.295  0.00  0.00    +0.094 A 
ATOM      4  C   UNL     1       7.039  -3.106  22.703  0.00  0.00    +0.070 A 
ATOM      5  N   UNL     1       7.770  -1.951  22.936  0.00  0.00    -0.311 N 
ATOM      6  C   UNL     1       6.964  -1.063  23.634  0.00  0.00    +0.203 A 
ATOM      7  N   UNL     1       7.352   0.196  24.051  0.00  0.00    -0.252 N 
ATOM      8  H   UNL     1       8.295   0.493  23.876  0.00  0.00    +0.158 HD
ATOM      9  C   UNL     1       6.490   0.993  24.789  0.00  0.00    +0.251 C 
ATOM     10  O   UNL     1       5.344   0.724  25.135  0.00  0.00    -0.270 OA
ATOM     11  C   UNL     1       7.295  -4.321  22.042  0.00  0.00    +0.031 A 
ATOM     12  N   UNL     1       5.784  -1.596  23.840  0.00  0.00    -0.214 NA
ATOM     13  C   UNL     1       6.266  -5.279  22.033  0.00  0.00    +0.048 A 
ENDROOT
BRANCH   9  14
ATOM     14  C   UNL     1       7.013   2.324  25.226  0.00  0.00    +0.044 A 
ATOM     15  C   UNL     1       6.329   2.983  26.265  0.00  0.00    +0.013 A 
ATOM     16  C   UNL     1       6.712   4.257  26.690  0.00  0.00    +0.007 A 
ATOM     17  C   UNL     1       7.791   4.894  26.082  0.00  0.00    +0.084 A 
ATOM     18  C   UNL     1       8.479   4.243  25.048  0.00  0.00    +0.274 A 
ATOM     19  C   UNL     1       8.096   2.961  24.612  0.00  0.00    +0.097 A 
BRANCH  18  20
ATOM     20  N   UNL     1       9.613   4.915  24.400  0.00  0.00    +0.080 N 
ATOM     21  O   UNL     1      10.304   4.255  23.613  0.00  0.00    +0.041 OA
ATOM     22  O   UNL     1       9.802   6.108  24.677  0.00  0.00    -0.576 OA
ENDBRANCH  18  20
ENDBRANCH   9  14
BRANCH   1  23
ATOM     23  O   UNL     1       4.027  -5.981  22.574  0.00  0.00    -0.425 OA
BRANCH  23  24
ATOM     24  C   UNL     1       3.747  -6.658  23.764  0.00  0.00    +0.318 C 
ATOM     25  O   UNL     1       4.554  -7.312  24.413  0.00  0.00    -0.250 OA
BRANCH  24  27
ATOM     26  C   UNL     1       1.714  -7.825  24.622  0.00  0.00    +0.022 C 
ATOM     27  C   UNL     1       2.277  -6.475  24.147  0.00  0.00    +0.060 C 
ATOM     28  C   UNL     1       2.152  -5.466  25.299  0.00  0.00    +0.022 C 
ATOM     29  C   UNL     1       1.497  -5.995  22.922  0.00  0.00    +0.022 C 
ENDBRANCH  24  27
ENDBRANCH  23  24
ENDBRANCH   1  23
BRANCH   5  30
ATOM     30  C   UNL     1       9.106  -1.707  22.431  0.00  0.00    +0.127 C 
BRANCH  30  31
ATOM     31  C   UNL     1       9.261  -0.506  21.502  0.00  0.00    +0.049 C 
BRANCH  31  32
ATOM     32  C   UNL     1      10.018   0.661  22.115  0.00  0.00    +0.157 C 
BRANCH  32  33
ATOM     33  O   UNL     1       9.626   1.857  21.451  0.00  0.00    -0.395 OA
ATOM     34  H   UNL     1       9.541   1.665  20.501  0.00  0.00    +0.209 HD
ENDBRANCH  32  33
ENDBRANCH  31  32
ENDBRANCH  30  31
ENDBRANCH   5  30
TORSDOF 9
ENDMDL
MODEL 8
REMARK VINA RESULT:      -6.5      2.944      3.942
REMARK  Name = 
REMARK  12 active torsions:
REMARK  status: ('A' for Active; 'I' for Inactive)
REMARK    1  A    between atoms: C_1  and  C_2
REMARK    2  A    between atoms: C_2  and  C_3
REMARK    3  A    between atoms: C_2  and  C_4
REMARK    4  A    between atoms: C_2  and  C_5
REMARK    5  A    between atoms: C_5  and  O_7
REMARK    6  A    between atoms: O_7  and  C_8
REMARK    7  A    between atoms: N_12  and  C_13
REMARK    8  A    between atoms: C_13  and  C_14
REMARK    9  A    between atoms: C_14  and  C_15
REMARK   10  A    between atoms: C_15  and  O_16
REMARK   11  A    between atoms: C_19  and  C_21
REMARK   12  A    between atoms: C_23  and  N_27
REMARK                            x       y       z     vdW  Elec       q    Type
REMARK                         _______ _______ _______ _____ _____    ______ ____
ROOT
ATOM      1  C   UNL     1       5.604  -4.613  24.299  0.00  0.00    +0.134 A 
ATOM      2  C   UNL     1       5.322  -3.255  24.461  0.00  0.00    +0.076 A 
ATOM      3  C   UNL     1       6.188  -2.328  23.882  0.00  0.00    +0.094 A 
ATOM      4  C   UNL     1       7.278  -2.752  23.132  0.00  0.00    +0.070 A 
ATOM      5  N   UNL     1       7.880  -1.567  22.735  0.00  0.00    -0.311 N 
ATOM      6  C   UNL     1       7.138  -0.512  23.247  0.00  0.00    +0.203 A 
ATOM      7  N   UNL     1       7.436   0.824  23.065  0.00  0.00    -0.252 N 
ATOM      8  H   UNL     1       8.267   1.069  22.558  0.00  0.00    +0.158 HD
ATOM      9  C   UNL     1       6.661   1.809  23.660  0.00  0.00    +0.251 C 
ATOM     10  O   UNL     1       5.668   1.647  24.362  0.00  0.00    -0.270 OA
ATOM     11  C   UNL     1       7.542  -4.116  22.914  0.00  0.00    +0.031 A 
ATOM     12  N   UNL     1       6.117  -0.973  23.928  0.00  0.00    -0.214 NA
ATOM     13  C   UNL     1       6.675  -5.044  23.517  0.00  0.00    +0.048 A 
ENDROOT
BRANCH   9  14
ATOM     14  C   UNL     1       7.084   3.226  23.435  0.00  0.00    +0.044 A 
ATOM     15  C   UNL     1       6.358   3.980  22.494  0.00  0.00    +0.013 A 
ATOM     16  C   UNL     1       6.725   5.289  22.177  0.00  0.00    +0.007 A 
ATOM     17  C   UNL     1       7.827   5.868  22.799  0.00  0.00    +0.084 A 
ATOM     18  C   UNL     1       8.554   5.125  23.740  0.00  0.00    +0.274 A 
ATOM     19  C   UNL     1       8.192   3.804  24.061  0.00  0.00    +0.097 A 
BRANCH  18  20
ATOM     20  N   UNL     1       9.722   5.730  24.393  0.00  0.00    +0.080 N 
ATOM     21  O   UNL     1      10.753   5.869  23.722  0.00  0.00    +0.041 OA
ATOM     22  O   UNL     1       9.599   6.074  25.577  0.00  0.00    -0.576 OA
ENDBRANCH  18  20
ENDBRANCH   9  14
BRANCH   1  23
ATOM     23  O   UNL     1       4.728  -5.573  24.831  0.00  0.00    -0.425 OA
BRANCH  23  24
ATOM     24  C   UNL     1       5.012  -5.975  26.139  0.00  0.00    +0.318 C 
ATOM     25  O   UNL     1       6.103  -6.363  26.540  0.00  0.00    -0.250 OA
BRANCH  24  27
ATOM     26  C   UNL     1       3.953  -6.737  28.268  0.00  0.00    +0.022 C 
ATOM     27  C   UNL     1       3.760  -5.869  27.013  0.00  0.00    +0.060 C 
ATOM     28  C   UNL     1       3.547  -4.414  27.457  0.00  0.00    +0.022 C 
ATOM     29  C   UNL     1       2.553  -6.373  26.219  0.00  0.00    +0.022 C 
ENDBRANCH  24  27
ENDBRANCH  23  24
ENDBRANCH   1  23
BRANCH   5  30
ATOM     30  C   UNL     1       9.025  -1.482  21.851  0.00  0.00    +0.127 C 
BRANCH  30  31
ATOM     31  C   UNL     1      10.393  -1.502  22.526  0.00  0.00    +0.049 C 
BRANCH  31  32
ATOM     32  C   UNL     1      10.613  -0.373  23.521  0.00  0.00    +0.157 C 
BRANCH  32  33
ATOM     33  O   UNL     1      10.367   0.865  22.865  0.00  0.00    -0.395 OA
ATOM     34  H   UNL     1       9.834   0.690  22.070  0.00  0.00    +0.209 HD
ENDBRANCH  32  33
ENDBRANCH  31  32
ENDBRANCH  30  31
ENDBRANCH   5  30
TORSDOF 9
ENDMDL
MODEL 9
REMARK VINA RESULT:      -6.5      2.215      2.840
REMARK  Name = 
REMARK  12 active torsions:
REMARK  status: ('A' for Active; 'I' for Inactive)
REMARK    1  A    between atoms: C_1  and  C_2
REMARK    2  A    between atoms: C_2  and  C_3
REMARK    3  A    between atoms: C_2  and  C_4
REMARK    4  A    between atoms: C_2  and  C_5
REMARK    5  A    between atoms: C_5  and  O_7
REMARK    6  A    between atoms: O_7  and  C_8
REMARK    7  A    between atoms: N_12  and  C_13
REMARK    8  A    between atoms: C_13  and  C_14
REMARK    9  A    between atoms: C_14  and  C_15
REMARK   10  A    between atoms: C_15  and  O_16
REMARK   11  A    between atoms: C_19  and  C_21
REMARK   12  A    between atoms: C_23  and  N_27
REMARK                            x       y       z     vdW  Elec       q    Type
REMARK                         _______ _______ _______ _____ _____    ______ ____
ROOT
ATOM      1  C   UNL     1       5.864  -4.168  22.837  0.00  0.00    +0.134 A 
ATOM      2  C   UNL     1       5.604  -2.820  22.587  0.00  0.00    +0.076 A 
ATOM      3  C   UNL     1       6.601  -1.890  22.880  0.00  0.00    +0.094 A 
ATOM      4  C   UNL     1       7.832  -2.305  23.370  0.00  0.00    +0.070 A 
ATOM      5  N   UNL     1       8.534  -1.120  23.532  0.00  0.00    -0.311 N 
ATOM      6  C   UNL     1       7.714  -0.074  23.133  0.00  0.00    +0.203 A 
ATOM      7  N   UNL     1       8.069   1.261  23.158  0.00  0.00    -0.252 N 
ATOM      8  H   UNL     1       8.969   1.515  23.522  0.00  0.00    +0.158 HD
ATOM      9  C   UNL     1       7.160   2.241  22.787  0.00  0.00    +0.251 C 
ATOM     10  O   UNL     1       6.009   2.075  22.397  0.00  0.00    -0.270 OA
ATOM     11  C   UNL     1       8.128  -3.664  23.574  0.00  0.00    +0.031 A 
ATOM     12  N   UNL     1       6.556  -0.540  22.733  0.00  0.00    -0.214 NA
ATOM     13  C   UNL     1       7.112  -4.594  23.294  0.00  0.00    +0.048 A 
ENDROOT
BRANCH   9  14
ATOM     14  C   UNL     1       7.624   3.660  22.883  0.00  0.00    +0.044 A 
ATOM     15  C   UNL     1       6.889   4.634  22.181  0.00  0.00    +0.013 A 
ATOM     16  C   UNL     1       7.289   5.971  22.165  0.00  0.00    +0.007 A 
ATOM     17  C   UNL     1       8.436   6.358  22.853  0.00  0.00    +0.084 A 
ATOM     18  C   UNL     1       9.173   5.395  23.556  0.00  0.00    +0.274 A 
ATOM     19  C   UNL     1       8.777   4.045  23.574  0.00  0.00    +0.097 A 
BRANCH  18  20
ATOM     20  N   UNL     1      10.387   5.798  24.277  0.00  0.00    +0.080 N 
ATOM     21  O   UNL     1      10.250   6.424  25.337  0.00  0.00    +0.041 OA
ATOM     22  O   UNL     1      11.477   5.479  23.781  0.00  0.00    -0.576 OA
ENDBRANCH  18  20
ENDBRANCH   9  14
BRANCH   1  23
ATOM     23  O   UNL     1       4.899  -5.136  22.511  0.00  0.00    -0.425 OA
BRANCH  23  24
ATOM     24  C   UNL     1       4.633  -6.068  23.517  0.00  0.00    +0.318 C 
ATOM     25  O   UNL     1       5.279  -7.087  23.729  0.00  0.00    -0.250 OA
BRANCH  24  27
ATOM     26  C   UNL     1       2.828  -6.875  25.043  0.00  0.00    +0.022 C 
ATOM     27  C   UNL     1       3.404  -5.643  24.325  0.00  0.00    +0.060 C 
ATOM     28  C   UNL     1       3.802  -4.606  25.386  0.00  0.00    +0.022 C 
ATOM     29  C   UNL     1       2.356  -5.065  23.372  0.00  0.00    +0.022 C 
ENDBRANCH  24  27
ENDBRANCH  23  24
ENDBRANCH   1  23
BRANCH   5  30
ATOM     30  C   UNL     1       9.920  -1.034  23.947  0.00  0.00    +0.127 C 
BRANCH  30  31
ATOM     31  C   UNL     1      10.187  -0.240  25.222  0.00  0.00    +0.049 C 
BRANCH  31  32
ATOM     32  C   UNL     1       9.125  -0.411  26.297  0.00  0.00    +0.157 C 
BRANCH  32  33
ATOM     33  O   UNL     1       8.361   0.787  26.376  0.00  0.00    -0.395 OA
ATOM     34  H   UNL     1       7.867   0.890  25.544  0.00  0.00    +0.209 HD
ENDBRANCH  32  33
ENDBRANCH  31  32
ENDBRANCH  30  31
ENDBRANCH   5  30
TORSDOF 9
ENDMDL
