MODEL 1
REMARK VINA RESULT:      -6.8      0.000      0.000
REMARK  Name = 
REMARK  2 active torsions:
REMARK  status: ('A' for Active; 'I' for Inactive)
REMARK    1  A    between atoms: N_3  and  C_4
REMARK    2  A    between atoms: C_4  and  C_5
REMARK                            x       y       z     vdW  Elec       q    Type
REMARK                         _______ _______ _______ _____ _____    ______ ____
ROOT
ATOM      1  O   UNL     1       7.857  -4.084  23.050  0.00  0.00    -0.267 OA
ATOM      2  C   UNL     1       7.027  -3.416  23.668  0.00  0.00    +0.263 A 
ATOM      3  C   UNL     1       7.016  -1.962  23.676  0.00  0.00    +0.076 A 
ATOM      4  C   UNL     1       7.893  -1.022  23.041  0.00  0.00    -0.023 A 
ATOM      5  C   UNL     1       9.065  -1.320  22.151  0.00  0.00    +0.037 C 
ATOM      6  C   UNL     1       9.485  -0.084  21.336  0.00  0.00    +0.005 C 
ATOM      7  C   UNL     1       9.571   1.171  22.217  0.00  0.00    +0.005 C 
ATOM      8  C   UNL     1       8.212   1.516  22.845  0.00  0.00    +0.043 C 
ATOM      9  C   UNL     1       7.539   0.279  23.359  0.00  0.00    -0.004 A 
ATOM     10  S   UNL     1       6.175   0.361  24.371  0.00  0.00    -0.073 S 
ATOM     11  C   UNL     1       6.016  -1.338  24.399  0.00  0.00    +0.116 A 
ATOM     12  N   UNL     1       5.005  -1.940  25.072  0.00  0.00    -0.230 NA
ATOM     13  C   UNL     1       5.047  -3.232  25.053  0.00  0.00    +0.203 A 
ATOM     14  N   UNL     1       6.017  -3.998  24.430  0.00  0.00    -0.291 N 
ENDROOT
BRANCH  14  15
ATOM     15  C   UNL     1       6.047  -5.433  24.648  0.00  0.00    +0.203 C 
BRANCH  15  16
ATOM     16  C   UNL     1       6.292  -5.761  26.069  0.00  0.00    +0.169 A 
ATOM     17  N   UNL     1       5.446  -6.514  26.833  0.00  0.00    -0.241 N 
ATOM     18  H   UNL     1       4.536  -6.906  26.614  0.00  0.00    +0.192 HD
ATOM     19  N   UNL     1       6.000  -6.741  28.031  0.00  0.00    -0.047 NA
ATOM     20  N   UNL     1       7.161  -6.103  28.005  0.00  0.00    -0.023 NA
ATOM     21  N   UNL     1       7.358  -5.486  26.793  0.00  0.00    -0.112 NA
ENDBRANCH  15  16
ENDBRANCH  14  15
TORSDOF 2
ENDMDL
MODEL 2
REMARK VINA RESULT:      -6.8      1.925      2.559
REMARK  Name = 
REMARK  2 active torsions:
REMARK  status: ('A' for Active; 'I' for Inactive)
REMARK    1  A    between atoms: N_3  and  C_4
REMARK    2  A    between atoms: C_4  and  C_5
REMARK                            x       y       z     vdW  Elec       q    Type
REMARK                         _______ _______ _______ _____ _____    ______ ____
ROOT
ATOM      1  O   UNL     1       5.900  -2.344  24.273  0.00  0.00    -0.267 OA
ATOM      2  C   UNL     1       7.077  -2.694  24.188  0.00  0.00    +0.263 A 
ATOM      3  C   UNL     1       8.120  -1.864  23.609  0.00  0.00    +0.076 A 
ATOM      4  C   UNL     1       8.051  -0.554  23.028  0.00  0.00    -0.023 A 
ATOM      5  C   UNL     1       6.842   0.327  22.900  0.00  0.00    +0.037 C 
ATOM      6  C   UNL     1       7.236   1.789  22.622  0.00  0.00    +0.005 C 
ATOM      7  C   UNL     1       8.301   1.888  21.520  0.00  0.00    +0.005 C 
ATOM      8  C   UNL     1       9.597   1.166  21.919  0.00  0.00    +0.043 C 
ATOM      9  C   UNL     1       9.290  -0.157  22.554  0.00  0.00    -0.004 A 
ATOM     10  S   UNL     1      10.502  -1.319  22.823  0.00  0.00    -0.073 S 
ATOM     11  C   UNL     1       9.405  -2.375  23.594  0.00  0.00    +0.116 A 
ATOM     12  N   UNL     1       9.812  -3.562  24.107  0.00  0.00    -0.230 NA
ATOM     13  C   UNL     1       8.861  -4.281  24.607  0.00  0.00    +0.203 A 
ATOM     14  N   UNL     1       7.520  -3.936  24.638  0.00  0.00    -0.291 N 
ENDROOT
BRANCH  14  15
ATOM     15  C   UNL     1       6.537  -4.918  25.058  0.00  0.00    +0.203 C 
BRANCH  15  16
ATOM     16  C   UNL     1       6.583  -5.140  26.520  0.00  0.00    +0.169 A 
ATOM     17  N   UNL     1       5.826  -4.444  27.419  0.00  0.00    -0.241 N 
ATOM     18  H   UNL     1       5.190  -3.665  27.279  0.00  0.00    +0.192 HD
ATOM     19  N   UNL     1       5.994  -4.957  28.645  0.00  0.00    -0.047 NA
ATOM     20  N   UNL     1       6.872  -5.939  28.495  0.00  0.00    -0.023 NA
ATOM     21  N   UNL     1       7.251  -6.065  27.179  0.00  0.00    -0.112 NA
ENDBRANCH  15  16
ENDBRANCH  14  15
TORSDOF 2
ENDMDL
MODEL 3
REMARK VINA RESULT:      -6.7      2.136      2.749
REMARK  Name = 
REMARK  2 active torsions:
REMARK  status: ('A' for Active; 'I' for Inactive)
REMARK    1  A    between atoms: N_3  and  C_4
REMARK    2  A    between atoms: C_4  and  C_5
REMARK                            x       y       z     vdW  Elec       q    Type
REMARK                         _______ _______ _______ _____ _____    ______ ____
ROOT
ATOM      1  O   UNL     1       5.904  -2.504  26.008  0.00  0.00    -0.267 OA
ATOM      2  C   UNL     1       6.842  -3.066  25.442  0.00  0.00    +0.263 A 
ATOM      3  C   UNL     1       7.957  -2.352  24.841  0.00  0.00    +0.076 A 
ATOM      4  C   UNL     1       8.218  -0.945  24.746  0.00  0.00    -0.023 A 
ATOM      5  C   UNL     1       7.387   0.179  25.296  0.00  0.00    +0.037 C 
ATOM      6  C   UNL     1       8.188   1.491  25.369  0.00  0.00    +0.005 C 
ATOM      7  C   UNL     1       8.959   1.756  24.068  0.00  0.00    +0.005 C 
ATOM      8  C   UNL     1       9.982   0.646  23.781  0.00  0.00    +0.043 C 
ATOM      9  C   UNL     1       9.385  -0.703  24.041  0.00  0.00    -0.004 A 
ATOM     10  S   UNL     1      10.153  -2.132  23.531  0.00  0.00    -0.073 S 
ATOM     11  C   UNL     1       8.953  -3.108  24.252  0.00  0.00    +0.116 A 
ATOM     12  N   UNL     1       9.028  -4.461  24.213  0.00  0.00    -0.230 NA
ATOM     13  C   UNL     1       8.020  -5.068  24.748  0.00  0.00    +0.203 A 
ATOM     14  N   UNL     1       6.919  -4.451  25.318  0.00  0.00    -0.291 N 
ENDROOT
BRANCH  14  15
ATOM     15  C   UNL     1       5.773  -5.251  25.711  0.00  0.00    +0.203 C 
BRANCH  15  16
ATOM     16  C   UNL     1       5.996  -5.914  27.014  0.00  0.00    +0.169 A 
ATOM     17  N   UNL     1       5.301  -7.012  27.437  0.00  0.00    -0.241 N 
ATOM     18  H   UNL     1       4.524  -7.504  27.008  0.00  0.00    +0.192 HD
ATOM     19  N   UNL     1       5.814  -7.453  28.593  0.00  0.00    -0.047 NA
ATOM     20  N   UNL     1       6.793  -6.609  28.885  0.00  0.00    -0.023 NA
ATOM     21  N   UNL     1       6.918  -5.644  27.915  0.00  0.00    -0.112 NA
ENDBRANCH  15  16
ENDBRANCH  14  15
TORSDOF 2
ENDMDL
MODEL 4
REMARK VINA RESULT:      -6.7      2.348      2.940
REMARK  Name = 
REMARK  2 active torsions:
REMARK  status: ('A' for Active; 'I' for Inactive)
REMARK    1  A    between atoms: N_3  and  C_4
REMARK    2  A    between atoms: C_4  and  C_5
REMARK                            x       y       z     vdW  Elec       q    Type
REMARK                         _______ _______ _______ _____ _____    ______ ____
ROOT
ATOM      1  O   UNL     1       7.929  -3.014  21.833  0.00  0.00    -0.267 OA
ATOM      2  C   UNL     1       7.878  -2.965  23.062  0.00  0.00    +0.263 A 
ATOM      3  C   UNL     1       8.353  -1.832  23.838  0.00  0.00    +0.076 A 
ATOM      4  C   UNL     1       8.962  -0.604  23.415  0.00  0.00    -0.023 A 
ATOM      5  C   UNL     1       9.238  -0.157  22.008  0.00  0.00    +0.037 C 
ATOM      6  C   UNL     1       9.496   1.358  21.938  0.00  0.00    +0.005 C 
ATOM      7  C   UNL     1      10.477   1.816  23.027  0.00  0.00    +0.005 C 
ATOM      8  C   UNL     1       9.926   1.543  24.435  0.00  0.00    +0.043 C 
ATOM      9  C   UNL     1       9.305   0.180  24.504  0.00  0.00    -0.004 A 
ATOM     10  S   UNL     1       8.883  -0.534  25.988  0.00  0.00    -0.073 S 
ATOM     11  C   UNL     1       8.219  -1.901  25.213  0.00  0.00    +0.116 A 
ATOM     12  N   UNL     1       7.643  -2.903  25.922  0.00  0.00    -0.230 NA
ATOM     13  C   UNL     1       7.238  -3.900  25.205  0.00  0.00    +0.203 A 
ATOM     14  N   UNL     1       7.360  -4.006  23.830  0.00  0.00    -0.291 N 
ENDROOT
BRANCH  14  15
ATOM     15  C   UNL     1       7.033  -5.260  23.176  0.00  0.00    +0.203 C 
BRANCH  15  16
ATOM     16  C   UNL     1       5.570  -5.455  23.077  0.00  0.00    +0.169 A 
ATOM     17  N   UNL     1       4.922  -6.578  23.510  0.00  0.00    -0.241 N 
ATOM     18  H   UNL     1       5.290  -7.443  23.890  0.00  0.00    +0.192 HD
ATOM     19  N   UNL     1       3.598  -6.404  23.403  0.00  0.00    -0.047 NA
ATOM     20  N   UNL     1       3.445  -5.196  22.878  0.00  0.00    -0.023 NA
ATOM     21  N   UNL     1       4.662  -4.593  22.667  0.00  0.00    -0.112 NA
ENDBRANCH  15  16
ENDBRANCH  14  15
TORSDOF 2
ENDMDL
MODEL 5
REMARK VINA RESULT:      -6.5      4.131      6.948
REMARK  Name = 
REMARK  2 active torsions:
REMARK  status: ('A' for Active; 'I' for Inactive)
REMARK    1  A    between atoms: N_3  and  C_4
REMARK    2  A    between atoms: C_4  and  C_5
REMARK                            x       y       z     vdW  Elec       q    Type
REMARK                         _______ _______ _______ _____ _____    ______ ____
ROOT
ATOM      1  O   UNL     1       9.182  -0.874  26.047  0.00  0.00    -0.267 OA
ATOM      2  C   UNL     1       9.119  -1.226  24.869  0.00  0.00    +0.263 A 
ATOM      3  C   UNL     1       8.340  -2.367  24.416  0.00  0.00    +0.076 A 
ATOM      4  C   UNL     1       7.534  -3.296  25.154  0.00  0.00    -0.023 A 
ATOM      5  C   UNL     1       7.263  -3.299  26.631  0.00  0.00    +0.037 C 
ATOM      6  C   UNL     1       6.041  -4.168  26.978  0.00  0.00    +0.005 C 
ATOM      7  C   UNL     1       6.096  -5.530  26.269  0.00  0.00    +0.005 C 
ATOM      8  C   UNL     1       6.086  -5.372  24.741  0.00  0.00    +0.043 C 
ATOM      9  C   UNL     1       7.004  -4.264  24.318  0.00  0.00    -0.004 A 
ATOM     10  S   UNL     1       7.444  -4.044  22.691  0.00  0.00    -0.073 S 
ATOM     11  C   UNL     1       8.343  -2.641  23.060  0.00  0.00    +0.116 A 
ATOM     12  N   UNL     1       8.965  -1.926  22.090  0.00  0.00    -0.230 NA
ATOM     13  C   UNL     1       9.656  -0.924  22.524  0.00  0.00    +0.203 A 
ATOM     14  N   UNL     1       9.802  -0.561  23.853  0.00  0.00    -0.291 N 
ENDROOT
BRANCH  14  15
ATOM     15  C   UNL     1      10.758   0.470  24.213  0.00  0.00    +0.203 C 
BRANCH  15  16
ATOM     16  C   UNL     1      10.152   1.818  24.147  0.00  0.00    +0.169 A 
ATOM     17  N   UNL     1       9.108   2.223  24.929  0.00  0.00    -0.241 N 
ATOM     18  H   UNL     1       8.552   1.705  25.602  0.00  0.00    +0.192 HD
ATOM     19  N   UNL     1       8.871   3.525  24.727  0.00  0.00    -0.047 NA
ATOM     20  N   UNL     1       9.745   3.901  23.805  0.00  0.00    -0.023 NA
ATOM     21  N   UNL     1      10.548   2.850  23.430  0.00  0.00    -0.112 NA
ENDBRANCH  15  16
ENDBRANCH  14  15
TORSDOF 2
ENDMDL
MODEL 6
REMARK VINA RESULT:      -6.5      2.397      3.349
REMARK  Name = 
REMARK  2 active torsions:
REMARK  status: ('A' for Active; 'I' for Inactive)
REMARK    1  A    between atoms: N_3  and  C_4
REMARK    2  A    between atoms: C_4  and  C_5
REMARK                            x       y       z     vdW  Elec       q    Type
REMARK                         _______ _______ _______ _____ _____    ______ ____
ROOT
ATOM      1  O   UNL     1       5.733  -1.906  24.559  0.00  0.00    -0.267 OA
ATOM      2  C   UNL     1       6.842  -2.418  24.406  0.00  0.00    +0.263 A 
ATOM      3  C   UNL     1       7.943  -1.756  23.726  0.00  0.00    +0.076 A 
ATOM      4  C   UNL     1       8.010  -0.466  23.104  0.00  0.00    -0.023 A 
ATOM      5  C   UNL     1       6.927   0.571  23.027  0.00  0.00    +0.037 C 
ATOM      6  C   UNL     1       7.494   1.956  22.670  0.00  0.00    +0.005 C 
ATOM      7  C   UNL     1       8.478   1.877  21.493  0.00  0.00    +0.005 C 
ATOM      8  C   UNL     1       9.689   0.994  21.827  0.00  0.00    +0.043 C 
ATOM      9  C   UNL     1       9.253  -0.257  22.530  0.00  0.00    -0.004 A 
ATOM     10  S   UNL     1      10.312  -1.567  22.757  0.00  0.00    -0.073 S 
ATOM     11  C   UNL     1       9.141  -2.440  23.640  0.00  0.00    +0.116 A 
ATOM     12  N   UNL     1       9.420  -3.658  24.167  0.00  0.00    -0.230 NA
ATOM     13  C   UNL     1       8.420  -4.225  24.757  0.00  0.00    +0.203 A 
ATOM     14  N   UNL     1       7.144  -3.697  24.869  0.00  0.00    -0.291 N 
ENDROOT
BRANCH  14  15
ATOM     15  C   UNL     1       6.070  -4.521  25.392  0.00  0.00    +0.203 C 
BRANCH  15  16
ATOM     16  C   UNL     1       5.160  -4.973  24.316  0.00  0.00    +0.169 A 
ATOM     17  N   UNL     1       3.896  -4.488  24.136  0.00  0.00    -0.241 N 
ATOM     18  H   UNL     1       3.359  -3.831  24.692  0.00  0.00    +0.192 HD
ATOM     19  N   UNL     1       3.374  -4.996  23.012  0.00  0.00    -0.047 NA
ATOM     20  N   UNL     1       4.303  -5.808  22.531  0.00  0.00    -0.023 NA
ATOM     21  N   UNL     1       5.421  -5.808  23.331  0.00  0.00    -0.112 NA
ENDBRANCH  15  16
ENDBRANCH  14  15
TORSDOF 2
ENDMDL
MODEL 7
REMARK VINA RESULT:      -6.4      3.536      6.588
REMARK  Name = 
REMARK  2 active torsions:
REMARK  status: ('A' for Active; 'I' for Inactive)
REMARK    1  A    between atoms: N_3  and  C_4
REMARK    2  A    between atoms: C_4  and  C_5
REMARK                            x       y       z     vdW  Elec       q    Type
REMARK                         _______ _______ _______ _____ _____    ______ ____
ROOT
ATOM      1  O   UNL     1       9.161  -1.957  21.884  0.00  0.00    -0.267 OA
ATOM      2  C   UNL     1       9.009  -1.801  23.095  0.00  0.00    +0.263 A 
ATOM      3  C   UNL     1       8.191  -2.677  23.918  0.00  0.00    +0.076 A 
ATOM      4  C   UNL     1       7.412  -3.827  23.563  0.00  0.00    -0.023 A 
ATOM      5  C   UNL     1       7.271  -4.453  22.205  0.00  0.00    +0.037 C 
ATOM      6  C   UNL     1       6.715  -5.885  22.298  0.00  0.00    +0.005 C 
ATOM      7  C   UNL     1       5.502  -5.960  23.237  0.00  0.00    +0.005 C 
ATOM      8  C   UNL     1       5.872  -5.553  24.671  0.00  0.00    +0.043 C 
ATOM      9  C   UNL     1       6.747  -4.335  24.666  0.00  0.00    -0.004 A 
ATOM     10  S   UNL     1       7.072  -3.465  26.090  0.00  0.00    -0.073 S 
ATOM     11  C   UNL     1       8.121  -2.397  25.271  0.00  0.00    +0.116 A 
ATOM     12  N   UNL     1       8.776  -1.410  25.929  0.00  0.00    -0.230 NA
ATOM     13  C   UNL     1       9.488  -0.643  25.171  0.00  0.00    +0.203 A 
ATOM     14  N   UNL     1       9.607  -0.756  23.795  0.00  0.00    -0.291 N 
ENDROOT
BRANCH  14  15
ATOM     15  C   UNL     1      10.288   0.285  23.048  0.00  0.00    +0.203 C 
BRANCH  15  16
ATOM     16  C   UNL     1       9.346   1.334  22.597  0.00  0.00    +0.169 A 
ATOM     17  N   UNL     1       8.696   1.307  21.395  0.00  0.00    -0.241 N 
ATOM     18  H   UNL     1       8.774   0.656  20.621  0.00  0.00    +0.192 HD
ATOM     19  N   UNL     1       7.822   2.320  21.331  0.00  0.00    -0.047 NA
ATOM     20  N   UNL     1       7.964   2.976  22.474  0.00  0.00    -0.023 NA
ATOM     21  N   UNL     1       8.910   2.378  23.272  0.00  0.00    -0.112 NA
ENDBRANCH  15  16
ENDBRANCH  14  15
TORSDOF 2
ENDMDL
MODEL 8
REMARK VINA RESULT:      -6.3      3.374      6.825
REMARK  Name = 
REMARK  2 active torsions:
REMARK  status: ('A' for Active; 'I' for Inactive)
REMARK    1  A    between atoms: N_3  and  C_4
REMARK    2  A    between atoms: C_4  and  C_5
REMARK                            x       y       z     vdW  Elec       q    Type
REMARK                         _______ _______ _______ _____ _____    ______ ____
ROOT
ATOM      1  O   UNL     1       8.705  -3.177  25.918  0.00  0.00    -0.267 OA
ATOM      2  C   UNL     1       8.120  -3.563  24.907  0.00  0.00    +0.263 A 
ATOM      3  C   UNL     1       7.010  -4.503  24.934  0.00  0.00    +0.076 A 
ATOM      4  C   UNL     1       6.383  -5.170  26.038  0.00  0.00    -0.023 A 
ATOM      5  C   UNL     1       6.711  -5.031  27.497  0.00  0.00    +0.037 C 
ATOM      6  C   UNL     1       5.570  -5.559  28.385  0.00  0.00    +0.005 C 
ATOM      7  C   UNL     1       5.067  -6.928  27.903  0.00  0.00    +0.005 C 
ATOM      8  C   UNL     1       4.497  -6.851  26.479  0.00  0.00    +0.043 C 
ATOM      9  C   UNL     1       5.384  -6.022  25.599  0.00  0.00    -0.004 A 
ATOM     10  S   UNL     1       5.194  -5.999  23.910  0.00  0.00    -0.073 S 
ATOM     11  C   UNL     1       6.432  -4.839  23.724  0.00  0.00    +0.116 A 
ATOM     12  N   UNL     1       6.760  -4.347  22.504  0.00  0.00    -0.230 NA
ATOM     13  C   UNL     1       7.754  -3.522  22.511  0.00  0.00    +0.203 A 
ATOM     14  N   UNL     1       8.475  -3.137  23.629  0.00  0.00    -0.291 N 
ENDROOT
BRANCH  14  15
ATOM     15  C   UNL     1       9.684  -2.352  23.467  0.00  0.00    +0.203 C 
BRANCH  15  16
ATOM     16  C   UNL     1       9.404  -1.051  22.820  0.00  0.00    +0.169 A 
ATOM     17  N   UNL     1       9.844  -0.711  21.572  0.00  0.00    -0.241 N 
ATOM     18  H   UNL     1      10.448  -1.213  20.930  0.00  0.00    +0.192 HD
ATOM     19  N   UNL     1       9.325   0.471  21.216  0.00  0.00    -0.047 NA
ATOM     20  N   UNL     1       8.600   0.861  22.255  0.00  0.00    -0.023 NA
ATOM     21  N   UNL     1       8.640  -0.073  23.263  0.00  0.00    -0.112 NA
ENDBRANCH  15  16
ENDBRANCH  14  15
TORSDOF 2
ENDMDL
MODEL 9
REMARK VINA RESULT:      -6.3      3.441      4.727
REMARK  Name = 
REMARK  2 active torsions:
REMARK  status: ('A' for Active; 'I' for Inactive)
REMARK    1  A    between atoms: N_3  and  C_4
REMARK    2  A    between atoms: C_4  and  C_5
REMARK                            x       y       z     vdW  Elec       q    Type
REMARK                         _______ _______ _______ _____ _____    ______ ____
ROOT
ATOM      1  O   UNL     1       7.430  -1.044  25.142  0.00  0.00    -0.267 OA
ATOM      2  C   UNL     1       8.228  -0.905  24.216  0.00  0.00    +0.263 A 
ATOM      3  C   UNL     1       8.737   0.388  23.786  0.00  0.00    +0.076 A 
ATOM      4  C   UNL     1       8.456   1.707  24.273  0.00  0.00    -0.023 A 
ATOM      5  C   UNL     1       7.555   2.089  25.412  0.00  0.00    +0.037 C 
ATOM      6  C   UNL     1       7.836   3.522  25.899  0.00  0.00    +0.005 C 
ATOM      7  C   UNL     1       7.943   4.506  24.725  0.00  0.00    +0.005 C 
ATOM      8  C   UNL     1       9.102   4.141  23.785  0.00  0.00    +0.043 C 
ATOM      9  C   UNL     1       9.132   2.663  23.534  0.00  0.00    -0.004 A 
ATOM     10  S   UNL     1      10.095   1.987  22.307  0.00  0.00    -0.073 S 
ATOM     11  C   UNL     1       9.644   0.400  22.742  0.00  0.00    +0.116 A 
ATOM     12  N   UNL     1      10.151  -0.679  22.097  0.00  0.00    -0.230 NA
ATOM     13  C   UNL     1       9.674  -1.813  22.494  0.00  0.00    +0.203 A 
ATOM     14  N   UNL     1       8.717  -1.983  23.481  0.00  0.00    -0.291 N 
ENDROOT
BRANCH  14  15
ATOM     15  C   UNL     1       8.134  -3.294  23.696  0.00  0.00    +0.203 C 
BRANCH  15  16
ATOM     16  C   UNL     1       7.165  -3.638  22.632  0.00  0.00    +0.169 A 
ATOM     17  N   UNL     1       7.135  -4.845  21.992  0.00  0.00    -0.241 N 
ATOM     18  H   UNL     1       7.754  -5.645  22.068  0.00  0.00    +0.192 HD
ATOM     19  N   UNL     1       6.073  -4.898  21.177  0.00  0.00    -0.047 NA
ATOM     20  N   UNL     1       5.480  -3.718  21.299  0.00  0.00    -0.023 NA
ATOM     21  N   UNL     1       6.148  -2.922  22.198  0.00  0.00    -0.112 NA
ENDBRANCH  15  16
ENDBRANCH  14  15
TORSDOF 2
ENDMDL
