MODEL 1
REMARK VINA RESULT:      -7.0      0.000      0.000
REMARK  Name = 
REMARK  6 active torsions:
REMARK  status: ('A' for Active; 'I' for Inactive)
REMARK    1  A    between atoms: O_1  and  C_2
REMARK    2  A    between atoms: C_5  and  C_6
REMARK    3  A    between atoms: C_7  and  C_8
REMARK    4  A    between atoms: C_8  and  C_10
REMARK    5  A    between atoms: C_13  and  O_14
REMARK    6  A    between atoms: C_16  and  O_17
REMARK                            x       y       z     vdW  Elec       q    Type
REMARK                         _______ _______ _______ _____ _____    ______ ____
ROOT
ATOM      1  C   UNL     1       9.031  -4.151  24.408  0.00  0.00    +0.190 C 
ATOM      2  O   UNL     1       9.898  -4.889  24.872  0.00  0.00    -0.287 OA
ENDROOT
BRANCH   1   3
ATOM      3  C   UNL     1       7.735  -4.722  23.938  0.00  0.00    +0.063 A 
ATOM      4  C   UNL     1       6.758  -5.261  24.789  0.00  0.00    +0.131 A 
ATOM      5  C   UNL     1       5.547  -5.727  24.271  0.00  0.00    +0.091 A 
ATOM      6  C   UNL     1       5.305  -5.646  22.905  0.00  0.00    +0.120 A 
ATOM      7  C   UNL     1       6.256  -5.121  22.040  0.00  0.00    +0.046 A 
ATOM      8  C   UNL     1       7.470  -4.656  22.559  0.00  0.00    +0.019 A 
BRANCH   4   9
ATOM      9  O   UNL     1       6.950  -5.309  26.143  0.00  0.00    -0.506 OA
ATOM     10  H   UNL     1       6.105  -5.515  26.579  0.00  0.00    +0.292 HD
ENDBRANCH   4   9
BRANCH   6  11
ATOM     11  O   UNL     1       4.095  -6.086  22.452  0.00  0.00    -0.507 OA
ATOM     12  H   UNL     1       3.513  -6.246  23.215  0.00  0.00    +0.292 HD
ENDBRANCH   6  11
ENDBRANCH   1   3
BRANCH   1  14
ATOM     13  C   UNL     1       9.953  -2.100  23.395  0.00  0.00    +0.012 C 
ATOM     14  C   UNL     1       9.211  -2.677  24.355  0.00  0.00    +0.052 C 
BRANCH  13  18
ATOM     15  C   UNL     1      10.309   2.139  22.967  0.00  0.00    +0.117 A 
ATOM     16  C   UNL     1      10.629   1.549  24.181  0.00  0.00    +0.046 A 
ATOM     17  C   UNL     1      10.517   0.165  24.327  0.00  0.00    +0.011 A 
ATOM     18  C   UNL     1      10.108  -0.643  23.255  0.00  0.00    -0.025 A 
ATOM     19  C   UNL     1       9.780  -0.024  22.040  0.00  0.00    +0.011 A 
ATOM     20  C   UNL     1       9.885   1.365  21.891  0.00  0.00    +0.046 A 
BRANCH  15  21
ATOM     21  O   UNL     1      10.417   3.494  22.875  0.00  0.00    -0.507 OA
ATOM     22  H   UNL     1       9.539   3.885  23.013  0.00  0.00    +0.292 HD
ENDBRANCH  15  21
ENDBRANCH  13  18
ENDBRANCH   1  14
TORSDOF 6
ENDMDL
MODEL 2
REMARK VINA RESULT:      -7.0      1.078      1.280
REMARK  Name = 
REMARK  6 active torsions:
REMARK  status: ('A' for Active; 'I' for Inactive)
REMARK    1  A    between atoms: O_1  and  C_2
REMARK    2  A    between atoms: C_5  and  C_6
REMARK    3  A    between atoms: C_7  and  C_8
REMARK    4  A    between atoms: C_8  and  C_10
REMARK    5  A    between atoms: C_13  and  O_14
REMARK    6  A    between atoms: C_16  and  O_17
REMARK                            x       y       z     vdW  Elec       q    Type
REMARK                         _______ _______ _______ _____ _____    ______ ____
ROOT
ATOM      1  C   UNL     1       9.145  -4.194  24.791  0.00  0.00    +0.190 C 
ATOM      2  O   UNL     1      10.141  -4.912  24.848  0.00  0.00    -0.287 OA
ENDROOT
BRANCH   1   3
ATOM      3  C   UNL     1       7.786  -4.785  24.970  0.00  0.00    +0.063 A 
ATOM      4  C   UNL     1       7.352  -5.417  26.146  0.00  0.00    +0.131 A 
ATOM      5  C   UNL     1       6.044  -5.897  26.250  0.00  0.00    +0.091 A 
ATOM      6  C   UNL     1       5.164  -5.736  25.187  0.00  0.00    +0.120 A 
ATOM      7  C   UNL     1       5.568  -5.117  24.010  0.00  0.00    +0.046 A 
ATOM      8  C   UNL     1       6.879  -4.639  23.906  0.00  0.00    +0.019 A 
BRANCH   4   9
ATOM      9  O   UNL     1       8.183  -5.547  27.225  0.00  0.00    -0.506 OA
ATOM     10  H   UNL     1       8.217  -4.701  27.705  0.00  0.00    +0.292 HD
ENDBRANCH   4   9
BRANCH   6  11
ATOM     11  O   UNL     1       3.889  -6.193  25.349  0.00  0.00    -0.507 OA
ATOM     12  H   UNL     1       3.646  -6.731  24.576  0.00  0.00    +0.292 HD
ENDBRANCH   6  11
ENDBRANCH   1   3
BRANCH   1  14
ATOM     13  C   UNL     1      10.058  -2.198  23.667  0.00  0.00    +0.012 C 
ATOM     14  C   UNL     1       9.254  -2.724  24.606  0.00  0.00    +0.052 C 
BRANCH  13  18
ATOM     15  C   UNL     1      10.236   1.997  22.862  0.00  0.00    +0.117 A 
ATOM     16  C   UNL     1      10.637   1.526  24.104  0.00  0.00    +0.046 A 
ATOM     17  C   UNL     1      10.584   0.156  24.373  0.00  0.00    +0.011 A 
ATOM     18  C   UNL     1      10.152  -0.754  23.396  0.00  0.00    -0.025 A 
ATOM     19  C   UNL     1       9.742  -0.254  22.152  0.00  0.00    +0.011 A 
ATOM     20  C   UNL     1       9.788   1.120  21.880  0.00  0.00    +0.046 A 
BRANCH  15  21
ATOM     21  O   UNL     1      10.289   3.342  22.651  0.00  0.00    -0.507 OA
ATOM     22  H   UNL     1      10.329   3.505  21.694  0.00  0.00    +0.292 HD
ENDBRANCH  15  21
ENDBRANCH  13  18
ENDBRANCH   1  14
TORSDOF 6
ENDMDL
MODEL 3
REMARK VINA RESULT:      -6.7      1.204      1.562
REMARK  Name = 
REMARK  6 active torsions:
REMARK  status: ('A' for Active; 'I' for Inactive)
REMARK    1  A    between atoms: O_1  and  C_2
REMARK    2  A    between atoms: C_5  and  C_6
REMARK    3  A    between atoms: C_7  and  C_8
REMARK    4  A    between atoms: C_8  and  C_10
REMARK    5  A    between atoms: C_13  and  O_14
REMARK    6  A    between atoms: C_16  and  O_17
REMARK                            x       y       z     vdW  Elec       q    Type
REMARK                         _______ _______ _______ _____ _____    ______ ____
ROOT
ATOM      1  C   UNL     1       8.477  -4.222  24.110  0.00  0.00    +0.190 C 
ATOM      2  O   UNL     1       9.193  -5.164  24.443  0.00  0.00    -0.287 OA
ENDROOT
BRANCH   1   3
ATOM      3  C   UNL     1       7.057  -4.463  23.719  0.00  0.00    +0.063 A 
ATOM      4  C   UNL     1       6.654  -5.421  22.775  0.00  0.00    +0.131 A 
ATOM      5  C   UNL     1       5.297  -5.622  22.505  0.00  0.00    +0.091 A 
ATOM      6  C   UNL     1       4.342  -4.876  23.185  0.00  0.00    +0.120 A 
ATOM      7  C   UNL     1       4.714  -3.920  24.122  0.00  0.00    +0.046 A 
ATOM      8  C   UNL     1       6.073  -3.718  24.390  0.00  0.00    +0.019 A 
BRANCH   4   9
ATOM      9  O   UNL     1       7.570  -6.202  22.125  0.00  0.00    -0.506 OA
ATOM     10  H   UNL     1       8.335  -5.655  21.873  0.00  0.00    +0.292 HD
ENDBRANCH   4   9
BRANCH   6  11
ATOM     11  O   UNL     1       3.030  -5.131  22.909  0.00  0.00    -0.507 OA
ATOM     12  H   UNL     1       2.876  -4.990  21.959  0.00  0.00    +0.292 HD
ENDBRANCH   6  11
ENDBRANCH   1   3
BRANCH   1  14
ATOM     13  C   UNL     1       9.220  -2.145  23.007  0.00  0.00    +0.012 C 
ATOM     14  C   UNL     1       8.970  -2.820  24.141  0.00  0.00    +0.052 C 
BRANCH  13  18
ATOM     15  C   UNL     1      10.358   1.975  22.909  0.00  0.00    +0.117 A 
ATOM     16  C   UNL     1      10.599   1.231  24.054  0.00  0.00    +0.046 A 
ATOM     17  C   UNL     1      10.232  -0.117  24.092  0.00  0.00    +0.011 A 
ATOM     18  C   UNL     1       9.643  -0.736  22.979  0.00  0.00    -0.025 A 
ATOM     19  C   UNL     1       9.400   0.039  21.836  0.00  0.00    +0.011 A 
ATOM     20  C   UNL     1       9.760   1.393  21.796  0.00  0.00    +0.046 A 
BRANCH  15  21
ATOM     21  O   UNL     1      10.717   3.289  22.923  0.00  0.00    -0.507 OA
ATOM     22  H   UNL     1      10.756   3.590  23.845  0.00  0.00    +0.292 HD
ENDBRANCH  15  21
ENDBRANCH  13  18
ENDBRANCH   1  14
TORSDOF 6
ENDMDL
MODEL 4
REMARK VINA RESULT:      -6.6      1.656      2.927
REMARK  Name = 
REMARK  6 active torsions:
REMARK  status: ('A' for Active; 'I' for Inactive)
REMARK    1  A    between atoms: O_1  and  C_2
REMARK    2  A    between atoms: C_5  and  C_6
REMARK    3  A    between atoms: C_7  and  C_8
REMARK    4  A    between atoms: C_8  and  C_10
REMARK    5  A    between atoms: C_13  and  O_14
REMARK    6  A    between atoms: C_16  and  O_17
REMARK                            x       y       z     vdW  Elec       q    Type
REMARK                         _______ _______ _______ _____ _____    ______ ____
ROOT
ATOM      1  C   UNL     1       7.656  -3.665  22.796  0.00  0.00    +0.190 C 
ATOM      2  O   UNL     1       7.149  -4.246  21.839  0.00  0.00    -0.287 OA
ENDROOT
BRANCH   1   3
ATOM      3  C   UNL     1       7.571  -4.260  24.162  0.00  0.00    +0.063 A 
ATOM      4  C   UNL     1       6.393  -4.783  24.720  0.00  0.00    +0.131 A 
ATOM      5  C   UNL     1       6.411  -5.372  25.987  0.00  0.00    +0.091 A 
ATOM      6  C   UNL     1       7.605  -5.450  26.694  0.00  0.00    +0.120 A 
ATOM      7  C   UNL     1       8.784  -4.938  26.166  0.00  0.00    +0.046 A 
ATOM      8  C   UNL     1       8.765  -4.346  24.898  0.00  0.00    +0.019 A 
BRANCH   4   9
ATOM      9  O   UNL     1       5.214  -4.761  24.027  0.00  0.00    -0.506 OA
ATOM     10  H   UNL     1       4.747  -3.929  24.217  0.00  0.00    +0.292 HD
ENDBRANCH   4   9
BRANCH   6  11
ATOM     11  O   UNL     1       7.577  -6.062  27.913  0.00  0.00    -0.507 OA
ATOM     12  H   UNL     1       8.377  -5.814  28.408  0.00  0.00    +0.292 HD
ENDBRANCH   6  11
ENDBRANCH   1   3
BRANCH   1  14
ATOM     13  C   UNL     1       8.016  -1.263  23.222  0.00  0.00    +0.012 C 
ATOM     14  C   UNL     1       8.415  -2.399  22.626  0.00  0.00    +0.052 C 
BRANCH  13  18
ATOM     15  C   UNL     1      10.264   2.370  23.047  0.00  0.00    +0.117 A 
ATOM     16  C   UNL     1       9.969   1.696  21.871  0.00  0.00    +0.046 A 
ATOM     17  C   UNL     1       9.233   0.510  21.920  0.00  0.00    +0.011 A 
ATOM     18  C   UNL     1       8.766   0.001  23.142  0.00  0.00    -0.025 A 
ATOM     19  C   UNL     1       9.085   0.693  24.318  0.00  0.00    +0.011 A 
ATOM     20  C   UNL     1       9.829   1.880  24.274  0.00  0.00    +0.046 A 
BRANCH  15  21
ATOM     21  O   UNL     1      10.999   3.513  22.952  0.00  0.00    -0.507 OA
ATOM     22  H   UNL     1      11.304   3.610  22.035  0.00  0.00    +0.292 HD
ENDBRANCH  15  21
ENDBRANCH  13  18
ENDBRANCH   1  14
TORSDOF 6
ENDMDL
MODEL 5
REMARK VINA RESULT:      -6.5      1.243      2.129
REMARK  Name = 
REMARK  6 active torsions:
REMARK  status: ('A' for Active; 'I' for Inactive)
REMARK    1  A    between atoms: O_1  and  C_2
REMARK    2  A    between atoms: C_5  and  C_6
REMARK    3  A    between atoms: C_7  and  C_8
REMARK    4  A    between atoms: C_8  and  C_10
REMARK    5  A    between atoms: C_13  and  O_14
REMARK    6  A    between atoms: C_16  and  O_17
REMARK                            x       y       z     vdW  Elec       q    Type
REMARK                         _______ _______ _______ _____ _____    ______ ____
ROOT
ATOM      1  C   UNL     1       9.204  -4.205  24.802  0.00  0.00    +0.190 C 
ATOM      2  O   UNL     1      10.179  -4.949  24.871  0.00  0.00    -0.287 OA
ENDROOT
BRANCH   1   3
ATOM      3  C   UNL     1       7.825  -4.768  24.900  0.00  0.00    +0.063 A 
ATOM      4  C   UNL     1       6.980  -4.973  23.798  0.00  0.00    +0.131 A 
ATOM      5  C   UNL     1       5.721  -5.557  23.969  0.00  0.00    +0.091 A 
ATOM      6  C   UNL     1       5.310  -5.948  25.238  0.00  0.00    +0.120 A 
ATOM      7  C   UNL     1       6.126  -5.754  26.346  0.00  0.00    +0.046 A 
ATOM      8  C   UNL     1       7.385  -5.167  26.174  0.00  0.00    +0.019 A 
BRANCH   4   9
ATOM      9  O   UNL     1       7.377  -4.641  22.531  0.00  0.00    -0.506 OA
ATOM     10  H   UNL     1       7.003  -3.774  22.296  0.00  0.00    +0.292 HD
ENDBRANCH   4   9
BRANCH   6  11
ATOM     11  O   UNL     1       4.087  -6.541  25.349  0.00  0.00    -0.507 OA
ATOM     12  H   UNL     1       3.410  -5.932  25.007  0.00  0.00    +0.292 HD
ENDBRANCH   6  11
ENDBRANCH   1   3
BRANCH   1  14
ATOM     13  C   UNL     1       9.843  -2.171  23.562  0.00  0.00    +0.012 C 
ATOM     14  C   UNL     1       9.355  -2.732  24.681  0.00  0.00    +0.052 C 
BRANCH  13  18
ATOM     15  C   UNL     1      10.245   2.051  23.022  0.00  0.00    +0.117 A 
ATOM     16  C   UNL     1       9.953   1.250  21.927  0.00  0.00    +0.046 A 
ATOM     17  C   UNL     1       9.817  -0.130  22.096  0.00  0.00    +0.011 A 
ATOM     18  C   UNL     1       9.950  -0.717  23.364  0.00  0.00    -0.025 A 
ATOM     19  C   UNL     1      10.255   0.111  24.455  0.00  0.00    +0.011 A 
ATOM     20  C   UNL     1      10.398   1.495  24.287  0.00  0.00    +0.046 A 
BRANCH  15  21
ATOM     21  O   UNL     1      10.384   3.389  22.806  0.00  0.00    -0.507 OA
ATOM     22  H   UNL     1      10.602   3.531  21.871  0.00  0.00    +0.292 HD
ENDBRANCH  15  21
ENDBRANCH  13  18
ENDBRANCH   1  14
TORSDOF 6
ENDMDL
MODEL 6
REMARK VINA RESULT:      -6.4      1.698      7.277
REMARK  Name = 
REMARK  6 active torsions:
REMARK  status: ('A' for Active; 'I' for Inactive)
REMARK    1  A    between atoms: O_1  and  C_2
REMARK    2  A    between atoms: C_5  and  C_6
REMARK    3  A    between atoms: C_7  and  C_8
REMARK    4  A    between atoms: C_8  and  C_10
REMARK    5  A    between atoms: C_13  and  O_14
REMARK    6  A    between atoms: C_16  and  O_17
REMARK                            x       y       z     vdW  Elec       q    Type
REMARK                         _______ _______ _______ _____ _____    ______ ____
ROOT
ATOM      1  C   UNL     1       9.755  -1.509  22.621  0.00  0.00    +0.190 C 
ATOM      2  O   UNL     1      10.921  -1.874  22.491  0.00  0.00    -0.287 OA
ENDROOT
BRANCH   1   3
ATOM      3  C   UNL     1       9.438  -0.056  22.759  0.00  0.00    +0.063 A 
ATOM      4  C   UNL     1       9.821   0.731  23.857  0.00  0.00    +0.131 A 
ATOM      5  C   UNL     1       9.530   2.098  23.883  0.00  0.00    +0.091 A 
ATOM      6  C   UNL     1       8.869   2.682  22.810  0.00  0.00    +0.120 A 
ATOM      7  C   UNL     1       8.476   1.925  21.713  0.00  0.00    +0.046 A 
ATOM      8  C   UNL     1       8.765   0.557  21.688  0.00  0.00    +0.019 A 
BRANCH   4   9
ATOM      9  O   UNL     1      10.515   0.191  24.905  0.00  0.00    -0.506 OA
ATOM     10  H   UNL     1      10.690  -0.749  24.722  0.00  0.00    +0.292 HD
ENDBRANCH   4   9
BRANCH   6  11
ATOM     11  O   UNL     1       8.636   4.025  22.869  0.00  0.00    -0.507 OA
ATOM     12  H   UNL     1       9.044   4.450  22.095  0.00  0.00    +0.292 HD
ENDBRANCH   6  11
ENDBRANCH   1   3
BRANCH   1  14
ATOM     13  C   UNL     1       8.547  -3.485  23.467  0.00  0.00    +0.012 C 
ATOM     14  C   UNL     1       8.627  -2.475  22.586  0.00  0.00    +0.052 C 
BRANCH  13  18
ATOM     15  C   UNL     1       5.329  -6.297  23.593  0.00  0.00    +0.117 A 
ATOM     16  C   UNL     1       5.649  -5.579  24.736  0.00  0.00    +0.046 A 
ATOM     17  C   UNL     1       6.698  -4.657  24.702  0.00  0.00    +0.011 A 
ATOM     18  C   UNL     1       7.418  -4.428  23.519  0.00  0.00    -0.025 A 
ATOM     19  C   UNL     1       7.083  -5.172  22.379  0.00  0.00    +0.011 A 
ATOM     20  C   UNL     1       6.036  -6.103  22.411  0.00  0.00    +0.046 A 
BRANCH  15  21
ATOM     21  O   UNL     1       4.310  -7.198  23.678  0.00  0.00    -0.507 OA
ATOM     22  H   UNL     1       4.523  -7.843  24.372  0.00  0.00    +0.292 HD
ENDBRANCH  15  21
ENDBRANCH  13  18
ENDBRANCH   1  14
TORSDOF 6
ENDMDL
MODEL 7
REMARK VINA RESULT:      -6.0      2.759      7.404
REMARK  Name = 
REMARK  6 active torsions:
REMARK  status: ('A' for Active; 'I' for Inactive)
REMARK    1  A    between atoms: O_1  and  C_2
REMARK    2  A    between atoms: C_5  and  C_6
REMARK    3  A    between atoms: C_7  and  C_8
REMARK    4  A    between atoms: C_8  and  C_10
REMARK    5  A    between atoms: C_13  and  O_14
REMARK    6  A    between atoms: C_16  and  O_17
REMARK                            x       y       z     vdW  Elec       q    Type
REMARK                         _______ _______ _______ _____ _____    ______ ____
ROOT
ATOM      1  C   UNL     1       9.701   1.335  24.317  0.00  0.00    +0.190 C 
ATOM      2  O   UNL     1      10.896   1.588  24.174  0.00  0.00    -0.287 OA
ENDROOT
BRANCH   1   3
ATOM      3  C   UNL     1       8.670   2.267  23.773  0.00  0.00    +0.063 A 
ATOM      4  C   UNL     1       8.567   2.623  22.419  0.00  0.00    +0.131 A 
ATOM      5  C   UNL     1       7.537   3.460  21.984  0.00  0.00    +0.091 A 
ATOM      6  C   UNL     1       6.601   3.934  22.896  0.00  0.00    +0.120 A 
ATOM      7  C   UNL     1       6.682   3.600  24.242  0.00  0.00    +0.046 A 
ATOM      8  C   UNL     1       7.715   2.763  24.678  0.00  0.00    +0.019 A 
BRANCH   4   9
ATOM      9  O   UNL     1       9.446   2.133  21.492  0.00  0.00    -0.506 OA
ATOM     10  H   UNL     1       9.017   2.124  20.619  0.00  0.00    +0.292 HD
ENDBRANCH   4   9
BRANCH   6  11
ATOM     11  O   UNL     1       5.597   4.723  22.416  0.00  0.00    -0.507 OA
ATOM     12  H   UNL     1       5.706   4.821  21.455  0.00  0.00    +0.292 HD
ENDBRANCH   6  11
ENDBRANCH   1   3
BRANCH   1  14
ATOM     13  C   UNL     1       9.420  -1.114  24.389  0.00  0.00    +0.012 C 
ATOM     14  C   UNL     1       9.243   0.083  24.973  0.00  0.00    +0.052 C 
BRANCH  13  18
ATOM     15  C   UNL     1       8.431  -4.834  26.249  0.00  0.00    +0.117 A 
ATOM     16  C   UNL     1       7.897  -3.658  26.755  0.00  0.00    +0.046 A 
ATOM     17  C   UNL     1       8.214  -2.439  26.151  0.00  0.00    +0.011 A 
ATOM     18  C   UNL     1       9.047  -2.388  25.023  0.00  0.00    -0.025 A 
ATOM     19  C   UNL     1       9.583  -3.589  24.535  0.00  0.00    +0.011 A 
ATOM     20  C   UNL     1       9.273  -4.813  25.142  0.00  0.00    +0.046 A 
BRANCH  15  21
ATOM     21  O   UNL     1       8.107  -5.997  26.881  0.00  0.00    -0.507 OA
ATOM     22  H   UNL     1       8.129  -6.719  26.232  0.00  0.00    +0.292 HD
ENDBRANCH  15  21
ENDBRANCH  13  18
ENDBRANCH   1  14
TORSDOF 6
ENDMDL
MODEL 8
REMARK VINA RESULT:      -6.0      1.838      7.480
REMARK  Name = 
REMARK  6 active torsions:
REMARK  status: ('A' for Active; 'I' for Inactive)
REMARK    1  A    between atoms: O_1  and  C_2
REMARK    2  A    between atoms: C_5  and  C_6
REMARK    3  A    between atoms: C_7  and  C_8
REMARK    4  A    between atoms: C_8  and  C_10
REMARK    5  A    between atoms: C_13  and  O_14
REMARK    6  A    between atoms: C_16  and  O_17
REMARK                            x       y       z     vdW  Elec       q    Type
REMARK                         _______ _______ _______ _____ _____    ______ ____
ROOT
ATOM      1  C   UNL     1       8.520  -2.021  25.131  0.00  0.00    +0.190 C 
ATOM      2  O   UNL     1       9.135  -2.176  26.184  0.00  0.00    -0.287 OA
ENDROOT
BRANCH   1   3
ATOM      3  C   UNL     1       8.890  -0.908  24.207  0.00  0.00    +0.063 A 
ATOM      4  C   UNL     1       9.706   0.176  24.568  0.00  0.00    +0.131 A 
ATOM      5  C   UNL     1      10.049   1.148  23.625  0.00  0.00    +0.091 A 
ATOM      6  C   UNL     1       9.588   1.034  22.319  0.00  0.00    +0.120 A 
ATOM      7  C   UNL     1       8.777  -0.027  21.936  0.00  0.00    +0.046 A 
ATOM      8  C   UNL     1       8.432  -0.999  22.881  0.00  0.00    +0.019 A 
BRANCH   4   9
ATOM      9  O   UNL     1      10.211   0.288  25.834  0.00  0.00    -0.506 OA
ATOM     10  H   UNL     1      10.338  -0.602  26.208  0.00  0.00    +0.292 HD
ENDBRANCH   4   9
BRANCH   6  11
ATOM     11  O   UNL     1       9.976   1.992  21.428  0.00  0.00    -0.507 OA
ATOM     12  H   UNL     1       9.473   2.806  21.603  0.00  0.00    +0.292 HD
ENDBRANCH   6  11
ENDBRANCH   1   3
BRANCH   1  14
ATOM     13  C   UNL     1       7.457  -4.245  25.082  0.00  0.00    +0.012 C 
ATOM     14  C   UNL     1       7.441  -2.953  24.714  0.00  0.00    +0.052 C 
BRANCH  13  18
ATOM     15  C   UNL     1       4.271  -6.953  24.186  0.00  0.00    +0.117 A 
ATOM     16  C   UNL     1       4.878  -6.252  23.154  0.00  0.00    +0.046 A 
ATOM     17  C   UNL     1       5.921  -5.368  23.439  0.00  0.00    +0.011 A 
ATOM     18  C   UNL     1       6.381  -5.194  24.753  0.00  0.00    -0.025 A 
ATOM     19  C   UNL     1       5.745  -5.905  25.782  0.00  0.00    +0.011 A 
ATOM     20  C   UNL     1       4.694  -6.788  25.501  0.00  0.00    +0.046 A 
BRANCH  15  21
ATOM     21  O   UNL     1       3.247  -7.791  23.863  0.00  0.00    -0.507 OA
ATOM     22  H   UNL     1       3.609  -8.680  23.717  0.00  0.00    +0.292 HD
ENDBRANCH  15  21
ENDBRANCH  13  18
ENDBRANCH   1  14
TORSDOF 6
ENDMDL
MODEL 9
REMARK VINA RESULT:      -5.7      2.550      7.480
REMARK  Name = 
REMARK  6 active torsions:
REMARK  status: ('A' for Active; 'I' for Inactive)
REMARK    1  A    between atoms: O_1  and  C_2
REMARK    2  A    between atoms: C_5  and  C_6
REMARK    3  A    between atoms: C_7  and  C_8
REMARK    4  A    between atoms: C_8  and  C_10
REMARK    5  A    between atoms: C_13  and  O_14
REMARK    6  A    between atoms: C_16  and  O_17
REMARK                            x       y       z     vdW  Elec       q    Type
REMARK                         _______ _______ _______ _____ _____    ______ ____
ROOT
ATOM      1  C   UNL     1       7.516  -3.134  23.066  0.00  0.00    +0.190 C 
ATOM      2  O   UNL     1       7.588  -3.404  21.869  0.00  0.00    -0.287 OA
ENDROOT
BRANCH   1   3
ATOM      3  C   UNL     1       8.181  -1.907  23.596  0.00  0.00    +0.063 A 
ATOM      4  C   UNL     1       9.569  -1.697  23.586  0.00  0.00    +0.131 A 
ATOM      5  C   UNL     1      10.107  -0.495  24.053  0.00  0.00    +0.091 A 
ATOM      6  C   UNL     1       9.260   0.503  24.521  0.00  0.00    +0.120 A 
ATOM      7  C   UNL     1       7.883   0.320  24.545  0.00  0.00    +0.046 A 
ATOM      8  C   UNL     1       7.345  -0.884  24.079  0.00  0.00    +0.019 A 
BRANCH   4   9
ATOM      9  O   UNL     1      10.422  -2.644  23.088  0.00  0.00    -0.506 OA
ATOM     10  H   UNL     1      10.278  -2.731  22.129  0.00  0.00    +0.292 HD
ENDBRANCH   4   9
BRANCH   6  11
ATOM     11  O   UNL     1       9.832   1.670  24.937  0.00  0.00    -0.507 OA
ATOM     12  H   UNL     1      10.427   1.995  24.240  0.00  0.00    +0.292 HD
ENDBRANCH   6  11
ENDBRANCH   1   3
BRANCH   1  14
ATOM     13  C   UNL     1       7.280  -4.467  25.126  0.00  0.00    +0.012 C 
ATOM     14  C   UNL     1       6.728  -3.970  24.008  0.00  0.00    +0.052 C 
BRANCH  13  18
ATOM     15  C   UNL     1       5.115  -6.804  27.978  0.00  0.00    +0.117 A 
ATOM     16  C   UNL     1       6.205  -6.057  28.399  0.00  0.00    +0.046 A 
ATOM     17  C   UNL     1       6.916  -5.289  27.474  0.00  0.00    +0.011 A 
ATOM     18  C   UNL     1       6.528  -5.244  26.126  0.00  0.00    -0.025 A 
ATOM     19  C   UNL     1       5.429  -6.015  25.721  0.00  0.00    +0.011 A 
ATOM     20  C   UNL     1       4.717  -6.791  26.645  0.00  0.00    +0.046 A 
BRANCH  15  21
ATOM     21  O   UNL     1       4.462  -7.550  28.913  0.00  0.00    -0.507 OA
ATOM     22  H   UNL     1       3.735  -8.024  28.479  0.00  0.00    +0.292 HD
ENDBRANCH  15  21
ENDBRANCH  13  18
ENDBRANCH   1  14
TORSDOF 6
ENDMDL
