MODEL 1
REMARK VINA RESULT:      -4.8      0.000      0.000
REMARK  Name = 
REMARK  6 active torsions:
REMARK  status: ('A' for Active; 'I' for Inactive)
REMARK    1  A    between atoms: C_1  and  C_2
REMARK    2  A    between atoms: C_2  and  O_4
REMARK    3  A    between atoms: C_2  and  C_5
REMARK    4  A    between atoms: C_5  and  N_7
REMARK    5  A    between atoms: C_5  and  C_8
REMARK    6  A    between atoms: C_8  and  C_9
REMARK                            x       y       z     vdW  Elec       q    Type
REMARK                         _______ _______ _______ _____ _____    ______ ____
ROOT
ATOM      1  C   UNL     1       8.741  -5.316  25.350  0.00  0.00    +0.084 C 
ENDROOT
BRANCH   1   2
ATOM      2  N   UNL     1      10.063  -5.364  26.015  0.00  0.00    -0.325 NA
ATOM      3  H   UNL     1      10.069  -4.619  26.715  0.00  0.00    +0.119 HD
ATOM      4  H   UNL     1      10.136  -6.243  26.531  0.00  0.00    +0.119 HD
ENDBRANCH   1   2
BRANCH   1   6
ATOM      5  C   UNL     1       7.234  -3.809  26.814  0.00  0.00    +0.039 C 
ATOM      6  C   UNL     1       7.601  -5.228  26.394  0.00  0.00    +0.128 C 
BRANCH   6   7
ATOM      7  O   UNL     1       8.006  -5.967  27.558  0.00  0.00    -0.391 OA
ATOM      8  H   UNL     1       7.281  -6.574  27.784  0.00  0.00    +0.210 HD
ENDBRANCH   6   7
ENDBRANCH   1   6
BRANCH   1   9
ATOM      9  C   UNL     1       8.679  -4.181  24.304  0.00  0.00    +0.056 C 
BRANCH   9  10
ATOM     10  C   UNL     1       7.677  -4.467  23.205  0.00  0.00    -0.046 A 
ATOM     11  C   UNL     1       6.895  -3.433  22.674  0.00  0.00    +0.004 A 
ATOM     12  C   UNL     1       6.059  -3.668  21.581  0.00  0.00    +0.000 A 
ATOM     13  C   UNL     1       5.994  -4.940  21.014  0.00  0.00    +0.000 A 
ATOM     14  C   UNL     1       6.744  -5.983  21.554  0.00  0.00    +0.000 A 
ATOM     15  C   UNL     1       7.572  -5.751  22.652  0.00  0.00    +0.004 A 
ENDBRANCH   9  10
ENDBRANCH   1   9
TORSDOF 5
ENDMDL
MODEL 2
REMARK VINA RESULT:      -4.8      4.436      5.473
REMARK  Name = 
REMARK  6 active torsions:
REMARK  status: ('A' for Active; 'I' for Inactive)
REMARK    1  A    between atoms: C_1  and  C_2
REMARK    2  A    between atoms: C_2  and  O_4
REMARK    3  A    between atoms: C_2  and  C_5
REMARK    4  A    between atoms: C_5  and  N_7
REMARK    5  A    between atoms: C_5  and  C_8
REMARK    6  A    between atoms: C_8  and  C_9
REMARK                            x       y       z     vdW  Elec       q    Type
REMARK                         _______ _______ _______ _____ _____    ______ ____
ROOT
ATOM      1  C   UNL     1       8.675  -2.455  23.459  0.00  0.00    +0.084 C 
ENDROOT
BRANCH   1   2
ATOM      2  N   UNL     1       7.905  -2.970  22.305  0.00  0.00    -0.325 NA
ATOM      3  H   UNL     1       7.333  -2.195  21.962  0.00  0.00    +0.119 HD
ATOM      4  H   UNL     1       8.558  -3.198  21.554  0.00  0.00    +0.119 HD
ENDBRANCH   1   2
BRANCH   1   6
ATOM      5  C   UNL     1       8.519  -2.906  26.001  0.00  0.00    +0.039 C 
ATOM      6  C   UNL     1       8.710  -3.494  24.607  0.00  0.00    +0.128 C 
BRANCH   6   7
ATOM      7  O   UNL     1       9.978  -4.169  24.557  0.00  0.00    -0.391 OA
ATOM      8  H   UNL     1       9.798  -5.117  24.439  0.00  0.00    +0.210 HD
ENDBRANCH   6   7
ENDBRANCH   1   6
BRANCH   1   9
ATOM      9  C   UNL     1      10.086  -1.993  23.033  0.00  0.00    +0.056 C 
BRANCH   9  10
ATOM     10  C   UNL     1      10.210  -0.484  22.995  0.00  0.00    -0.046 A 
ATOM     11  C   UNL     1       9.822   0.229  21.853  0.00  0.00    +0.004 A 
ATOM     12  C   UNL     1       9.820   1.625  21.858  0.00  0.00    +0.000 A 
ATOM     13  C   UNL     1      10.210   2.319  23.002  0.00  0.00    +0.000 A 
ATOM     14  C   UNL     1      10.627   1.620  24.133  0.00  0.00    +0.000 A 
ATOM     15  C   UNL     1      10.639   0.225  24.126  0.00  0.00    +0.004 A 
ENDBRANCH   9  10
ENDBRANCH   1   9
TORSDOF 5
ENDMDL
MODEL 3
REMARK VINA RESULT:      -4.7      6.650      7.510
REMARK  Name = 
REMARK  6 active torsions:
REMARK  status: ('A' for Active; 'I' for Inactive)
REMARK    1  A    between atoms: C_1  and  C_2
REMARK    2  A    between atoms: C_2  and  O_4
REMARK    3  A    between atoms: C_2  and  C_5
REMARK    4  A    between atoms: C_5  and  N_7
REMARK    5  A    between atoms: C_5  and  C_8
REMARK    6  A    between atoms: C_8  and  C_9
REMARK                            x       y       z     vdW  Elec       q    Type
REMARK                         _______ _______ _______ _____ _____    ______ ____
ROOT
ATOM      1  C   UNL     1      10.456   3.087  23.371  0.00  0.00    +0.084 C 
ENDROOT
BRANCH   1   2
ATOM      2  N   UNL     1      11.609   3.993  23.172  0.00  0.00    -0.325 NA
ATOM      3  H   UNL     1      12.315   3.728  23.862  0.00  0.00    +0.119 HD
ATOM      4  H   UNL     1      12.018   3.804  22.256  0.00  0.00    +0.119 HD
ENDBRANCH   1   2
BRANCH   1   6
ATOM      5  C   UNL     1       8.347   3.241  24.860  0.00  0.00    +0.039 C 
ATOM      6  C   UNL     1       9.187   3.885  23.761  0.00  0.00    +0.128 C 
BRANCH   6   7
ATOM      7  O   UNL     1       8.377   4.035  22.584  0.00  0.00    -0.391 OA
ATOM      8  H   UNL     1       8.623   3.323  21.969  0.00  0.00    +0.210 HD
ENDBRANCH   6   7
ENDBRANCH   1   6
BRANCH   1   9
ATOM      9  C   UNL     1      10.233   2.183  22.138  0.00  0.00    +0.056 C 
BRANCH   9  10
ATOM     10  C   UNL     1       9.963   0.743  22.523  0.00  0.00    -0.046 A 
ATOM     11  C   UNL     1       9.513  -0.173  21.564  0.00  0.00    +0.004 A 
ATOM     12  C   UNL     1       9.378  -1.525  21.885  0.00  0.00    +0.000 A 
ATOM     13  C   UNL     1       9.689  -1.971  23.169  0.00  0.00    +0.000 A 
ATOM     14  C   UNL     1      10.109  -1.063  24.139  0.00  0.00    +0.000 A 
ATOM     15  C   UNL     1      10.233   0.290  23.822  0.00  0.00    +0.004 A 
ENDBRANCH   9  10
ENDBRANCH   1   9
TORSDOF 5
ENDMDL
MODEL 4
REMARK VINA RESULT:      -4.6      7.637      8.452
REMARK  Name = 
REMARK  6 active torsions:
REMARK  status: ('A' for Active; 'I' for Inactive)
REMARK    1  A    between atoms: C_1  and  C_2
REMARK    2  A    between atoms: C_2  and  O_4
REMARK    3  A    between atoms: C_2  and  C_5
REMARK    4  A    between atoms: C_5  and  N_7
REMARK    5  A    between atoms: C_5  and  C_8
REMARK    6  A    between atoms: C_8  and  C_9
REMARK                            x       y       z     vdW  Elec       q    Type
REMARK                         _______ _______ _______ _____ _____    ______ ____
ROOT
ATOM      1  C   UNL     1       9.637   3.911  23.713  0.00  0.00    +0.084 C 
ENDROOT
BRANCH   1   2
ATOM      2  N   UNL     1       8.751   3.565  24.847  0.00  0.00    -0.325 NA
ATOM      3  H   UNL     1       8.011   2.967  24.473  0.00  0.00    +0.119 HD
ATOM      4  H   UNL     1       9.277   2.991  25.508  0.00  0.00    +0.119 HD
ENDBRANCH   1   2
BRANCH   1   6
ATOM      5  C   UNL     1       9.071   6.423  23.474  0.00  0.00    +0.039 C 
ATOM      6  C   UNL     1      10.125   5.376  23.820  0.00  0.00    +0.128 C 
BRANCH   6   7
ATOM      7  O   UNL     1      11.248   5.536  22.937  0.00  0.00    -0.391 OA
ATOM      8  H   UNL     1      11.210   4.815  22.286  0.00  0.00    +0.210 HD
ENDBRANCH   6   7
ENDBRANCH   1   6
BRANCH   1   9
ATOM      9  C   UNL     1      10.801   2.904  23.582  0.00  0.00    +0.056 C 
BRANCH   9  10
ATOM     10  C   UNL     1      10.336   1.548  23.093  0.00  0.00    -0.046 A 
ATOM     11  C   UNL     1       9.688   1.426  21.857  0.00  0.00    +0.004 A 
ATOM     12  C   UNL     1       9.365   0.167  21.348  0.00  0.00    +0.000 A 
ATOM     13  C   UNL     1       9.684  -0.980  22.073  0.00  0.00    +0.000 A 
ATOM     14  C   UNL     1      10.302  -0.870  23.317  0.00  0.00    +0.000 A 
ATOM     15  C   UNL     1      10.615   0.389  23.831  0.00  0.00    +0.004 A 
ENDBRANCH   9  10
ENDBRANCH   1   9
TORSDOF 5
ENDMDL
MODEL 5
REMARK VINA RESULT:      -4.5      4.979      6.013
REMARK  Name = 
REMARK  6 active torsions:
REMARK  status: ('A' for Active; 'I' for Inactive)
REMARK    1  A    between atoms: C_1  and  C_2
REMARK    2  A    between atoms: C_2  and  O_4
REMARK    3  A    between atoms: C_2  and  C_5
REMARK    4  A    between atoms: C_5  and  N_7
REMARK    5  A    between atoms: C_5  and  C_8
REMARK    6  A    between atoms: C_8  and  C_9
REMARK                            x       y       z     vdW  Elec       q    Type
REMARK                         _______ _______ _______ _____ _____    ______ ____
ROOT
ATOM      1  C   UNL     1       9.336   1.028  23.548  0.00  0.00    +0.084 C 
ENDROOT
BRANCH   1   2
ATOM      2  N   UNL     1       9.870   1.355  24.889  0.00  0.00    -0.325 NA
ATOM      3  H   UNL     1      10.888   1.289  24.827  0.00  0.00    +0.119 HD
ATOM      4  H   UNL     1       9.659   2.333  25.094  0.00  0.00    +0.119 HD
ENDBRANCH   1   2
BRANCH   1   6
ATOM      5  C   UNL     1       7.884   2.562  22.057  0.00  0.00    +0.039 C 
ATOM      6  C   UNL     1       9.259   2.295  22.661  0.00  0.00    +0.128 C 
BRANCH   6   7
ATOM      7  O   UNL     1      10.215   2.152  21.598  0.00  0.00    -0.391 OA
ATOM      8  H   UNL     1       9.936   1.394  21.056  0.00  0.00    +0.210 HD
ENDBRANCH   6   7
ENDBRANCH   1   6
BRANCH   1   9
ATOM      9  C   UNL     1      10.141  -0.113  22.886  0.00  0.00    +0.056 C 
BRANCH   9  10
ATOM     10  C   UNL     1       9.465  -1.459  23.045  0.00  0.00    -0.046 A 
ATOM     11  C   UNL     1       9.843  -2.322  24.082  0.00  0.00    +0.004 A 
ATOM     12  C   UNL     1       9.143  -3.509  24.305  0.00  0.00    +0.000 A 
ATOM     13  C   UNL     1       8.062  -3.844  23.491  0.00  0.00    +0.000 A 
ATOM     14  C   UNL     1       7.697  -3.008  22.438  0.00  0.00    +0.000 A 
ATOM     15  C   UNL     1       8.403  -1.827  22.208  0.00  0.00    +0.004 A 
ENDBRANCH   9  10
ENDBRANCH   1   9
TORSDOF 5
ENDMDL
MODEL 6
REMARK VINA RESULT:      -4.5      7.620      8.772
REMARK  Name = 
REMARK  6 active torsions:
REMARK  status: ('A' for Active; 'I' for Inactive)
REMARK    1  A    between atoms: C_1  and  C_2
REMARK    2  A    between atoms: C_2  and  O_4
REMARK    3  A    between atoms: C_2  and  C_5
REMARK    4  A    between atoms: C_5  and  N_7
REMARK    5  A    between atoms: C_5  and  C_8
REMARK    6  A    between atoms: C_8  and  C_9
REMARK                            x       y       z     vdW  Elec       q    Type
REMARK                         _______ _______ _______ _____ _____    ______ ____
ROOT
ATOM      1  C   UNL     1      10.296   1.007  23.938  0.00  0.00    +0.084 C 
ENDROOT
BRANCH   1   2
ATOM      2  N   UNL     1      10.513   0.500  25.311  0.00  0.00    -0.325 NA
ATOM      3  H   UNL     1       9.622   0.111  25.626  0.00  0.00    +0.119 HD
ATOM      4  H   UNL     1      11.168  -0.282  25.270  0.00  0.00    +0.119 HD
ENDBRANCH   1   2
BRANCH   1   6
ATOM      5  C   UNL     1       9.542   0.310  21.564  0.00  0.00    +0.039 C 
ATOM      6  C   UNL     1       9.825  -0.129  22.997  0.00  0.00    +0.128 C 
BRANCH   6   7
ATOM      7  O   UNL     1       8.629  -0.699  23.554  0.00  0.00    -0.391 OA
ATOM      8  H   UNL     1       8.418  -1.495  23.036  0.00  0.00    +0.210 HD
ENDBRANCH   6   7
ENDBRANCH   1   6
BRANCH   1   9
ATOM      9  C   UNL     1       9.339   2.220  23.930  0.00  0.00    +0.056 C 
BRANCH   9  10
ATOM     10  C   UNL     1      10.077   3.532  23.762  0.00  0.00    -0.046 A 
ATOM     11  C   UNL     1       9.453   4.742  24.093  0.00  0.00    +0.004 A 
ATOM     12  C   UNL     1      10.167   5.940  24.054  0.00  0.00    +0.000 A 
ATOM     13  C   UNL     1      11.510   5.940  23.679  0.00  0.00    +0.000 A 
ATOM     14  C   UNL     1      12.132   4.747  23.318  0.00  0.00    +0.000 A 
ATOM     15  C   UNL     1      11.416   3.550  23.347  0.00  0.00    +0.004 A 
ENDBRANCH   9  10
ENDBRANCH   1   9
TORSDOF 5
ENDMDL
MODEL 7
REMARK VINA RESULT:      -4.4      4.528      5.997
REMARK  Name = 
REMARK  6 active torsions:
REMARK  status: ('A' for Active; 'I' for Inactive)
REMARK    1  A    between atoms: C_1  and  C_2
REMARK    2  A    between atoms: C_2  and  O_4
REMARK    3  A    between atoms: C_2  and  C_5
REMARK    4  A    between atoms: C_5  and  N_7
REMARK    5  A    between atoms: C_5  and  C_8
REMARK    6  A    between atoms: C_8  and  C_9
REMARK                            x       y       z     vdW  Elec       q    Type
REMARK                         _______ _______ _______ _____ _____    ______ ____
ROOT
ATOM      1  C   UNL     1       7.783  -2.120  22.823  0.00  0.00    +0.084 C 
ENDROOT
BRANCH   1   2
ATOM      2  N   UNL     1       6.662  -1.154  22.865  0.00  0.00    -0.325 NA
ATOM      3  H   UNL     1       5.855  -1.620  22.445  0.00  0.00    +0.119 HD
ATOM      4  H   UNL     1       6.417  -0.981  23.842  0.00  0.00    +0.119 HD
ENDBRANCH   1   2
BRANCH   1   6
ATOM      5  C   UNL     1       5.815  -3.577  21.994  0.00  0.00    +0.039 C 
ATOM      6  C   UNL     1       7.309  -3.494  22.292  0.00  0.00    +0.128 C 
BRANCH   6   7
ATOM      7  O   UNL     1       7.643  -4.489  23.274  0.00  0.00    -0.391 OA
ATOM      8  H   UNL     1       6.878  -5.085  23.355  0.00  0.00    +0.210 HD
ENDBRANCH   6   7
ENDBRANCH   1   6
BRANCH   1   9
ATOM      9  C   UNL     1       8.981  -1.556  22.027  0.00  0.00    +0.056 C 
BRANCH   9  10
ATOM     10  C   UNL     1       9.512  -0.268  22.622  0.00  0.00    -0.046 A 
ATOM     11  C   UNL     1      10.046  -0.255  23.917  0.00  0.00    +0.004 A 
ATOM     12  C   UNL     1      10.645   0.899  24.423  0.00  0.00    +0.000 A 
ATOM     13  C   UNL     1      10.710   2.052  23.642  0.00  0.00    +0.000 A 
ATOM     14  C   UNL     1      10.154   2.059  22.364  0.00  0.00    +0.000 A 
ATOM     15  C   UNL     1       9.546   0.909  21.861  0.00  0.00    +0.004 A 
ENDBRANCH   9  10
ENDBRANCH   1   9
TORSDOF 5
ENDMDL
MODEL 8
REMARK VINA RESULT:      -4.4      5.821      7.033
REMARK  Name = 
REMARK  6 active torsions:
REMARK  status: ('A' for Active; 'I' for Inactive)
REMARK    1  A    between atoms: C_1  and  C_2
REMARK    2  A    between atoms: C_2  and  O_4
REMARK    3  A    between atoms: C_2  and  C_5
REMARK    4  A    between atoms: C_5  and  N_7
REMARK    5  A    between atoms: C_5  and  C_8
REMARK    6  A    between atoms: C_8  and  C_9
REMARK                            x       y       z     vdW  Elec       q    Type
REMARK                         _______ _______ _______ _____ _____    ______ ____
ROOT
ATOM      1  C   UNL     1       9.197   2.461  23.818  0.00  0.00    +0.084 C 
ENDROOT
BRANCH   1   2
ATOM      2  N   UNL     1       9.390   3.831  24.342  0.00  0.00    -0.325 NA
ATOM      3  H   UNL     1      10.171   4.239  23.823  0.00  0.00    +0.119 HD
ATOM      4  H   UNL     1       8.568   4.389  24.107  0.00  0.00    +0.119 HD
ENDBRANCH   1   2
BRANCH   1   6
ATOM      5  C   UNL     1       7.755   1.515  21.891  0.00  0.00    +0.039 C 
ATOM      6  C   UNL     1       8.851   2.490  22.309  0.00  0.00    +0.128 C 
BRANCH   6   7
ATOM      7  O   UNL     1      10.048   2.189  21.573  0.00  0.00    -0.391 OA
ATOM      8  H   UNL     1       9.902   2.472  20.654  0.00  0.00    +0.210 HD
ENDBRANCH   6   7
ENDBRANCH   1   6
BRANCH   1   9
ATOM      9  C   UNL     1      10.414   1.562  24.131  0.00  0.00    +0.056 C 
BRANCH   9  10
ATOM     10  C   UNL     1      10.018   0.119  24.365  0.00  0.00    -0.046 A 
ATOM     11  C   UNL     1       9.264  -0.233  25.493  0.00  0.00    +0.004 A 
ATOM     12  C   UNL     1       8.794  -1.538  25.650  0.00  0.00    +0.000 A 
ATOM     13  C   UNL     1       9.079  -2.503  24.685  0.00  0.00    +0.000 A 
ATOM     14  C   UNL     1       9.853  -2.171  23.575  0.00  0.00    +0.000 A 
ATOM     15  C   UNL     1      10.332  -0.869  23.422  0.00  0.00    +0.004 A 
ENDBRANCH   9  10
ENDBRANCH   1   9
TORSDOF 5
ENDMDL
MODEL 9
REMARK VINA RESULT:      -4.3      3.558      4.267
REMARK  Name = 
REMARK  6 active torsions:
REMARK  status: ('A' for Active; 'I' for Inactive)
REMARK    1  A    between atoms: C_1  and  C_2
REMARK    2  A    between atoms: C_2  and  O_4
REMARK    3  A    between atoms: C_2  and  C_5
REMARK    4  A    between atoms: C_5  and  N_7
REMARK    5  A    between atoms: C_5  and  C_8
REMARK    6  A    between atoms: C_8  and  C_9
REMARK                            x       y       z     vdW  Elec       q    Type
REMARK                         _______ _______ _______ _____ _____    ______ ____
ROOT
ATOM      1  C   UNL     1       9.295  -1.092  23.599  0.00  0.00    +0.084 C 
ENDROOT
BRANCH   1   2
ATOM      2  N   UNL     1       9.720  -0.488  24.882  0.00  0.00    -0.325 NA
ATOM      3  H   UNL     1       9.098  -0.858  25.603  0.00  0.00    +0.119 HD
ATOM      4  H   UNL     1      10.656  -0.828  25.108  0.00  0.00    +0.119 HD
ENDBRANCH   1   2
BRANCH   1   6
ATOM      5  C   UNL     1       9.593   0.713  21.772  0.00  0.00    +0.039 C 
ATOM      6  C   UNL     1      10.146  -0.550  22.425  0.00  0.00    +0.128 C 
BRANCH   6   7
ATOM      7  O   UNL     1      10.242  -1.584  21.431  0.00  0.00    -0.391 OA
ATOM      8  H   UNL     1      11.135  -1.964  21.493  0.00  0.00    +0.210 HD
ENDBRANCH   6   7
ENDBRANCH   1   6
BRANCH   1   9
ATOM      9  C   UNL     1       9.302  -2.636  23.676  0.00  0.00    +0.056 C 
BRANCH   9  10
ATOM     10  C   UNL     1       7.950  -3.233  23.346  0.00  0.00    -0.046 A 
ATOM     11  C   UNL     1       6.918  -2.421  22.858  0.00  0.00    +0.004 A 
ATOM     12  C   UNL     1       5.712  -2.985  22.440  0.00  0.00    +0.000 A 
ATOM     13  C   UNL     1       5.525  -4.364  22.511  0.00  0.00    +0.000 A 
ATOM     14  C   UNL     1       6.533  -5.178  23.024  0.00  0.00    +0.000 A 
ATOM     15  C   UNL     1       7.735  -4.614  23.452  0.00  0.00    +0.004 A 
ENDBRANCH   9  10
ENDBRANCH   1   9
TORSDOF 5
ENDMDL
