MODEL 1
REMARK VINA RESULT:      -6.7      0.000      0.000
REMARK  Name = 
REMARK  9 active torsions:
REMARK  status: ('A' for Active; 'I' for Inactive)
REMARK    1  A    between atoms: C_1  and  C_2
REMARK    2  A    between atoms: C_2  and  C_3
REMARK    3  A    between atoms: C_3  and  C_4
REMARK    4  A    between atoms: C_4  and  N_5
REMARK    5  A    between atoms: C_6  and  C_7
REMARK    6  A    between atoms: C_7  and  C_8
REMARK    7  A    between atoms: C_11  and  O_12
REMARK    8  A    between atoms: O_12  and  C_13
REMARK    9  A    between atoms: C_18  and  N_19
REMARK                            x       y       z     vdW  Elec       q    Type
REMARK                         _______ _______ _______ _____ _____    ______ ____
ROOT
ATOM      1  N   UNL     1       7.576  -2.229  24.026  0.00  0.00    -0.312 N 
ATOM      2  C   UNL     1       7.636  -3.055  25.121  0.00  0.00    +0.166 A 
ATOM      3  C   UNL     1       8.768  -3.821  24.929  0.00  0.00    +0.148 A 
ATOM      4  C   UNL     1       9.017  -4.832  25.875  0.00  0.00    +0.147 A 
ATOM      5  N   UNL     1       8.200  -4.925  26.948  0.00  0.00    -0.219 NA
ATOM      6  C   UNL     1       7.154  -4.074  27.030  0.00  0.00    +0.225 A 
ATOM      7  N   UNL     1       9.456  -3.392  23.817  0.00  0.00    -0.227 NA
ATOM      8  N   UNL     1       6.776  -3.126  26.150  0.00  0.00    -0.216 NA
ATOM      9  C   UNL     1       8.743  -2.398  23.307  0.00  0.00    +0.116 A 
ENDROOT
BRANCH   4  10
ATOM     10  N   UNL     1      10.063  -5.739  25.774  0.00  0.00    -0.341 N 
ATOM     11  H   UNL     1      10.914  -5.311  25.438  0.00  0.00    +0.144 HD
ATOM     12  H   UNL     1       9.794  -6.641  25.397  0.00  0.00    +0.144 HD
ENDBRANCH   4  10
BRANCH   1  13
ATOM     13  C   UNL     1       6.469  -1.336  23.744  0.00  0.00    +0.125 C 
BRANCH  13  14
ATOM     14  C   UNL     1       6.541   0.021  24.453  0.00  0.00    +0.021 C 
BRANCH  14  16
ATOM     15  C   UNL     1       6.927   2.496  24.191  0.00  0.00    +0.004 C 
ATOM     16  C   UNL     1       6.468   1.219  23.503  0.00  0.00    -0.002 C 
ENDBRANCH  14  16
ENDBRANCH  13  14
ENDBRANCH   1  13
BRANCH   9  17
ATOM     17  C   UNL     1       9.180  -1.504  22.168  0.00  0.00    +0.109 C 
BRANCH  17  18
ATOM     18  C   UNL     1       9.774  -0.151  22.525  0.00  0.00    -0.040 A 
ATOM     19  C   UNL     1       9.634   0.907  21.607  0.00  0.00    +0.007 A 
ATOM     20  C   UNL     1       9.985   2.222  21.951  0.00  0.00    +0.046 A 
ATOM     21  C   UNL     1      10.484   2.497  23.221  0.00  0.00    +0.120 A 
ATOM     22  C   UNL     1      10.703   1.440  24.102  0.00  0.00    +0.046 A 
ATOM     23  C   UNL     1      10.375   0.128  23.754  0.00  0.00    +0.007 A 
BRANCH  21  24
ATOM     24  O   UNL     1      10.737   3.730  23.749  0.00  0.00    -0.495 OA
ATOM     25  C   UNL     1      11.929   4.384  23.343  0.00  0.00    +0.277 C 
ENDBRANCH  21  24
ENDBRANCH  17  18
ENDBRANCH   9  17
TORSDOF 7
ENDMDL
MODEL 2
REMARK VINA RESULT:      -6.3      1.506      2.630
REMARK  Name = 
REMARK  9 active torsions:
REMARK  status: ('A' for Active; 'I' for Inactive)
REMARK    1  A    between atoms: C_1  and  C_2
REMARK    2  A    between atoms: C_2  and  C_3
REMARK    3  A    between atoms: C_3  and  C_4
REMARK    4  A    between atoms: C_4  and  N_5
REMARK    5  A    between atoms: C_6  and  C_7
REMARK    6  A    between atoms: C_7  and  C_8
REMARK    7  A    between atoms: C_11  and  O_12
REMARK    8  A    between atoms: O_12  and  C_13
REMARK    9  A    between atoms: C_18  and  N_19
REMARK                            x       y       z     vdW  Elec       q    Type
REMARK                         _______ _______ _______ _____ _____    ______ ____
ROOT
ATOM      1  N   UNL     1       7.455  -2.892  23.558  0.00  0.00    -0.312 N 
ATOM      2  C   UNL     1       7.517  -3.696  24.668  0.00  0.00    +0.166 A 
ATOM      3  C   UNL     1       8.836  -4.094  24.750  0.00  0.00    +0.148 A 
ATOM      4  C   UNL     1       9.160  -5.016  25.761  0.00  0.00    +0.147 A 
ATOM      5  N   UNL     1       8.195  -5.373  26.639  0.00  0.00    -0.219 NA
ATOM      6  C   UNL     1       6.955  -4.867  26.466  0.00  0.00    +0.225 A 
ATOM      7  N   UNL     1       9.591  -3.451  23.795  0.00  0.00    -0.227 NA
ATOM      8  N   UNL     1       6.515  -4.044  25.492  0.00  0.00    -0.216 NA
ATOM      9  C   UNL     1       8.747  -2.694  23.110  0.00  0.00    +0.116 A 
ENDROOT
BRANCH   4  10
ATOM     10  N   UNL     1      10.420  -5.575  25.917  0.00  0.00    -0.341 N 
ATOM     11  H   UNL     1      11.158  -4.888  25.863  0.00  0.00    +0.144 HD
ATOM     12  H   UNL     1      10.544  -6.457  25.433  0.00  0.00    +0.144 HD
ENDBRANCH   4  10
BRANCH   1  13
ATOM     13  C   UNL     1       6.224  -2.353  23.015  0.00  0.00    +0.125 C 
BRANCH  13  14
ATOM     14  C   UNL     1       5.336  -3.377  22.298  0.00  0.00    +0.021 C 
BRANCH  14  16
ATOM     15  C   UNL     1       6.114  -5.705  21.738  0.00  0.00    +0.004 C 
ATOM     16  C   UNL     1       6.089  -4.251  21.292  0.00  0.00    -0.002 C 
ENDBRANCH  14  16
ENDBRANCH  13  14
ENDBRANCH   1  13
BRANCH   9  17
ATOM     17  C   UNL     1       9.138  -1.679  22.059  0.00  0.00    +0.109 C 
BRANCH  17  18
ATOM     18  C   UNL     1       9.503  -0.281  22.533  0.00  0.00    -0.040 A 
ATOM     19  C   UNL     1       9.954  -0.118  23.857  0.00  0.00    +0.007 A 
ATOM     20  C   UNL     1      10.487   1.103  24.300  0.00  0.00    +0.046 A 
ATOM     21  C   UNL     1      10.576   2.179  23.423  0.00  0.00    +0.120 A 
ATOM     22  C   UNL     1      10.053   2.047  22.137  0.00  0.00    +0.046 A 
ATOM     23  C   UNL     1       9.502   0.841  21.701  0.00  0.00    +0.007 A 
BRANCH  21  24
ATOM     24  O   UNL     1      11.191   3.376  23.658  0.00  0.00    -0.495 OA
ATOM     25  C   UNL     1      10.373   4.534  23.706  0.00  0.00    +0.277 C 
ENDBRANCH  21  24
ENDBRANCH  17  18
ENDBRANCH   9  17
TORSDOF 7
ENDMDL
MODEL 3
REMARK VINA RESULT:      -6.1      2.457      2.945
REMARK  Name = 
REMARK  9 active torsions:
REMARK  status: ('A' for Active; 'I' for Inactive)
REMARK    1  A    between atoms: C_1  and  C_2
REMARK    2  A    between atoms: C_2  and  C_3
REMARK    3  A    between atoms: C_3  and  C_4
REMARK    4  A    between atoms: C_4  and  N_5
REMARK    5  A    between atoms: C_6  and  C_7
REMARK    6  A    between atoms: C_7  and  C_8
REMARK    7  A    between atoms: C_11  and  O_12
REMARK    8  A    between atoms: O_12  and  C_13
REMARK    9  A    between atoms: C_18  and  N_19
REMARK                            x       y       z     vdW  Elec       q    Type
REMARK                         _______ _______ _______ _____ _____    ______ ____
ROOT
ATOM      1  N   UNL     1       6.688  -2.971  24.362  0.00  0.00    -0.312 N 
ATOM      2  C   UNL     1       5.662  -3.784  23.949  0.00  0.00    +0.166 A 
ATOM      3  C   UNL     1       6.227  -4.622  23.008  0.00  0.00    +0.148 A 
ATOM      4  C   UNL     1       5.358  -5.508  22.345  0.00  0.00    +0.147 A 
ATOM      5  N   UNL     1       4.064  -5.553  22.735  0.00  0.00    -0.219 NA
ATOM      6  C   UNL     1       3.660  -4.705  23.705  0.00  0.00    +0.225 A 
ATOM      7  N   UNL     1       7.586  -4.418  22.938  0.00  0.00    -0.227 NA
ATOM      8  N   UNL     1       4.381  -3.765  24.350  0.00  0.00    -0.216 NA
ATOM      9  C   UNL     1       7.855  -3.445  23.796  0.00  0.00    +0.116 A 
ENDROOT
BRANCH   4  10
ATOM     10  N   UNL     1       5.757  -6.349  21.317  0.00  0.00    -0.341 N 
ATOM     11  H   UNL     1       6.149  -7.216  21.655  0.00  0.00    +0.144 HD
ATOM     12  H   UNL     1       6.223  -5.875  20.551  0.00  0.00    +0.144 HD
ENDBRANCH   4  10
BRANCH   1  13
ATOM     13  C   UNL     1       6.518  -1.844  25.259  0.00  0.00    +0.125 C 
BRANCH  13  14
ATOM     14  C   UNL     1       5.872  -0.608  24.622  0.00  0.00    +0.021 C 
BRANCH  14  16
ATOM     15  C   UNL     1       6.640   1.346  23.231  0.00  0.00    +0.004 C 
ATOM     16  C   UNL     1       6.801   0.606  24.551  0.00  0.00    -0.002 C 
ENDBRANCH  14  16
ENDBRANCH  13  14
ENDBRANCH   1  13
BRANCH   9  17
ATOM     17  C   UNL     1       9.241  -2.982  24.186  0.00  0.00    +0.109 C 
BRANCH  17  18
ATOM     18  C   UNL     1       9.711  -1.641  23.644  0.00  0.00    -0.040 A 
ATOM     19  C   UNL     1       9.510  -1.360  22.280  0.00  0.00    +0.007 A 
ATOM     20  C   UNL     1       9.742  -0.078  21.757  0.00  0.00    +0.046 A 
ATOM     21  C   UNL     1      10.181   0.943  22.595  0.00  0.00    +0.120 A 
ATOM     22  C   UNL     1      10.462   0.648  23.928  0.00  0.00    +0.046 A 
ATOM     23  C   UNL     1      10.253  -0.633  24.444  0.00  0.00    +0.007 A 
BRANCH  21  24
ATOM     24  O   UNL     1      10.317   2.262  22.272  0.00  0.00    -0.495 OA
ATOM     25  C   UNL     1      10.564   3.174  23.331  0.00  0.00    +0.277 C 
ENDBRANCH  21  24
ENDBRANCH  17  18
ENDBRANCH   9  17
TORSDOF 7
ENDMDL
MODEL 4
REMARK VINA RESULT:      -6.1      2.330      3.018
REMARK  Name = 
REMARK  9 active torsions:
REMARK  status: ('A' for Active; 'I' for Inactive)
REMARK    1  A    between atoms: C_1  and  C_2
REMARK    2  A    between atoms: C_2  and  C_3
REMARK    3  A    between atoms: C_3  and  C_4
REMARK    4  A    between atoms: C_4  and  N_5
REMARK    5  A    between atoms: C_6  and  C_7
REMARK    6  A    between atoms: C_7  and  C_8
REMARK    7  A    between atoms: C_11  and  O_12
REMARK    8  A    between atoms: O_12  and  C_13
REMARK    9  A    between atoms: C_18  and  N_19
REMARK                            x       y       z     vdW  Elec       q    Type
REMARK                         _______ _______ _______ _____ _____    ______ ____
ROOT
ATOM      1  N   UNL     1       7.620  -3.801  25.168  0.00  0.00    -0.312 N 
ATOM      2  C   UNL     1       6.647  -4.725  24.881  0.00  0.00    +0.166 A 
ATOM      3  C   UNL     1       6.882  -5.098  23.573  0.00  0.00    +0.148 A 
ATOM      4  C   UNL     1       5.957  -5.981  22.988  0.00  0.00    +0.147 A 
ATOM      5  N   UNL     1       4.966  -6.480  23.762  0.00  0.00    -0.219 NA
ATOM      6  C   UNL     1       4.885  -6.062  25.044  0.00  0.00    +0.225 A 
ATOM      7  N   UNL     1       8.042  -4.518  23.110  0.00  0.00    -0.227 NA
ATOM      8  N   UNL     1       5.663  -5.165  25.682  0.00  0.00    -0.216 NA
ATOM      9  C   UNL     1       8.499  -3.771  24.103  0.00  0.00    +0.116 A 
ENDROOT
BRANCH   4  10
ATOM     10  N   UNL     1       6.008  -6.379  21.660  0.00  0.00    -0.341 N 
ATOM     11  H   UNL     1       5.380  -5.850  21.072  0.00  0.00    +0.144 HD
ATOM     12  H   UNL     1       6.059  -7.384  21.531  0.00  0.00    +0.144 HD
ENDBRANCH   4  10
BRANCH   1  13
ATOM     13  C   UNL     1       7.677  -3.041  26.402  0.00  0.00    +0.125 C 
BRANCH  13  14
ATOM     14  C   UNL     1       7.350  -1.551  26.254  0.00  0.00    +0.021 C 
BRANCH  14  16
ATOM     15  C   UNL     1       6.400  -0.577  24.136  0.00  0.00    +0.004 C 
ATOM     16  C   UNL     1       6.078  -1.274  25.449  0.00  0.00    -0.002 C 
ENDBRANCH  14  16
ENDBRANCH  13  14
ENDBRANCH   1  13
BRANCH   9  17
ATOM     17  C   UNL     1       9.837  -3.065  24.122  0.00  0.00    +0.109 C 
BRANCH  17  18
ATOM     18  C   UNL     1       9.906  -1.676  23.509  0.00  0.00    -0.040 A 
ATOM     19  C   UNL     1       9.594  -1.527  22.144  0.00  0.00    +0.007 A 
ATOM     20  C   UNL     1       9.451  -0.258  21.562  0.00  0.00    +0.046 A 
ATOM     21  C   UNL     1       9.619   0.884  22.339  0.00  0.00    +0.120 A 
ATOM     22  C   UNL     1      10.012   0.742  23.669  0.00  0.00    +0.046 A 
ATOM     23  C   UNL     1      10.176  -0.519  24.245  0.00  0.00    +0.007 A 
BRANCH  21  24
ATOM     24  O   UNL     1       9.380   2.173  21.959  0.00  0.00    -0.495 OA
ATOM     25  C   UNL     1       8.037   2.629  21.999  0.00  0.00    +0.277 C 
ENDBRANCH  21  24
ENDBRANCH  17  18
ENDBRANCH   9  17
TORSDOF 7
ENDMDL
MODEL 5
REMARK VINA RESULT:      -6.0      3.675      6.659
REMARK  Name = 
REMARK  9 active torsions:
REMARK  status: ('A' for Active; 'I' for Inactive)
REMARK    1  A    between atoms: C_1  and  C_2
REMARK    2  A    between atoms: C_2  and  C_3
REMARK    3  A    between atoms: C_3  and  C_4
REMARK    4  A    between atoms: C_4  and  N_5
REMARK    5  A    between atoms: C_6  and  C_7
REMARK    6  A    between atoms: C_7  and  C_8
REMARK    7  A    between atoms: C_11  and  O_12
REMARK    8  A    between atoms: O_12  and  C_13
REMARK    9  A    between atoms: C_18  and  N_19
REMARK                            x       y       z     vdW  Elec       q    Type
REMARK                         _______ _______ _______ _____ _____    ______ ____
ROOT
ATOM      1  N   UNL     1       8.862  -0.719  24.996  0.00  0.00    -0.312 N 
ATOM      2  C   UNL     1       8.839   0.620  24.694  0.00  0.00    +0.166 A 
ATOM      3  C   UNL     1       9.399   0.713  23.436  0.00  0.00    +0.148 A 
ATOM      4  C   UNL     1       9.584   2.008  22.919  0.00  0.00    +0.147 A 
ATOM      5  N   UNL     1       9.120   3.058  23.632  0.00  0.00    -0.219 NA
ATOM      6  C   UNL     1       8.549   2.814  24.831  0.00  0.00    +0.225 A 
ATOM      7  N   UNL     1       9.640  -0.542  22.924  0.00  0.00    -0.227 NA
ATOM      8  N   UNL     1       8.391   1.630  25.457  0.00  0.00    -0.216 NA
ATOM      9  C   UNL     1       9.269  -1.398  23.864  0.00  0.00    +0.116 A 
ENDROOT
BRANCH   4  10
ATOM     10  N   UNL     1      10.210   2.269  21.708  0.00  0.00    -0.341 N 
ATOM     11  H   UNL     1      10.737   3.131  21.723  0.00  0.00    +0.144 HD
ATOM     12  H   UNL     1       9.641   2.064  20.895  0.00  0.00    +0.144 HD
ENDBRANCH   4  10
BRANCH   1  13
ATOM     13  C   UNL     1       8.487  -1.266  26.285  0.00  0.00    +0.125 C 
BRANCH  13  14
ATOM     14  C   UNL     1       7.007  -1.644  26.417  0.00  0.00    +0.021 C 
BRANCH  14  16
ATOM     15  C   UNL     1       5.378  -3.558  26.274  0.00  0.00    +0.004 C 
ATOM     16  C   UNL     1       6.772  -3.128  26.706  0.00  0.00    -0.002 C 
ENDBRANCH  14  16
ENDBRANCH  13  14
ENDBRANCH   1  13
BRANCH   9  17
ATOM     17  C   UNL     1       9.198  -2.900  23.699  0.00  0.00    +0.109 C 
BRANCH  17  18
ATOM     18  C   UNL     1       7.882  -3.492  23.220  0.00  0.00    -0.040 A 
ATOM     19  C   UNL     1       7.654  -4.867  23.416  0.00  0.00    +0.007 A 
ATOM     20  C   UNL     1       6.395  -5.440  23.175  0.00  0.00    +0.046 A 
ATOM     21  C   UNL     1       5.344  -4.641  22.733  0.00  0.00    +0.120 A 
ATOM     22  C   UNL     1       5.589  -3.297  22.456  0.00  0.00    +0.046 A 
ATOM     23  C   UNL     1       6.846  -2.731  22.674  0.00  0.00    +0.007 A 
BRANCH  21  24
ATOM     24  O   UNL     1       4.039  -5.016  22.588  0.00  0.00    -0.495 OA
ATOM     25  C   UNL     1       3.517  -5.946  23.523  0.00  0.00    +0.277 C 
ENDBRANCH  21  24
ENDBRANCH  17  18
ENDBRANCH   9  17
TORSDOF 7
ENDMDL
MODEL 6
REMARK VINA RESULT:      -5.8      3.501      6.805
REMARK  Name = 
REMARK  9 active torsions:
REMARK  status: ('A' for Active; 'I' for Inactive)
REMARK    1  A    between atoms: C_1  and  C_2
REMARK    2  A    between atoms: C_2  and  C_3
REMARK    3  A    between atoms: C_3  and  C_4
REMARK    4  A    between atoms: C_4  and  N_5
REMARK    5  A    between atoms: C_6  and  C_7
REMARK    6  A    between atoms: C_7  and  C_8
REMARK    7  A    between atoms: C_11  and  O_12
REMARK    8  A    between atoms: O_12  and  C_13
REMARK    9  A    between atoms: C_18  and  N_19
REMARK                            x       y       z     vdW  Elec       q    Type
REMARK                         _______ _______ _______ _____ _____    ______ ____
ROOT
ATOM      1  N   UNL     1       9.240  -2.199  23.629  0.00  0.00    -0.312 N 
ATOM      2  C   UNL     1       9.710  -0.918  23.767  0.00  0.00    +0.166 A 
ATOM      3  C   UNL     1       9.244  -0.243  22.657  0.00  0.00    +0.148 A 
ATOM      4  C   UNL     1       9.667   1.089  22.500  0.00  0.00    +0.147 A 
ATOM      5  N   UNL     1      10.411   1.648  23.480  0.00  0.00    -0.219 NA
ATOM      6  C   UNL     1      10.755   0.881  24.537  0.00  0.00    +0.225 A 
ATOM      7  N   UNL     1       8.403  -1.050  21.923  0.00  0.00    -0.227 NA
ATOM      8  N   UNL     1      10.475  -0.421  24.753  0.00  0.00    -0.216 NA
ATOM      9  C   UNL     1       8.378  -2.216  22.550  0.00  0.00    +0.116 A 
ENDROOT
BRANCH   4  10
ATOM     10  N   UNL     1       9.355   1.869  21.395  0.00  0.00    -0.341 N 
ATOM     11  H   UNL     1       8.707   1.413  20.769  0.00  0.00    +0.144 HD
ATOM     12  H   UNL     1      10.148   2.359  20.997  0.00  0.00    +0.144 HD
ENDBRANCH   4  10
BRANCH   1  13
ATOM     13  C   UNL     1       9.598  -3.294  24.510  0.00  0.00    +0.125 C 
BRANCH  13  14
ATOM     14  C   UNL     1       8.649  -3.502  25.695  0.00  0.00    +0.021 C 
BRANCH  14  16
ATOM     15  C   UNL     1       6.951  -5.280  26.239  0.00  0.00    +0.004 C 
ATOM     16  C   UNL     1       8.430  -4.972  26.061  0.00  0.00    -0.002 C 
ENDBRANCH  14  16
ENDBRANCH  13  14
ENDBRANCH   1  13
BRANCH   9  17
ATOM     17  C   UNL     1       7.466  -3.373  22.206  0.00  0.00    +0.109 C 
BRANCH  17  18
ATOM     18  C   UNL     1       6.138  -3.464  22.942  0.00  0.00    -0.040 A 
ATOM     19  C   UNL     1       5.308  -4.573  22.695  0.00  0.00    +0.007 A 
ATOM     20  C   UNL     1       4.166  -4.818  23.475  0.00  0.00    +0.046 A 
ATOM     21  C   UNL     1       3.839  -3.953  24.515  0.00  0.00    +0.120 A 
ATOM     22  C   UNL     1       4.611  -2.808  24.708  0.00  0.00    +0.046 A 
ATOM     23  C   UNL     1       5.734  -2.551  23.919  0.00  0.00    +0.007 A 
BRANCH  21  24
ATOM     24  O   UNL     1       2.853  -4.128  25.442  0.00  0.00    -0.495 OA
ATOM     25  C   UNL     1       3.232  -4.125  26.810  0.00  0.00    +0.277 C 
ENDBRANCH  21  24
ENDBRANCH  17  18
ENDBRANCH   9  17
TORSDOF 7
ENDMDL
MODEL 7
REMARK VINA RESULT:      -5.7      2.655      4.033
REMARK  Name = 
REMARK  9 active torsions:
REMARK  status: ('A' for Active; 'I' for Inactive)
REMARK    1  A    between atoms: C_1  and  C_2
REMARK    2  A    between atoms: C_2  and  C_3
REMARK    3  A    between atoms: C_3  and  C_4
REMARK    4  A    between atoms: C_4  and  N_5
REMARK    5  A    between atoms: C_6  and  C_7
REMARK    6  A    between atoms: C_7  and  C_8
REMARK    7  A    between atoms: C_11  and  O_12
REMARK    8  A    between atoms: O_12  and  C_13
REMARK    9  A    between atoms: C_18  and  N_19
REMARK                            x       y       z     vdW  Elec       q    Type
REMARK                         _______ _______ _______ _____ _____    ______ ____
ROOT
ATOM      1  N   UNL     1       6.766  -5.180  24.133  0.00  0.00    -0.312 N 
ATOM      2  C   UNL     1       5.601  -5.634  24.698  0.00  0.00    +0.166 A 
ATOM      3  C   UNL     1       5.961  -6.073  25.957  0.00  0.00    +0.148 A 
ATOM      4  C   UNL     1       4.956  -6.684  26.727  0.00  0.00    +0.147 A 
ATOM      5  N   UNL     1       3.697  -6.716  26.235  0.00  0.00    -0.219 NA
ATOM      6  C   UNL     1       3.480  -6.204  25.004  0.00  0.00    +0.225 A 
ATOM      7  N   UNL     1       7.282  -5.778  26.208  0.00  0.00    -0.227 NA
ATOM      8  N   UNL     1       4.376  -5.670  24.150  0.00  0.00    -0.216 NA
ATOM      9  C   UNL     1       7.742  -5.198  25.110  0.00  0.00    +0.116 A 
ENDROOT
BRANCH   4  10
ATOM     10  N   UNL     1       5.181  -7.252  27.973  0.00  0.00    -0.341 N 
ATOM     11  H   UNL     1       6.084  -7.006  28.354  0.00  0.00    +0.144 HD
ATOM     12  H   UNL     1       4.869  -8.214  28.053  0.00  0.00    +0.144 HD
ENDBRANCH   4  10
BRANCH   1  13
ATOM     13  C   UNL     1       6.882  -4.744  22.755  0.00  0.00    +0.125 C 
BRANCH  13  14
ATOM     14  C   UNL     1       5.916  -3.623  22.352  0.00  0.00    +0.021 C 
BRANCH  14  16
ATOM     15  C   UNL     1       5.582  -1.951  24.205  0.00  0.00    +0.004 C 
ATOM     16  C   UNL     1       6.305  -2.247  22.899  0.00  0.00    -0.002 C 
ENDBRANCH  14  16
ENDBRANCH  13  14
ENDBRANCH   1  13
BRANCH   9  17
ATOM     17  C   UNL     1       9.103  -4.552  24.966  0.00  0.00    +0.109 C 
BRANCH  17  18
ATOM     18  C   UNL     1       9.155  -3.036  24.877  0.00  0.00    -0.040 A 
ATOM     19  C   UNL     1       8.615  -2.282  25.936  0.00  0.00    +0.007 A 
ATOM     20  C   UNL     1       8.799  -0.892  26.011  0.00  0.00    +0.046 A 
ATOM     21  C   UNL     1       9.529  -0.236  25.024  0.00  0.00    +0.120 A 
ATOM     22  C   UNL     1       9.993  -0.965  23.931  0.00  0.00    +0.046 A 
ATOM     23  C   UNL     1       9.791  -2.344  23.844  0.00  0.00    +0.007 A 
BRANCH  21  24
ATOM     24  O   UNL     1       9.911   1.075  25.027  0.00  0.00    -0.495 OA
ATOM     25  C   UNL     1      10.701   1.529  23.939  0.00  0.00    +0.277 C 
ENDBRANCH  21  24
ENDBRANCH  17  18
ENDBRANCH   9  17
TORSDOF 7
ENDMDL
MODEL 8
REMARK VINA RESULT:      -5.7      4.266      7.058
REMARK  Name = 
REMARK  9 active torsions:
REMARK  status: ('A' for Active; 'I' for Inactive)
REMARK    1  A    between atoms: C_1  and  C_2
REMARK    2  A    between atoms: C_2  and  C_3
REMARK    3  A    between atoms: C_3  and  C_4
REMARK    4  A    between atoms: C_4  and  N_5
REMARK    5  A    between atoms: C_6  and  C_7
REMARK    6  A    between atoms: C_7  and  C_8
REMARK    7  A    between atoms: C_11  and  O_12
REMARK    8  A    between atoms: O_12  and  C_13
REMARK    9  A    between atoms: C_18  and  N_19
REMARK                            x       y       z     vdW  Elec       q    Type
REMARK                         _______ _______ _______ _____ _____    ______ ____
ROOT
ATOM      1  N   UNL     1       9.276   3.592  23.637  0.00  0.00    -0.312 N 
ATOM      2  C   UNL     1      10.069   4.657  23.982  0.00  0.00    +0.166 A 
ATOM      3  C   UNL     1      11.293   4.396  23.399  0.00  0.00    +0.148 A 
ATOM      4  C   UNL     1      12.334   5.299  23.677  0.00  0.00    +0.147 A 
ATOM      5  N   UNL     1      12.051   6.402  24.406  0.00  0.00    -0.219 NA
ATOM      6  C   UNL     1      10.794   6.553  24.875  0.00  0.00    +0.225 A 
ATOM      7  N   UNL     1      11.218   3.269  22.610  0.00  0.00    -0.227 NA
ATOM      8  N   UNL     1       9.744   5.718  24.738  0.00  0.00    -0.216 NA
ATOM      9  C   UNL     1       9.978   2.820  22.732  0.00  0.00    +0.116 A 
ENDROOT
BRANCH   4  10
ATOM     10  N   UNL     1      13.639   5.127  23.236  0.00  0.00    -0.341 N 
ATOM     11  H   UNL     1      14.313   5.580  23.837  0.00  0.00    +0.144 HD
ATOM     12  H   UNL     1      13.751   5.213  22.232  0.00  0.00    +0.144 HD
ENDBRANCH   4  10
BRANCH   1  13
ATOM     13  C   UNL     1       7.934   3.382  24.145  0.00  0.00    +0.125 C 
BRANCH  13  14
ATOM     14  C   UNL     1       7.860   2.594  25.458  0.00  0.00    +0.021 C 
BRANCH  14  16
ATOM     15  C   UNL     1       6.292   1.241  24.025  0.00  0.00    +0.004 C 
ATOM     16  C   UNL     1       6.972   1.349  25.382  0.00  0.00    -0.002 C 
ENDBRANCH  14  16
ENDBRANCH  13  14
ENDBRANCH   1  13
BRANCH   9  17
ATOM     17  C   UNL     1       9.374   1.691  21.926  0.00  0.00    +0.109 C 
BRANCH  17  18
ATOM     18  C   UNL     1       9.588   0.274  22.433  0.00  0.00    -0.040 A 
ATOM     19  C   UNL     1      10.068   0.094  23.744  0.00  0.00    +0.007 A 
ATOM     20  C   UNL     1      10.106  -1.176  24.341  0.00  0.00    +0.046 A 
ATOM     21  C   UNL     1       9.662  -2.288  23.631  0.00  0.00    +0.120 A 
ATOM     22  C   UNL     1       9.266  -2.127  22.305  0.00  0.00    +0.046 A 
ATOM     23  C   UNL     1       9.249  -0.867  21.703  0.00  0.00    +0.007 A 
BRANCH  21  24
ATOM     24  O   UNL     1       9.506  -3.555  24.114  0.00  0.00    -0.495 OA
ATOM     25  C   UNL     1       8.213  -4.134  24.027  0.00  0.00    +0.277 C 
ENDBRANCH  21  24
ENDBRANCH  17  18
ENDBRANCH   9  17
TORSDOF 7
ENDMDL
MODEL 9
REMARK VINA RESULT:      -5.5      3.593      6.415
REMARK  Name = 
REMARK  9 active torsions:
REMARK  status: ('A' for Active; 'I' for Inactive)
REMARK    1  A    between atoms: C_1  and  C_2
REMARK    2  A    between atoms: C_2  and  C_3
REMARK    3  A    between atoms: C_3  and  C_4
REMARK    4  A    between atoms: C_4  and  N_5
REMARK    5  A    between atoms: C_6  and  C_7
REMARK    6  A    between atoms: C_7  and  C_8
REMARK    7  A    between atoms: C_11  and  O_12
REMARK    8  A    between atoms: O_12  and  C_13
REMARK    9  A    between atoms: C_18  and  N_19
REMARK                            x       y       z     vdW  Elec       q    Type
REMARK                         _______ _______ _______ _____ _____    ______ ____
ROOT
ATOM      1  N   UNL     1       8.275   1.016  23.533  0.00  0.00    -0.312 N 
ATOM      2  C   UNL     1       8.611   2.305  23.859  0.00  0.00    +0.166 A 
ATOM      3  C   UNL     1       9.817   2.532  23.227  0.00  0.00    +0.148 A 
ATOM      4  C   UNL     1      10.442   3.767  23.476  0.00  0.00    +0.147 A 
ATOM      5  N   UNL     1       9.787   4.679  24.228  0.00  0.00    -0.219 NA
ATOM      6  C   UNL     1       8.588   4.337  24.747  0.00  0.00    +0.225 A 
ATOM      7  N   UNL     1      10.149   1.460  22.428  0.00  0.00    -0.227 NA
ATOM      8  N   UNL     1       7.934   3.163  24.640  0.00  0.00    -0.216 NA
ATOM      9  C   UNL     1       9.183   0.570  22.592  0.00  0.00    +0.116 A 
ENDROOT
BRANCH   4  10
ATOM     10  N   UNL     1      11.694   4.108  22.984  0.00  0.00    -0.341 N 
ATOM     11  H   UNL     1      12.362   4.292  23.718  0.00  0.00    +0.144 HD
ATOM     12  H   UNL     1      11.669   4.733  22.185  0.00  0.00    +0.144 HD
ENDBRANCH   4  10
BRANCH   1  13
ATOM     13  C   UNL     1       7.137   0.309  24.089  0.00  0.00    +0.125 C 
BRANCH  13  14
ATOM     14  C   UNL     1       7.337  -0.202  25.521  0.00  0.00    +0.021 C 
BRANCH  14  16
ATOM     15  C   UNL     1       5.434  -1.736  24.913  0.00  0.00    +0.004 C 
ATOM     16  C   UNL     1       6.658  -1.546  25.797  0.00  0.00    -0.002 C 
ENDBRANCH  14  16
ENDBRANCH  13  14
ENDBRANCH   1  13
BRANCH   9  17
ATOM     17  C   UNL     1       9.027  -0.708  21.796  0.00  0.00    +0.109 C 
BRANCH  17  18
ATOM     18  C   UNL     1       8.945  -2.013  22.572  0.00  0.00    -0.040 A 
ATOM     19  C   UNL     1       9.870  -2.238  23.608  0.00  0.00    +0.007 A 
ATOM     20  C   UNL     1       9.734  -3.326  24.485  0.00  0.00    +0.046 A 
ATOM     21  C   UNL     1       8.666  -4.205  24.337  0.00  0.00    +0.120 A 
ATOM     22  C   UNL     1       7.795  -4.034  23.261  0.00  0.00    +0.046 A 
ATOM     23  C   UNL     1       7.943  -2.966  22.374  0.00  0.00    +0.007 A 
BRANCH  21  24
ATOM     24  O   UNL     1       8.319  -5.218  25.183  0.00  0.00    -0.495 OA
ATOM     25  C   UNL     1       6.973  -5.266  25.630  0.00  0.00    +0.277 C 
ENDBRANCH  21  24
ENDBRANCH  17  18
ENDBRANCH   9  17
TORSDOF 7
ENDMDL
