MODEL 1
REMARK VINA RESULT:      -7.1      0.000      0.000
REMARK  Name = 
REMARK  3 active torsions:
REMARK  status: ('A' for Active; 'I' for Inactive)
REMARK    1  A    between atoms: C_1  and  C_2
REMARK    2  A    between atoms: N_8  and  C_17
REMARK    3  A    between atoms: C_11  and  O_12
REMARK                            x       y       z     vdW  Elec       q    Type
REMARK                         _______ _______ _______ _____ _____    ______ ____
ROOT
ATOM      1  C   UNL     1       6.458  -6.387  22.197  0.00  0.00    +0.044 C 
ATOM      2  C   UNL     1       6.624  -4.919  22.449  0.00  0.00    -0.050 A 
ATOM      3  C   UNL     1       7.844  -4.421  22.925  0.00  0.00    +0.019 A 
ATOM      4  C   UNL     1       8.009  -3.045  23.126  0.00  0.00    +0.072 A 
ATOM      5  C   UNL     1       6.982  -2.142  22.837  0.00  0.00    +0.187 A 
ATOM      6  N   UNL     1       7.070  -0.761  23.052  0.00  0.00    -0.042 NA
ATOM      7  C   UNL     1       8.207  -0.232  23.376  0.00  0.00    +0.334 C 
ATOM      8  C   UNL     1       9.506  -1.032  23.448  0.00  0.00    +0.235 C 
ATOM      9  C   UNL     1      10.197  -0.333  24.618  0.00  0.00    +0.099 C 
ATOM     10  C   UNL     1       9.686   1.120  24.573  0.00  0.00    +0.236 C 
ATOM     11  N   UNL     1       8.459   1.065  23.783  0.00  0.00    -0.188 N 
ATOM     12  C   UNL     1       5.762  -2.649  22.384  0.00  0.00    +0.056 A 
ATOM     13  C   UNL     1       9.282  -2.515  23.644  0.00  0.00    +0.211 C 
ATOM     14  O   UNL     1      10.147  -3.260  24.095  0.00  0.00    -0.288 OA
ATOM     15  C   UNL     1       5.580  -4.022  22.192  0.00  0.00    +0.007 A 
ENDROOT
BRANCH  11  16
ATOM     16  C   UNL     1       7.699   2.223  23.548  0.00  0.00    +0.121 A 
ATOM     17  C   UNL     1       6.708   2.655  24.450  0.00  0.00    +0.049 A 
ATOM     18  C   UNL     1       5.949   3.814  24.228  0.00  0.00    +0.004 A 
ATOM     19  C   UNL     1       6.160   4.578  23.089  0.00  0.00    +0.000 A 
ATOM     20  C   UNL     1       7.141   4.192  22.186  0.00  0.00    +0.004 A 
ATOM     21  C   UNL     1       7.900   3.037  22.420  0.00  0.00    +0.049 A 
ENDBRANCH  11  16
BRANCH   8  22
ATOM     22  O   UNL     1      10.315  -0.869  22.284  0.00  0.00    -0.370 OA
ATOM     23  H   UNL     1      11.106  -1.428  22.411  0.00  0.00    +0.211 HD
ENDBRANCH   8  22
TORSDOF 2
ENDMDL
MODEL 2
REMARK VINA RESULT:      -7.1      2.571      3.812
REMARK  Name = 
REMARK  3 active torsions:
REMARK  status: ('A' for Active; 'I' for Inactive)
REMARK    1  A    between atoms: C_1  and  C_2
REMARK    2  A    between atoms: N_8  and  C_17
REMARK    3  A    between atoms: C_11  and  O_12
REMARK                            x       y       z     vdW  Elec       q    Type
REMARK                         _______ _______ _______ _____ _____    ______ ____
ROOT
ATOM      1  C   UNL     1       2.823  -7.842  24.481  0.00  0.00    +0.044 C 
ATOM      2  C   UNL     1       3.719  -6.659  24.271  0.00  0.00    -0.050 A 
ATOM      3  C   UNL     1       4.880  -6.510  25.040  0.00  0.00    +0.019 A 
ATOM      4  C   UNL     1       5.735  -5.424  24.818  0.00  0.00    +0.072 A 
ATOM      5  C   UNL     1       5.467  -4.484  23.818  0.00  0.00    +0.187 A 
ATOM      6  N   UNL     1       6.260  -3.357  23.572  0.00  0.00    -0.042 NA
ATOM      7  C   UNL     1       7.403  -3.231  24.168  0.00  0.00    +0.334 C 
ATOM      8  C   UNL     1       7.990  -4.310  25.074  0.00  0.00    +0.235 C 
ATOM      9  C   UNL     1       8.693  -3.442  26.118  0.00  0.00    +0.099 C 
ATOM     10  C   UNL     1       9.097  -2.161  25.365  0.00  0.00    +0.236 C 
ATOM     11  N   UNL     1       8.241  -2.131  24.182  0.00  0.00    -0.188 N 
ATOM     12  C   UNL     1       4.297  -4.628  23.070  0.00  0.00    +0.056 A 
ATOM     13  C   UNL     1       6.947  -5.250  25.636  0.00  0.00    +0.211 C 
ATOM     14  O   UNL     1       7.138  -5.922  26.645  0.00  0.00    -0.288 OA
ATOM     15  C   UNL     1       3.428  -5.701  23.291  0.00  0.00    +0.007 A 
ENDROOT
BRANCH  11  16
ATOM     16  C   UNL     1       8.319  -1.075  23.260  0.00  0.00    +0.121 A 
ATOM     17  C   UNL     1       7.414   0.004  23.288  0.00  0.00    +0.049 A 
ATOM     18  C   UNL     1       7.488   1.067  22.378  0.00  0.00    +0.004 A 
ATOM     19  C   UNL     1       8.477   1.083  21.403  0.00  0.00    +0.000 A 
ATOM     20  C   UNL     1       9.398   0.045  21.355  0.00  0.00    +0.004 A 
ATOM     21  C   UNL     1       9.320  -1.009  22.275  0.00  0.00    +0.049 A 
ENDBRANCH  11  16
BRANCH   8  22
ATOM     22  O   UNL     1       8.974  -5.105  24.412  0.00  0.00    -0.370 OA
ATOM     23  H   UNL     1       9.409  -5.644  25.101  0.00  0.00    +0.211 HD
ENDBRANCH   8  22
TORSDOF 2
ENDMDL
MODEL 3
REMARK VINA RESULT:      -7.0      2.574      6.611
REMARK  Name = 
REMARK  3 active torsions:
REMARK  status: ('A' for Active; 'I' for Inactive)
REMARK    1  A    between atoms: C_1  and  C_2
REMARK    2  A    between atoms: N_8  and  C_17
REMARK    3  A    between atoms: C_11  and  O_12
REMARK                            x       y       z     vdW  Elec       q    Type
REMARK                         _______ _______ _______ _____ _____    ______ ____
ROOT
ATOM      1  C   UNL     1      10.752   4.200  23.498  0.00  0.00    +0.044 C 
ATOM      2  C   UNL     1      10.114   2.844  23.432  0.00  0.00    -0.050 A 
ATOM      3  C   UNL     1       9.188   2.454  24.407  0.00  0.00    +0.019 A 
ATOM      4  C   UNL     1       8.566   1.202  24.324  0.00  0.00    +0.072 A 
ATOM      5  C   UNL     1       8.833   0.330  23.264  0.00  0.00    +0.187 A 
ATOM      6  N   UNL     1       8.275  -0.948  23.143  0.00  0.00    -0.042 NA
ATOM      7  C   UNL     1       7.327  -1.315  23.946  0.00  0.00    +0.334 C 
ATOM      8  C   UNL     1       6.706  -0.380  24.980  0.00  0.00    +0.235 C 
ATOM      9  C   UNL     1       6.429  -1.366  26.115  0.00  0.00    +0.099 C 
ATOM     10  C   UNL     1       6.177  -2.716  25.417  0.00  0.00    +0.236 C 
ATOM     11  N   UNL     1       6.770  -2.573  24.090  0.00  0.00    -0.188 N 
ATOM     12  C   UNL     1       9.774   0.718  22.307  0.00  0.00    +0.056 A 
ATOM     13  C   UNL     1       7.607   0.776  25.356  0.00  0.00    +0.211 C 
ATOM     14  O   UNL     1       7.474   1.404  26.402  0.00  0.00    -0.288 OA
ATOM     15  C   UNL     1      10.411   1.960  22.387  0.00  0.00    +0.007 A 
ENDROOT
BRANCH  11  16
ATOM     16  C   UNL     1       6.747  -3.634  23.170  0.00  0.00    +0.121 A 
ATOM     17  C   UNL     1       7.468  -4.823  23.392  0.00  0.00    +0.049 A 
ATOM     18  C   UNL     1       7.446  -5.891  22.483  0.00  0.00    +0.004 A 
ATOM     19  C   UNL     1       6.697  -5.800  21.317  0.00  0.00    +0.000 A 
ATOM     20  C   UNL     1       5.960  -4.649  21.074  0.00  0.00    +0.004 A 
ATOM     21  C   UNL     1       5.982  -3.590  21.992  0.00  0.00    +0.049 A 
ENDBRANCH  11  16
BRANCH   8  22
ATOM     22  O   UNL     1       5.462   0.169  24.545  0.00  0.00    -0.370 OA
ATOM     23  H   UNL     1       5.587   1.135  24.482  0.00  0.00    +0.211 HD
ENDBRANCH   8  22
TORSDOF 2
ENDMDL
MODEL 4
REMARK VINA RESULT:      -6.7      1.662      6.368
REMARK  Name = 
REMARK  3 active torsions:
REMARK  status: ('A' for Active; 'I' for Inactive)
REMARK    1  A    between atoms: C_1  and  C_2
REMARK    2  A    between atoms: N_8  and  C_17
REMARK    3  A    between atoms: C_11  and  O_12
REMARK                            x       y       z     vdW  Elec       q    Type
REMARK                         _______ _______ _______ _____ _____    ______ ____
ROOT
ATOM      1  C   UNL     1       7.628   6.439  22.574  0.00  0.00    +0.044 C 
ATOM      2  C   UNL     1       7.514   4.946  22.652  0.00  0.00    -0.050 A 
ATOM      3  C   UNL     1       8.589   4.182  23.125  0.00  0.00    +0.019 A 
ATOM      4  C   UNL     1       8.468   2.791  23.230  0.00  0.00    +0.072 A 
ATOM      5  C   UNL     1       7.278   2.140  22.894  0.00  0.00    +0.187 A 
ATOM      6  N   UNL     1       7.106   0.751  22.940  0.00  0.00    -0.042 NA
ATOM      7  C   UNL     1       8.020   0.007  23.479  0.00  0.00    +0.334 C 
ATOM      8  C   UNL     1       9.258   0.578  24.165  0.00  0.00    +0.235 C 
ATOM      9  C   UNL     1      10.294  -0.483  23.794  0.00  0.00    +0.099 C 
ATOM     10  C   UNL     1       9.494  -1.793  23.664  0.00  0.00    +0.236 C 
ATOM     11  N   UNL     1       8.108  -1.373  23.475  0.00  0.00    -0.188 N 
ATOM     12  C   UNL     1       6.219   2.906  22.402  0.00  0.00    +0.056 A 
ATOM     13  C   UNL     1       9.600   1.979  23.708  0.00  0.00    +0.211 C 
ATOM     14  O   UNL     1      10.722   2.460  23.836  0.00  0.00    -0.288 OA
ATOM     15  C   UNL     1       6.332   4.295  22.280  0.00  0.00    +0.007 A 
ENDROOT
BRANCH  11  16
ATOM     16  C   UNL     1       7.085  -2.318  23.296  0.00  0.00    +0.121 A 
ATOM     17  C   UNL     1       7.181  -3.344  22.336  0.00  0.00    +0.049 A 
ATOM     18  C   UNL     1       6.169  -4.297  22.155  0.00  0.00    +0.004 A 
ATOM     19  C   UNL     1       5.021  -4.251  22.935  0.00  0.00    +0.000 A 
ATOM     20  C   UNL     1       4.899  -3.264  23.903  0.00  0.00    +0.004 A 
ATOM     21  C   UNL     1       5.920  -2.321  24.082  0.00  0.00    +0.049 A 
ENDBRANCH  11  16
BRANCH   8  22
ATOM     22  O   UNL     1       9.132   0.609  25.587  0.00  0.00    -0.370 OA
ATOM     23  H   UNL     1       9.663   1.366  25.900  0.00  0.00    +0.211 HD
ENDBRANCH   8  22
TORSDOF 2
ENDMDL
MODEL 5
REMARK VINA RESULT:      -6.5      1.578      1.759
REMARK  Name = 
REMARK  3 active torsions:
REMARK  status: ('A' for Active; 'I' for Inactive)
REMARK    1  A    between atoms: C_1  and  C_2
REMARK    2  A    between atoms: N_8  and  C_17
REMARK    3  A    between atoms: C_11  and  O_12
REMARK                            x       y       z     vdW  Elec       q    Type
REMARK                         _______ _______ _______ _____ _____    ______ ____
ROOT
ATOM      1  C   UNL     1       5.227  -6.078  25.261  0.00  0.00    +0.044 C 
ATOM      2  C   UNL     1       5.725  -4.700  24.945  0.00  0.00    -0.050 A 
ATOM      3  C   UNL     1       7.079  -4.492  24.652  0.00  0.00    +0.019 A 
ATOM      4  C   UNL     1       7.537  -3.211  24.322  0.00  0.00    +0.072 A 
ATOM      5  C   UNL     1       6.660  -2.124  24.255  0.00  0.00    +0.187 A 
ATOM      6  N   UNL     1       7.061  -0.813  23.969  0.00  0.00    -0.042 NA
ATOM      7  C   UNL     1       8.273  -0.582  23.575  0.00  0.00    +0.334 C 
ATOM      8  C   UNL     1       9.286  -1.692  23.309  0.00  0.00    +0.235 C 
ATOM      9  C   UNL     1      10.573  -1.009  23.772  0.00  0.00    +0.099 C 
ATOM     10  C   UNL     1      10.345   0.491  23.510  0.00  0.00    +0.236 C 
ATOM     11  N   UNL     1       8.896   0.641  23.405  0.00  0.00    -0.188 N 
ATOM     12  C   UNL     1       5.317  -2.336  24.570  0.00  0.00    +0.056 A 
ATOM     13  C   UNL     1       8.962  -2.981  24.032  0.00  0.00    +0.211 C 
ATOM     14  O   UNL     1       9.807  -3.841  24.258  0.00  0.00    -0.288 OA
ATOM     15  C   UNL     1       4.850  -3.608  24.914  0.00  0.00    +0.007 A 
ENDROOT
BRANCH  11  16
ATOM     16  C   UNL     1       8.314   1.900  23.186  0.00  0.00    +0.121 A 
ATOM     17  C   UNL     1       7.449   2.140  22.100  0.00  0.00    +0.049 A 
ATOM     18  C   UNL     1       6.857   3.391  21.877  0.00  0.00    +0.004 A 
ATOM     19  C   UNL     1       7.114   4.448  22.739  0.00  0.00    +0.000 A 
ATOM     20  C   UNL     1       7.948   4.245  23.830  0.00  0.00    +0.004 A 
ATOM     21  C   UNL     1       8.529   2.988  24.049  0.00  0.00    +0.049 A 
ENDBRANCH  11  16
BRANCH   8  22
ATOM     22  O   UNL     1       9.412  -1.997  21.920  0.00  0.00    -0.370 OA
ATOM     23  H   UNL     1       8.833  -1.373  21.442  0.00  0.00    +0.211 HD
ENDBRANCH   8  22
TORSDOF 2
ENDMDL
MODEL 6
REMARK VINA RESULT:      -6.5      2.583      3.186
REMARK  Name = 
REMARK  3 active torsions:
REMARK  status: ('A' for Active; 'I' for Inactive)
REMARK    1  A    between atoms: C_1  and  C_2
REMARK    2  A    between atoms: N_8  and  C_17
REMARK    3  A    between atoms: C_11  and  O_12
REMARK                            x       y       z     vdW  Elec       q    Type
REMARK                         _______ _______ _______ _____ _____    ______ ____
ROOT
ATOM      1  C   UNL     1       9.134  -5.452  25.337  0.00  0.00    +0.044 C 
ATOM      2  C   UNL     1       9.037  -3.955  25.335  0.00  0.00    -0.050 A 
ATOM      3  C   UNL     1       9.446  -3.226  24.212  0.00  0.00    +0.019 A 
ATOM      4  C   UNL     1       9.321  -1.831  24.198  0.00  0.00    +0.072 A 
ATOM      5  C   UNL     1       8.770  -1.142  25.282  0.00  0.00    +0.187 A 
ATOM      6  N   UNL     1       8.654   0.252  25.346  0.00  0.00    -0.042 NA
ATOM      7  C   UNL     1       8.903   0.967  24.295  0.00  0.00    +0.334 C 
ATOM      8  C   UNL     1       9.235   0.358  22.935  0.00  0.00    +0.235 C 
ATOM      9  C   UNL     1      10.240   1.383  22.411  0.00  0.00    +0.099 C 
ATOM     10  C   UNL     1       9.821   2.718  23.055  0.00  0.00    +0.236 C 
ATOM     11  N   UNL     1       9.002   2.343  24.204  0.00  0.00    -0.188 N 
ATOM     12  C   UNL     1       8.386  -1.875  26.407  0.00  0.00    +0.056 A 
ATOM     13  C   UNL     1       9.767  -1.055  23.028  0.00  0.00    +0.211 C 
ATOM     14  O   UNL     1      10.428  -1.572  22.133  0.00  0.00    -0.288 OA
ATOM     15  C   UNL     1       8.517  -3.267  26.438  0.00  0.00    +0.007 A 
ENDROOT
BRANCH  11  16
ATOM     16  C   UNL     1       8.457   3.321  25.052  0.00  0.00    +0.121 A 
ATOM     17  C   UNL     1       8.863   4.668  24.990  0.00  0.00    +0.049 A 
ATOM     18  C   UNL     1       8.319   5.653  25.827  0.00  0.00    +0.004 A 
ATOM     19  C   UNL     1       7.346   5.317  26.759  0.00  0.00    +0.000 A 
ATOM     20  C   UNL     1       6.909   4.002  26.837  0.00  0.00    +0.004 A 
ATOM     21  C   UNL     1       7.452   3.026  25.991  0.00  0.00    +0.049 A 
ENDBRANCH  11  16
BRANCH   8  22
ATOM     22  O   UNL     1       8.110   0.338  22.056  0.00  0.00    -0.370 OA
ATOM     23  H   UNL     1       7.555  -0.418  22.328  0.00  0.00    +0.211 HD
ENDBRANCH   8  22
TORSDOF 2
ENDMDL
MODEL 7
REMARK VINA RESULT:      -6.4      2.099      6.659
REMARK  Name = 
REMARK  3 active torsions:
REMARK  status: ('A' for Active; 'I' for Inactive)
REMARK    1  A    between atoms: C_1  and  C_2
REMARK    2  A    between atoms: N_8  and  C_17
REMARK    3  A    between atoms: C_11  and  O_12
REMARK                            x       y       z     vdW  Elec       q    Type
REMARK                         _______ _______ _______ _____ _____    ______ ____
ROOT
ATOM      1  C   UNL     1       7.903   5.680  26.058  0.00  0.00    +0.044 C 
ATOM      2  C   UNL     1       7.916   4.216  25.737  0.00  0.00    -0.050 A 
ATOM      3  C   UNL     1       8.701   3.734  24.682  0.00  0.00    +0.019 A 
ATOM      4  C   UNL     1       8.741   2.363  24.406  0.00  0.00    +0.072 A 
ATOM      5  C   UNL     1       8.025   1.447  25.183  0.00  0.00    +0.187 A 
ATOM      6  N   UNL     1       7.993   0.069  24.935  0.00  0.00    -0.042 NA
ATOM      7  C   UNL     1       8.788  -0.446  24.052  0.00  0.00    +0.334 C 
ATOM      8  C   UNL     1       9.848   0.368  23.314  0.00  0.00    +0.235 C 
ATOM      9  C   UNL     1       9.818  -0.314  21.947  0.00  0.00    +0.099 C 
ATOM     10  C   UNL     1       9.415  -1.772  22.237  0.00  0.00    +0.236 C 
ATOM     11  N   UNL     1       8.792  -1.737  23.557  0.00  0.00    -0.188 N 
ATOM     12  C   UNL     1       7.228   1.937  26.219  0.00  0.00    +0.056 A 
ATOM     13  C   UNL     1       9.548   1.850  23.286  0.00  0.00    +0.211 C 
ATOM     14  O   UNL     1      10.041   2.608  22.456  0.00  0.00    -0.288 OA
ATOM     15  C   UNL     1       7.170   3.306  26.496  0.00  0.00    +0.007 A 
ENDROOT
BRANCH  11  16
ATOM     16  C   UNL     1       8.276  -2.904  24.143  0.00  0.00    +0.121 A 
ATOM     17  C   UNL     1       9.040  -3.691  25.027  0.00  0.00    +0.049 A 
ATOM     18  C   UNL     1       8.531  -4.854  25.624  0.00  0.00    +0.004 A 
ATOM     19  C   UNL     1       7.234  -5.267  25.351  0.00  0.00    +0.000 A 
ATOM     20  C   UNL     1       6.445  -4.507  24.498  0.00  0.00    +0.004 A 
ATOM     21  C   UNL     1       6.960  -3.342  23.913  0.00  0.00    +0.049 A 
ENDBRANCH  11  16
BRANCH   8  22
ATOM     22  O   UNL     1      11.152   0.203  23.872  0.00  0.00    -0.370 OA
ATOM     23  H   UNL     1      11.355  -0.751  23.834  0.00  0.00    +0.211 HD
ENDBRANCH   8  22
TORSDOF 2
ENDMDL
MODEL 8
REMARK VINA RESULT:      -6.4      3.789      7.368
REMARK  Name = 
REMARK  3 active torsions:
REMARK  status: ('A' for Active; 'I' for Inactive)
REMARK    1  A    between atoms: C_1  and  C_2
REMARK    2  A    between atoms: N_8  and  C_17
REMARK    3  A    between atoms: C_11  and  O_12
REMARK                            x       y       z     vdW  Elec       q    Type
REMARK                         _______ _______ _______ _____ _____    ______ ____
ROOT
ATOM      1  C   UNL     1      10.650   1.029  24.357  0.00  0.00    +0.044 C 
ATOM      2  C   UNL     1       9.758  -0.088  24.809  0.00  0.00    -0.050 A 
ATOM      3  C   UNL     1       9.342  -1.069  23.899  0.00  0.00    +0.019 A 
ATOM      4  C   UNL     1       8.539  -2.131  24.331  0.00  0.00    +0.072 A 
ATOM      5  C   UNL     1       8.155  -2.251  25.670  0.00  0.00    +0.187 A 
ATOM      6  N   UNL     1       7.322  -3.266  26.157  0.00  0.00    -0.042 NA
ATOM      7  C   UNL     1       7.006  -4.262  25.391  0.00  0.00    +0.334 C 
ATOM      8  C   UNL     1       7.577  -4.444  23.987  0.00  0.00    +0.235 C 
ATOM      9  C   UNL     1       6.370  -5.055  23.275  0.00  0.00    +0.099 C 
ATOM     10  C   UNL     1       5.612  -5.830  24.369  0.00  0.00    +0.236 C 
ATOM     11  N   UNL     1       6.080  -5.261  25.630  0.00  0.00    -0.188 N 
ATOM     12  C   UNL     1       8.555  -1.258  26.566  0.00  0.00    +0.056 A 
ATOM     13  C   UNL     1       8.082  -3.155  23.377  0.00  0.00    +0.211 C 
ATOM     14  O   UNL     1       8.220  -3.007  22.167  0.00  0.00    -0.288 OA
ATOM     15  C   UNL     1       9.347  -0.185  26.144  0.00  0.00    +0.007 A 
ENDROOT
BRANCH  11  16
ATOM     16  C   UNL     1       5.579  -5.718  26.859  0.00  0.00    +0.121 A 
ATOM     17  C   UNL     1       4.246  -6.150  27.003  0.00  0.00    +0.049 A 
ATOM     18  C   UNL     1       3.738  -6.616  28.224  0.00  0.00    +0.004 A 
ATOM     19  C   UNL     1       4.554  -6.662  29.347  0.00  0.00    +0.000 A 
ATOM     20  C   UNL     1       5.878  -6.260  29.239  0.00  0.00    +0.004 A 
ATOM     21  C   UNL     1       6.379  -5.804  28.012  0.00  0.00    +0.049 A 
ENDBRANCH  11  16
BRANCH   8  22
ATOM     22  O   UNL     1       8.648  -5.387  23.949  0.00  0.00    -0.370 OA
ATOM     23  H   UNL     1       9.248  -5.159  24.685  0.00  0.00    +0.211 HD
ENDBRANCH   8  22
TORSDOF 2
ENDMDL
MODEL 9
REMARK VINA RESULT:      -6.4      2.209      2.401
REMARK  Name = 
REMARK  3 active torsions:
REMARK  status: ('A' for Active; 'I' for Inactive)
REMARK    1  A    between atoms: C_1  and  C_2
REMARK    2  A    between atoms: N_8  and  C_17
REMARK    3  A    between atoms: C_11  and  O_12
REMARK                            x       y       z     vdW  Elec       q    Type
REMARK                         _______ _______ _______ _____ _____    ______ ____
ROOT
ATOM      1  C   UNL     1       7.461  -5.343  27.082  0.00  0.00    +0.044 C 
ATOM      2  C   UNL     1       7.531  -4.011  26.397  0.00  0.00    -0.050 A 
ATOM      3  C   UNL     1       8.517  -3.768  25.432  0.00  0.00    +0.019 A 
ATOM      4  C   UNL     1       8.559  -2.537  24.767  0.00  0.00    +0.072 A 
ATOM      5  C   UNL     1       7.615  -1.539  25.029  0.00  0.00    +0.187 A 
ATOM      6  N   UNL     1       7.626  -0.274  24.427  0.00  0.00    -0.042 NA
ATOM      7  C   UNL     1       8.437  -0.036  23.446  0.00  0.00    +0.334 C 
ATOM      8  C   UNL     1       9.336  -1.105  22.832  0.00  0.00    +0.235 C 
ATOM      9  C   UNL     1      10.568  -0.268  22.490  0.00  0.00    +0.099 C 
ATOM     10  C   UNL     1      10.024   1.145  22.207  0.00  0.00    +0.236 C 
ATOM     11  N   UNL     1       8.708   1.177  22.839  0.00  0.00    -0.188 N 
ATOM     12  C   UNL     1       6.650  -1.781  26.008  0.00  0.00    +0.056 A 
ATOM     13  C   UNL     1       9.604  -2.266  23.765  0.00  0.00    +0.211 C 
ATOM     14  O   UNL     1      10.566  -3.016  23.628  0.00  0.00    -0.288 OA
ATOM     15  C   UNL     1       6.605  -3.002  26.689  0.00  0.00    +0.007 A 
ENDROOT
BRANCH  11  16
ATOM     16  C   UNL     1       7.916   2.337  22.802  0.00  0.00    +0.121 A 
ATOM     17  C   UNL     1       6.600   2.321  22.301  0.00  0.00    +0.049 A 
ATOM     18  C   UNL     1       5.799   3.472  22.267  0.00  0.00    +0.004 A 
ATOM     19  C   UNL     1       6.295   4.681  22.735  0.00  0.00    +0.000 A 
ATOM     20  C   UNL     1       7.583   4.731  23.251  0.00  0.00    +0.004 A 
ATOM     21  C   UNL     1       8.373   3.574  23.289  0.00  0.00    +0.049 A 
ENDBRANCH  11  16
BRANCH   8  22
ATOM     22  O   UNL     1       8.803  -1.641  21.621  0.00  0.00    -0.370 OA
ATOM     23  H   UNL     1       9.557  -1.765  21.013  0.00  0.00    +0.211 HD
ENDBRANCH   8  22
TORSDOF 2
ENDMDL
