MODEL 1
REMARK VINA RESULT:      -7.5      0.000      0.000
REMARK  Name = 
REMARK  9 active torsions:
REMARK  status: ('A' for Active; 'I' for Inactive)
REMARK    1  A    between atoms: C_1  and  N_2
REMARK    2  A    between atoms: N_5  and  C_6
REMARK    3  A    between atoms: C_6  and  C_7
REMARK    4  A    between atoms: C_10  and  N_11
REMARK    5  A    between atoms: C_12  and  C_14
REMARK    6  A    between atoms: C_16  and  C_17
REMARK    7  A    between atoms: C_18  and  C_19
REMARK    8  A    between atoms: C_28  and  C_29
REMARK    9  A    between atoms: C_33  and  C_34
REMARK                            x       y       z     vdW  Elec       q    Type
REMARK                         _______ _______ _______ _____ _____    ______ ____
ROOT
ATOM      1  N   UNL     1       7.859  -1.417  24.008  0.00  0.00    -0.281 N 
ATOM      2  H   UNL     1       7.225  -0.631  23.992  0.00  0.00    +0.155 HD
ATOM      3  C   UNL     1       9.221  -1.151  23.988  0.00  0.00    +0.248 C 
ATOM      4  O   UNL     1      10.129  -1.962  24.120  0.00  0.00    -0.270 OA
ENDROOT
BRANCH   3   5
ATOM      5  C   UNL     1       9.612   0.275  23.843  0.00  0.00    +0.038 A 
ATOM      6  C   UNL     1      10.929   0.708  24.000  0.00  0.00    +0.013 A 
ATOM      7  C   UNL     1      11.225   2.066  23.875  0.00  0.00    +0.005 A 
ATOM      8  C   UNL     1      10.216   3.007  23.594  0.00  0.00    -0.035 A 
ATOM      9  C   UNL     1      10.621   4.451  23.473  0.00  0.00    +0.045 C 
ATOM     10  C   UNL     1       8.890   2.566  23.456  0.00  0.00    +0.029 A 
ATOM     11  C   UNL     1       8.596   1.206  23.583  0.00  0.00    +0.030 A 
BRANCH  10  12
ATOM     12  C   UNL     1       7.810   3.469  23.167  0.00  0.00    -0.059 C 
ATOM     13  C   UNL     1       6.887   4.209  22.974  0.00  0.00    -0.040 C 
BRANCH  13  14
ATOM     14  C   UNL     1       5.736   5.034  22.843  0.00  0.00    +0.136 A 
ATOM     15  N   UNL     1       4.448   4.650  22.547  0.00  0.00    -0.205 N 
ATOM     16  C   UNL     1       3.686   5.812  22.529  0.00  0.00    +0.155 A 
ATOM     17  C   UNL     1       2.308   5.684  22.241  0.00  0.00    +0.050 A 
ATOM     18  C   UNL     1       1.799   4.470  22.004  0.00  0.00    +0.025 A 
ATOM     19  C   UNL     1       2.735   3.321  22.058  0.00  0.00    +0.133 A 
ATOM     20  N   UNL     1       4.408   6.880  22.795  0.00  0.00    -0.233 NA
ATOM     21  N   UNL     1       4.005   3.373  22.314  0.00  0.00    -0.172 NA
ATOM     22  C   UNL     1       5.679   6.403  22.988  0.00  0.00    +0.150 A 
ENDBRANCH  13  14
ENDBRANCH  10  12
ENDBRANCH   3   5
BRANCH   1  26
ATOM     23  C   UNL     1       5.893  -5.134  24.510  0.00  0.00    -0.022 A 
ATOM     24  C   UNL     1       6.550  -4.841  23.299  0.00  0.00    +0.061 A 
ATOM     25  C   UNL     1       7.243  -3.609  23.189  0.00  0.00    +0.036 A 
ATOM     26  C   UNL     1       7.274  -2.682  24.240  0.00  0.00    +0.034 A 
ATOM     27  C   UNL     1       6.687  -3.033  25.451  0.00  0.00    +0.023 A 
ATOM     28  C   UNL     1       6.006  -4.236  25.584  0.00  0.00    +0.007 A 
BRANCH  24  29
ATOM     29  C   UNL     1       6.541  -5.742  22.080  0.00  0.00    +0.418 C 
ATOM     30  F   UNL     1       7.302  -5.240  21.065  0.00  0.00    -0.166 F 
ATOM     31  F   UNL     1       5.280  -5.849  21.560  0.00  0.00    -0.166 F 
ATOM     32  F   UNL     1       6.948  -7.026  22.256  0.00  0.00    -0.166 F 
ENDBRANCH  24  29
BRANCH  23  33
ATOM     33  C   UNL     1       5.018  -6.347  24.725  0.00  0.00    +0.120 C 
BRANCH  33  38
ATOM     34  C   UNL     1       0.443  -7.499  23.844  0.00  0.00    +0.105 C 
ATOM     35  N   UNL     1       1.832  -7.669  23.421  0.00  0.00    -0.303 NA
ATOM     36  C   UNL     1       2.638  -8.271  24.504  0.00  0.00    +0.099 C 
ATOM     37  C   UNL     1       3.015  -7.296  25.649  0.00  0.00    +0.100 C 
ATOM     38  N   UNL     1       3.661  -6.043  25.190  0.00  0.00    -0.296 NA
ATOM     39  C   UNL     1       2.806  -5.430  24.155  0.00  0.00    +0.100 C 
ATOM     40  C   UNL     1       2.418  -6.380  22.997  0.00  0.00    +0.099 C 
ENDBRANCH  33  38
ENDBRANCH  23  33
ENDBRANCH   1  26
TORSDOF 7
ENDMDL
MODEL 2
REMARK VINA RESULT:      -6.9      3.051      3.275
REMARK  Name = 
REMARK  9 active torsions:
REMARK  status: ('A' for Active; 'I' for Inactive)
REMARK    1  A    between atoms: C_1  and  N_2
REMARK    2  A    between atoms: N_5  and  C_6
REMARK    3  A    between atoms: C_6  and  C_7
REMARK    4  A    between atoms: C_10  and  N_11
REMARK    5  A    between atoms: C_12  and  C_14
REMARK    6  A    between atoms: C_16  and  C_17
REMARK    7  A    between atoms: C_18  and  C_19
REMARK    8  A    between atoms: C_28  and  C_29
REMARK    9  A    between atoms: C_33  and  C_34
REMARK                            x       y       z     vdW  Elec       q    Type
REMARK                         _______ _______ _______ _____ _____    ______ ____
ROOT
ATOM      1  N   UNL     1       7.169  -1.111  23.242  0.00  0.00    -0.281 N 
ATOM      2  H   UNL     1       6.624  -0.288  23.027  0.00  0.00    +0.155 HD
ATOM      3  C   UNL     1       8.492  -0.930  23.620  0.00  0.00    +0.248 C 
ATOM      4  O   UNL     1       9.263  -1.791  24.028  0.00  0.00    -0.270 OA
ENDROOT
BRANCH   3   5
ATOM      5  C   UNL     1       9.008   0.462  23.573  0.00  0.00    +0.038 A 
ATOM      6  C   UNL     1      10.052   0.844  22.730  0.00  0.00    +0.013 A 
ATOM      7  C   UNL     1      10.505   2.163  22.753  0.00  0.00    +0.005 A 
ATOM      8  C   UNL     1       9.927   3.116  23.614  0.00  0.00    -0.035 A 
ATOM      9  C   UNL     1      10.474   4.517  23.574  0.00  0.00    +0.045 C 
ATOM     10  C   UNL     1       8.890   2.719  24.473  0.00  0.00    +0.029 A 
ATOM     11  C   UNL     1       8.438   1.398  24.450  0.00  0.00    +0.030 A 
BRANCH  10  12
ATOM     12  C   UNL     1       8.252   3.638  25.376  0.00  0.00    -0.059 C 
ATOM     13  C   UNL     1       7.708   4.361  26.161  0.00  0.00    -0.040 C 
BRANCH  13  14
ATOM     14  C   UNL     1       7.018   5.117  27.149  0.00  0.00    +0.136 A 
ATOM     15  N   UNL     1       5.963   4.718  27.937  0.00  0.00    -0.205 N 
ATOM     16  C   UNL     1       5.638   5.805  28.739  0.00  0.00    +0.155 A 
ATOM     17  C   UNL     1       4.567   5.648  29.648  0.00  0.00    +0.050 A 
ATOM     18  C   UNL     1       3.919   4.478  29.702  0.00  0.00    +0.025 A 
ATOM     19  C   UNL     1       4.379   3.408  28.784  0.00  0.00    +0.133 A 
ATOM     20  N   UNL     1       6.416   6.840  28.507  0.00  0.00    -0.233 NA
ATOM     21  N   UNL     1       5.351   3.491  27.929  0.00  0.00    -0.172 NA
ATOM     22  C   UNL     1       7.272   6.419  27.521  0.00  0.00    +0.150 A 
ENDBRANCH  13  14
ENDBRANCH  10  12
ENDBRANCH   3   5
BRANCH   1  26
ATOM     23  C   UNL     1       4.952  -4.718  23.171  0.00  0.00    -0.022 A 
ATOM     24  C   UNL     1       6.159  -4.617  22.451  0.00  0.00    +0.061 A 
ATOM     25  C   UNL     1       6.900  -3.412  22.543  0.00  0.00    +0.036 A 
ATOM     26  C   UNL     1       6.455  -2.328  23.313  0.00  0.00    +0.034 A 
ATOM     27  C   UNL     1       5.303  -2.485  24.076  0.00  0.00    +0.023 A 
ATOM     28  C   UNL     1       4.563  -3.658  24.005  0.00  0.00    +0.007 A 
BRANCH  24  29
ATOM     29  C   UNL     1       6.711  -5.703  21.548  0.00  0.00    +0.418 C 
ATOM     30  F   UNL     1       7.996  -5.449  21.168  0.00  0.00    -0.166 F 
ATOM     31  F   UNL     1       6.003  -5.775  20.380  0.00  0.00    -0.166 F 
ATOM     32  F   UNL     1       6.705  -6.972  22.031  0.00  0.00    -0.166 F 
ENDBRANCH  24  29
BRANCH  23  33
ATOM     33  C   UNL     1       4.003  -5.890  23.068  0.00  0.00    +0.120 C 
BRANCH  33  38
ATOM     34  C   UNL     1       0.443  -8.550  24.881  0.00  0.00    +0.105 C 
ATOM     35  N   UNL     1       1.631  -8.545  24.028  0.00  0.00    -0.303 NA
ATOM     36  C   UNL     1       2.824  -8.134  24.797  0.00  0.00    +0.099 C 
ATOM     37  C   UNL     1       2.917  -6.613  25.084  0.00  0.00    +0.100 C 
ATOM     38  N   UNL     1       2.787  -5.759  23.879  0.00  0.00    -0.296 NA
ATOM     39  C   UNL     1       1.556  -6.148  23.164  0.00  0.00    +0.100 C 
ATOM     40  C   UNL     1       1.440  -7.660  22.860  0.00  0.00    +0.099 C 
ENDBRANCH  33  38
ENDBRANCH  23  33
ENDBRANCH   1  26
TORSDOF 7
ENDMDL
MODEL 3
REMARK VINA RESULT:      -6.9      1.644      2.187
REMARK  Name = 
REMARK  9 active torsions:
REMARK  status: ('A' for Active; 'I' for Inactive)
REMARK    1  A    between atoms: C_1  and  N_2
REMARK    2  A    between atoms: N_5  and  C_6
REMARK    3  A    between atoms: C_6  and  C_7
REMARK    4  A    between atoms: C_10  and  N_11
REMARK    5  A    between atoms: C_12  and  C_14
REMARK    6  A    between atoms: C_16  and  C_17
REMARK    7  A    between atoms: C_18  and  C_19
REMARK    8  A    between atoms: C_28  and  C_29
REMARK    9  A    between atoms: C_33  and  C_34
REMARK                            x       y       z     vdW  Elec       q    Type
REMARK                         _______ _______ _______ _____ _____    ______ ____
ROOT
ATOM      1  N   UNL     1       8.426  -0.189  24.615  0.00  0.00    -0.281 N 
ATOM      2  H   UNL     1       7.752   0.500  24.919  0.00  0.00    +0.155 HD
ATOM      3  C   UNL     1       9.634   0.267  24.108  0.00  0.00    +0.248 C 
ATOM      4  O   UNL     1      10.606  -0.413  23.805  0.00  0.00    -0.270 OA
ENDROOT
BRANCH   3   5
ATOM      5  C   UNL     1       9.777   1.739  23.968  0.00  0.00    +0.038 A 
ATOM      6  C   UNL     1      10.979   2.341  23.596  0.00  0.00    +0.013 A 
ATOM      7  C   UNL     1      11.053   3.731  23.507  0.00  0.00    +0.005 A 
ATOM      8  C   UNL     1       9.933   4.538  23.788  0.00  0.00    -0.035 A 
ATOM      9  C   UNL     1      10.097   6.029  23.665  0.00  0.00    +0.045 C 
ATOM     10  C   UNL     1       8.732   3.926  24.179  0.00  0.00    +0.029 A 
ATOM     11  C   UNL     1       8.661   2.534  24.269  0.00  0.00    +0.030 A 
BRANCH  10  12
ATOM     12  C   UNL     1       7.549   4.686  24.478  0.00  0.00    -0.059 C 
ATOM     13  C   UNL     1       6.533   5.275  24.718  0.00  0.00    -0.040 C 
BRANCH  13  14
ATOM     14  C   UNL     1       5.266   5.876  24.956  0.00  0.00    +0.136 A 
ATOM     15  N   UNL     1       4.235   6.058  24.064  0.00  0.00    -0.205 N 
ATOM     16  C   UNL     1       3.214   6.688  24.765  0.00  0.00    +0.155 A 
ATOM     17  C   UNL     1       2.028   6.992  24.060  0.00  0.00    +0.050 A 
ATOM     18  C   UNL     1       1.934   6.665  22.766  0.00  0.00    +0.025 A 
ATOM     19  C   UNL     1       3.105   5.995  22.151  0.00  0.00    +0.133 A 
ATOM     20  N   UNL     1       3.540   6.903  26.022  0.00  0.00    -0.233 NA
ATOM     21  N   UNL     1       4.218   5.691  22.742  0.00  0.00    -0.172 NA
ATOM     22  C   UNL     1       4.811   6.404  26.144  0.00  0.00    +0.150 A 
ENDBRANCH  13  14
ENDBRANCH  10  12
ENDBRANCH   3   5
BRANCH   1  26
ATOM     23  C   UNL     1       7.238  -4.168  25.445  0.00  0.00    -0.022 A 
ATOM     24  C   UNL     1       7.369  -3.734  24.112  0.00  0.00    +0.061 A 
ATOM     25  C   UNL     1       7.820  -2.411  23.874  0.00  0.00    +0.036 A 
ATOM     26  C   UNL     1       8.121  -1.534  24.925  0.00  0.00    +0.034 A 
ATOM     27  C   UNL     1       8.061  -2.014  26.228  0.00  0.00    +0.023 A 
ATOM     28  C   UNL     1       7.625  -3.307  26.485  0.00  0.00    +0.007 A 
BRANCH  24  29
ATOM     29  C   UNL     1       7.024  -4.577  22.899  0.00  0.00    +0.418 C 
ATOM     30  F   UNL     1       7.835  -5.668  22.785  0.00  0.00    -0.166 F 
ATOM     31  F   UNL     1       7.212  -3.871  21.743  0.00  0.00    -0.166 F 
ATOM     32  F   UNL     1       5.752  -5.044  22.812  0.00  0.00    -0.166 F 
ENDBRANCH  24  29
BRANCH  23  33
ATOM     33  C   UNL     1       6.653  -5.502  25.846  0.00  0.00    +0.120 C 
BRANCH  33  38
ATOM     34  C   UNL     1       1.900  -6.134  26.069  0.00  0.00    +0.105 C 
ATOM     35  N   UNL     1       3.074  -6.117  25.198  0.00  0.00    -0.303 NA
ATOM     36  C   UNL     1       4.060  -7.130  25.631  0.00  0.00    +0.099 C 
ATOM     37  C   UNL     1       4.879  -6.740  26.889  0.00  0.00    +0.100 C 
ATOM     38  N   UNL     1       5.538  -5.416  26.797  0.00  0.00    -0.296 NA
ATOM     39  C   UNL     1       4.521  -4.414  26.426  0.00  0.00    +0.100 C 
ATOM     40  C   UNL     1       3.693  -4.775  25.170  0.00  0.00    +0.099 C 
ENDBRANCH  33  38
ENDBRANCH  23  33
ENDBRANCH   1  26
TORSDOF 7
ENDMDL
MODEL 4
REMARK VINA RESULT:      -6.7      1.781      2.072
REMARK  Name = 
REMARK  9 active torsions:
REMARK  status: ('A' for Active; 'I' for Inactive)
REMARK    1  A    between atoms: C_1  and  N_2
REMARK    2  A    between atoms: N_5  and  C_6
REMARK    3  A    between atoms: C_6  and  C_7
REMARK    4  A    between atoms: C_10  and  N_11
REMARK    5  A    between atoms: C_12  and  C_14
REMARK    6  A    between atoms: C_16  and  C_17
REMARK    7  A    between atoms: C_18  and  C_19
REMARK    8  A    between atoms: C_28  and  C_29
REMARK    9  A    between atoms: C_33  and  C_34
REMARK                            x       y       z     vdW  Elec       q    Type
REMARK                         _______ _______ _______ _____ _____    ______ ____
ROOT
ATOM      1  N   UNL     1       8.447  -2.293  25.017  0.00  0.00    -0.281 N 
ATOM      2  H   UNL     1       8.915  -2.346  24.123  0.00  0.00    +0.155 HD
ATOM      3  C   UNL     1       8.423  -1.064  25.662  0.00  0.00    +0.248 C 
ATOM      4  O   UNL     1       7.808  -0.785  26.685  0.00  0.00    -0.270 OA
ENDROOT
BRANCH   3   5
ATOM      5  C   UNL     1       9.180   0.037  25.015  0.00  0.00    +0.038 A 
ATOM      6  C   UNL     1      10.566   0.000  24.859  0.00  0.00    +0.013 A 
ATOM      7  C   UNL     1      11.219   1.080  24.265  0.00  0.00    +0.005 A 
ATOM      8  C   UNL     1      10.503   2.208  23.820  0.00  0.00    -0.035 A 
ATOM      9  C   UNL     1      11.284   3.327  23.187  0.00  0.00    +0.045 C 
ATOM     10  C   UNL     1       9.110   2.245  23.997  0.00  0.00    +0.029 A 
ATOM     11  C   UNL     1       8.459   1.164  24.594  0.00  0.00    +0.030 A 
BRANCH  10  12
ATOM     12  C   UNL     1       8.315   3.362  23.565  0.00  0.00    -0.059 C 
ATOM     13  C   UNL     1       7.608   4.261  23.208  0.00  0.00    -0.040 C 
BRANCH  13  14
ATOM     14  C   UNL     1       6.678   5.245  22.772  0.00  0.00    +0.136 A 
ATOM     15  N   UNL     1       5.319   5.279  22.987  0.00  0.00    -0.205 N 
ATOM     16  C   UNL     1       4.851   6.430  22.367  0.00  0.00    +0.155 A 
ATOM     17  C   UNL     1       3.465   6.695  22.442  0.00  0.00    +0.050 A 
ATOM     18  C   UNL     1       2.670   5.843  23.099  0.00  0.00    +0.025 A 
ATOM     19  C   UNL     1       3.312   4.655  23.712  0.00  0.00    +0.133 A 
ATOM     20  N   UNL     1       5.820   7.108  21.789  0.00  0.00    -0.233 NA
ATOM     21  N   UNL     1       4.573   4.357  23.677  0.00  0.00    -0.172 NA
ATOM     22  C   UNL     1       6.953   6.376  22.036  0.00  0.00    +0.150 A 
ENDBRANCH  13  14
ENDBRANCH  10  12
ENDBRANCH   3   5
BRANCH   1  26
ATOM     23  C   UNL     1       6.003  -5.570  26.120  0.00  0.00    -0.022 A 
ATOM     24  C   UNL     1       6.073  -5.164  24.773  0.00  0.00    +0.061 A 
ATOM     25  C   UNL     1       6.944  -4.097  24.435  0.00  0.00    +0.036 A 
ATOM     26  C   UNL     1       7.714  -3.438  25.403  0.00  0.00    +0.034 A 
ATOM     27  C   UNL     1       7.686  -3.912  26.709  0.00  0.00    +0.023 A 
ATOM     28  C   UNL     1       6.844  -4.958  27.063  0.00  0.00    +0.007 A 
BRANCH  24  29
ATOM     29  C   UNL     1       5.251  -5.768  23.652  0.00  0.00    +0.418 C 
ATOM     30  F   UNL     1       5.844  -5.605  22.435  0.00  0.00    -0.166 F 
ATOM     31  F   UNL     1       4.039  -5.144  23.543  0.00  0.00    -0.166 F 
ATOM     32  F   UNL     1       4.948  -7.088  23.749  0.00  0.00    -0.166 F 
ENDBRANCH  24  29
BRANCH  23  33
ATOM     33  C   UNL     1       5.032  -6.604  26.640  0.00  0.00    +0.120 C 
BRANCH  33  38
ATOM     34  C   UNL     1       0.443  -5.546  27.568  0.00  0.00    +0.105 C 
ATOM     35  N   UNL     1       1.406  -5.939  26.540  0.00  0.00    -0.303 NA
ATOM     36  C   UNL     1       2.038  -7.230  26.883  0.00  0.00    +0.099 C 
ATOM     37  C   UNL     1       3.121  -7.148  27.989  0.00  0.00    +0.100 C 
ATOM     38  N   UNL     1       4.173  -6.135  27.734  0.00  0.00    -0.296 NA
ATOM     39  C   UNL     1       3.517  -4.843  27.456  0.00  0.00    +0.100 C 
ATOM     40  C   UNL     1       2.435  -4.895  26.352  0.00  0.00    +0.099 C 
ENDBRANCH  33  38
ENDBRANCH  23  33
ENDBRANCH   1  26
TORSDOF 7
ENDMDL
MODEL 5
REMARK VINA RESULT:      -6.2      3.831     11.055
REMARK  Name = 
REMARK  9 active torsions:
REMARK  status: ('A' for Active; 'I' for Inactive)
REMARK    1  A    between atoms: C_1  and  N_2
REMARK    2  A    between atoms: N_5  and  C_6
REMARK    3  A    between atoms: C_6  and  C_7
REMARK    4  A    between atoms: C_10  and  N_11
REMARK    5  A    between atoms: C_12  and  C_14
REMARK    6  A    between atoms: C_16  and  C_17
REMARK    7  A    between atoms: C_18  and  C_19
REMARK    8  A    between atoms: C_28  and  C_29
REMARK    9  A    between atoms: C_33  and  C_34
REMARK                            x       y       z     vdW  Elec       q    Type
REMARK                         _______ _______ _______ _____ _____    ______ ____
ROOT
ATOM      1  N   UNL     1       7.077  -0.318  22.539  0.00  0.00    -0.281 N 
ATOM      2  H   UNL     1       7.533  -0.874  21.829  0.00  0.00    +0.155 HD
ATOM      3  C   UNL     1       6.347  -0.986  23.513  0.00  0.00    +0.248 C 
ATOM      4  O   UNL     1       5.831  -0.493  24.509  0.00  0.00    -0.270 OA
ENDROOT
BRANCH   3   5
ATOM      5  C   UNL     1       6.226  -2.458  23.354  0.00  0.00    +0.038 A 
ATOM      6  C   UNL     1       6.428  -3.097  22.131  0.00  0.00    +0.013 A 
ATOM      7  C   UNL     1       6.273  -4.481  22.045  0.00  0.00    +0.005 A 
ATOM      8  C   UNL     1       5.914  -5.243  23.173  0.00  0.00    -0.035 A 
ATOM      9  C   UNL     1       5.771  -6.731  22.994  0.00  0.00    +0.045 C 
ATOM     10  C   UNL     1       5.694  -4.591  24.397  0.00  0.00    +0.029 A 
ATOM     11  C   UNL     1       5.848  -3.205  24.480  0.00  0.00    +0.030 A 
BRANCH  10  12
ATOM     12  C   UNL     1       5.329  -5.305  25.589  0.00  0.00    -0.059 C 
ATOM     13  C   UNL     1       4.991  -5.860  26.596  0.00  0.00    -0.040 C 
BRANCH  13  14
ATOM     14  C   UNL     1       4.535  -6.412  27.825  0.00  0.00    +0.136 A 
ATOM     15  N   UNL     1       3.279  -6.888  28.125  0.00  0.00    -0.205 N 
ATOM     16  C   UNL     1       3.327  -7.318  29.445  0.00  0.00    +0.155 A 
ATOM     17  C   UNL     1       2.143  -7.854  30.000  0.00  0.00    +0.050 A 
ATOM     18  C   UNL     1       1.041  -7.928  29.245  0.00  0.00    +0.025 A 
ATOM     19  C   UNL     1       1.141  -7.430  27.852  0.00  0.00    +0.133 A 
ATOM     20  N   UNL     1       4.518  -7.145  29.978  0.00  0.00    -0.233 NA
ATOM     21  N   UNL     1       2.194  -6.927  27.287  0.00  0.00    -0.172 NA
ATOM     22  C   UNL     1       5.269  -6.582  28.978  0.00  0.00    +0.150 A 
ENDBRANCH  13  14
ENDBRANCH  10  12
ENDBRANCH   3   5
BRANCH   1  26
ATOM     23  C   UNL     1       8.085   3.780  22.880  0.00  0.00    -0.022 A 
ATOM     24  C   UNL     1       9.069   2.792  23.081  0.00  0.00    +0.061 A 
ATOM     25  C   UNL     1       8.705   1.433  22.905  0.00  0.00    +0.036 A 
ATOM     26  C   UNL     1       7.401   1.057  22.555  0.00  0.00    +0.034 A 
ATOM     27  C   UNL     1       6.473   2.055  22.283  0.00  0.00    +0.023 A 
ATOM     28  C   UNL     1       6.808   3.394  22.445  0.00  0.00    +0.007 A 
BRANCH  24  29
ATOM     29  C   UNL     1      10.495   3.078  23.511  0.00  0.00    +0.418 C 
ATOM     30  F   UNL     1      10.579   4.185  24.304  0.00  0.00    -0.166 F 
ATOM     31  F   UNL     1      11.286   3.353  22.430  0.00  0.00    -0.166 F 
ATOM     32  F   UNL     1      11.151   2.090  24.172  0.00  0.00    -0.166 F 
ENDBRANCH  24  29
BRANCH  23  33
ATOM     33  C   UNL     1       8.298   5.251  23.151  0.00  0.00    +0.120 C 
BRANCH  33  38
ATOM     34  C   UNL     1       7.712   6.619  27.714  0.00  0.00    +0.105 C 
ATOM     35  N   UNL     1       8.600   5.960  26.757  0.00  0.00    -0.303 NA
ATOM     36  C   UNL     1       8.964   6.884  25.662  0.00  0.00    +0.099 C 
ATOM     37  C   UNL     1       7.850   7.107  24.607  0.00  0.00    +0.100 C 
ATOM     38  N   UNL     1       7.296   5.857  24.035  0.00  0.00    -0.296 NA
ATOM     39  C   UNL     1       6.884   4.980  25.147  0.00  0.00    +0.100 C 
ATOM     40  C   UNL     1       7.978   4.735  26.213  0.00  0.00    +0.099 C 
ENDBRANCH  33  38
ENDBRANCH  23  33
ENDBRANCH   1  26
TORSDOF 7
ENDMDL
MODEL 6
REMARK VINA RESULT:      -5.9      4.125     10.583
REMARK  Name = 
REMARK  9 active torsions:
REMARK  status: ('A' for Active; 'I' for Inactive)
REMARK    1  A    between atoms: C_1  and  N_2
REMARK    2  A    between atoms: N_5  and  C_6
REMARK    3  A    between atoms: C_6  and  C_7
REMARK    4  A    between atoms: C_10  and  N_11
REMARK    5  A    between atoms: C_12  and  C_14
REMARK    6  A    between atoms: C_16  and  C_17
REMARK    7  A    between atoms: C_18  and  C_19
REMARK    8  A    between atoms: C_28  and  C_29
REMARK    9  A    between atoms: C_33  and  C_34
REMARK                            x       y       z     vdW  Elec       q    Type
REMARK                         _______ _______ _______ _____ _____    ______ ____
ROOT
ATOM      1  N   UNL     1       8.060   0.620  23.605  0.00  0.00    -0.281 N 
ATOM      2  H   UNL     1       9.060   0.478  23.611  0.00  0.00    +0.155 HD
ATOM      3  C   UNL     1       7.259  -0.405  24.088  0.00  0.00    +0.248 C 
ATOM      4  O   UNL     1       6.047  -0.367  24.266  0.00  0.00    -0.270 OA
ENDROOT
BRANCH   3   5
ATOM      5  C   UNL     1       7.954  -1.659  24.476  0.00  0.00    +0.038 A 
ATOM      6  C   UNL     1       9.173  -2.042  23.918  0.00  0.00    +0.013 A 
ATOM      7  C   UNL     1       9.760  -3.245  24.309  0.00  0.00    +0.005 A 
ATOM      8  C   UNL     1       9.141  -4.082  25.257  0.00  0.00    -0.035 A 
ATOM      9  C   UNL     1       9.843  -5.361  25.625  0.00  0.00    +0.045 C 
ATOM     10  C   UNL     1       7.904  -3.699  25.801  0.00  0.00    +0.029 A 
ATOM     11  C   UNL     1       7.318  -2.495  25.407  0.00  0.00    +0.030 A 
BRANCH  10  12
ATOM     12  C   UNL     1       7.217  -4.502  26.775  0.00  0.00    -0.059 C 
ATOM     13  C   UNL     1       6.597  -5.159  27.562  0.00  0.00    -0.040 C 
BRANCH  13  14
ATOM     14  C   UNL     1       5.758  -5.891  28.447  0.00  0.00    +0.136 A 
ATOM     15  N   UNL     1       4.444  -6.257  28.258  0.00  0.00    -0.205 N 
ATOM     16  C   UNL     1       4.063  -6.954  29.399  0.00  0.00    +0.155 A 
ATOM     17  C   UNL     1       2.737  -7.440  29.453  0.00  0.00    +0.050 A 
ATOM     18  C   UNL     1       1.914  -7.217  28.422  0.00  0.00    +0.025 A 
ATOM     19  C   UNL     1       2.463  -6.459  27.271  0.00  0.00    +0.133 A 
ATOM     20  N   UNL     1       5.043  -7.046  30.271  0.00  0.00    -0.233 NA
ATOM     21  N   UNL     1       3.665  -5.986  27.162  0.00  0.00    -0.172 NA
ATOM     22  C   UNL     1       6.094  -6.387  29.687  0.00  0.00    +0.150 A 
ENDBRANCH  13  14
ENDBRANCH  10  12
ENDBRANCH   3   5
BRANCH   1  26
ATOM     23  C   UNL     1       6.553   4.506  22.860  0.00  0.00    -0.022 A 
ATOM     24  C   UNL     1       7.351   4.264  23.995  0.00  0.00    +0.061 A 
ATOM     25  C   UNL     1       7.881   2.963  24.182  0.00  0.00    +0.036 A 
ATOM     26  C   UNL     1       7.619   1.922  23.279  0.00  0.00    +0.034 A 
ATOM     27  C   UNL     1       6.897   2.210  22.127  0.00  0.00    +0.023 A 
ATOM     28  C   UNL     1       6.370   3.479  21.921  0.00  0.00    +0.007 A 
BRANCH  24  29
ATOM     29  C   UNL     1       7.658   5.297  25.062  0.00  0.00    +0.418 C 
ATOM     30  F   UNL     1       8.284   6.395  24.549  0.00  0.00    -0.166 F 
ATOM     31  F   UNL     1       8.525   4.795  25.994  0.00  0.00    -0.166 F 
ATOM     32  F   UNL     1       6.611   5.767  25.788  0.00  0.00    -0.166 F 
ENDBRANCH  24  29
BRANCH  23  33
ATOM     33  C   UNL     1       5.824   5.805  22.601  0.00  0.00    +0.120 C 
BRANCH  33  38
ATOM     34  C   UNL     1       1.050   5.713  22.123  0.00  0.00    +0.105 C 
ATOM     35  N   UNL     1       2.333   5.627  21.428  0.00  0.00    -0.303 NA
ATOM     36  C   UNL     1       3.130   4.494  21.941  0.00  0.00    +0.099 C 
ATOM     37  C   UNL     1       3.795   4.741  23.319  0.00  0.00    +0.100 C 
ATOM     38  N   UNL     1       4.600   5.983  23.390  0.00  0.00    -0.296 NA
ATOM     39  C   UNL     1       3.762   7.108  22.933  0.00  0.00    +0.100 C 
ATOM     40  C   UNL     1       3.090   6.890  21.557  0.00  0.00    +0.099 C 
ENDBRANCH  33  38
ENDBRANCH  23  33
ENDBRANCH   1  26
TORSDOF 7
ENDMDL
MODEL 7
REMARK VINA RESULT:      -5.9      4.112      5.710
REMARK  Name = 
REMARK  9 active torsions:
REMARK  status: ('A' for Active; 'I' for Inactive)
REMARK    1  A    between atoms: C_1  and  N_2
REMARK    2  A    between atoms: N_5  and  C_6
REMARK    3  A    between atoms: C_6  and  C_7
REMARK    4  A    between atoms: C_10  and  N_11
REMARK    5  A    between atoms: C_12  and  C_14
REMARK    6  A    between atoms: C_16  and  C_17
REMARK    7  A    between atoms: C_18  and  C_19
REMARK    8  A    between atoms: C_28  and  C_29
REMARK    9  A    between atoms: C_33  and  C_34
REMARK                            x       y       z     vdW  Elec       q    Type
REMARK                         _______ _______ _______ _____ _____    ______ ____
ROOT
ATOM      1  N   UNL     1       4.199  -1.658  28.207  0.00  0.00    -0.281 N 
ATOM      2  H   UNL     1       4.440  -1.181  27.350  0.00  0.00    +0.155 HD
ATOM      3  C   UNL     1       4.199  -0.919  29.381  0.00  0.00    +0.248 C 
ATOM      4  O   UNL     1       3.823  -1.295  30.485  0.00  0.00    -0.270 OA
ENDROOT
BRANCH   3   5
ATOM      5  C   UNL     1       4.657   0.490  29.274  0.00  0.00    +0.038 A 
ATOM      6  C   UNL     1       4.265   1.474  30.182  0.00  0.00    +0.013 A 
ATOM      7  C   UNL     1       4.711   2.785  30.008  0.00  0.00    +0.005 A 
ATOM      8  C   UNL     1       5.549   3.131  28.931  0.00  0.00    -0.035 A 
ATOM      9  C   UNL     1       5.987   4.567  28.820  0.00  0.00    +0.045 C 
ATOM     10  C   UNL     1       5.924   2.139  28.011  0.00  0.00    +0.029 A 
ATOM     11  C   UNL     1       5.476   0.828  28.185  0.00  0.00    +0.030 A 
BRANCH  10  12
ATOM     12  C   UNL     1       6.779   2.420  26.891  0.00  0.00    -0.059 C 
ATOM     13  C   UNL     1       7.499   2.601  25.950  0.00  0.00    -0.040 C 
BRANCH  13  14
ATOM     14  C   UNL     1       8.383   2.694  24.840  0.00  0.00    +0.136 A 
ATOM     15  N   UNL     1       8.617   1.753  23.863  0.00  0.00    -0.205 N 
ATOM     16  C   UNL     1       9.559   2.305  23.003  0.00  0.00    +0.155 A 
ATOM     17  C   UNL     1       9.976   1.522  21.902  0.00  0.00    +0.050 A 
ATOM     18  C   UNL     1       9.455   0.302  21.732  0.00  0.00    +0.025 A 
ATOM     19  C   UNL     1       8.458  -0.153  22.731  0.00  0.00    +0.133 A 
ATOM     20  N   UNL     1       9.918   3.515  23.376  0.00  0.00    -0.233 NA
ATOM     21  N   UNL     1       8.037   0.514  23.760  0.00  0.00    -0.172 NA
ATOM     22  C   UNL     1       9.194   3.759  24.514  0.00  0.00    +0.150 A 
ENDBRANCH  13  14
ENDBRANCH  10  12
ENDBRANCH   3   5
BRANCH   1  26
ATOM     23  C   UNL     1       2.804  -5.594  27.501  0.00  0.00    -0.022 A 
ATOM     24  C   UNL     1       4.186  -5.321  27.485  0.00  0.00    +0.061 A 
ATOM     25  C   UNL     1       4.616  -4.003  27.779  0.00  0.00    +0.036 A 
ATOM     26  C   UNL     1       3.707  -2.976  28.067  0.00  0.00    +0.034 A 
ATOM     27  C   UNL     1       2.356  -3.291  28.155  0.00  0.00    +0.023 A 
ATOM     28  C   UNL     1       1.911  -4.577  27.875  0.00  0.00    +0.007 A 
BRANCH  24  29
ATOM     29  C   UNL     1       5.255  -6.338  27.138  0.00  0.00    +0.418 C 
ATOM     30  F   UNL     1       5.231  -7.415  27.976  0.00  0.00    -0.166 F 
ATOM     31  F   UNL     1       6.505  -5.803  27.283  0.00  0.00    -0.166 F 
ATOM     32  F   UNL     1       5.243  -6.843  25.877  0.00  0.00    -0.166 F 
ENDBRANCH  24  29
BRANCH  23  33
ATOM     33  C   UNL     1       2.199  -6.915  27.088  0.00  0.00    +0.120 C 
BRANCH  33  38
ATOM     34  C   UNL     1       1.049  -8.677  22.775  0.00  0.00    +0.105 C 
ATOM     35  N   UNL     1       2.056  -8.644  23.834  0.00  0.00    -0.303 NA
ATOM     36  C   UNL     1       1.494  -9.148  25.104  0.00  0.00    +0.099 C 
ATOM     37  C   UNL     1       0.561  -8.152  25.840  0.00  0.00    +0.100 C 
ATOM     38  N   UNL     1       1.157  -6.812  26.060  0.00  0.00    -0.296 NA
ATOM     39  C   UNL     1       1.653  -6.306  24.766  0.00  0.00    +0.100 C 
ATOM     40  C   UNL     1       2.591  -7.278  24.013  0.00  0.00    +0.099 C 
ENDBRANCH  33  38
ENDBRANCH  23  33
ENDBRANCH   1  26
TORSDOF 7
ENDMDL
MODEL 8
REMARK VINA RESULT:      -5.7      3.963     11.276
REMARK  Name = 
REMARK  9 active torsions:
REMARK  status: ('A' for Active; 'I' for Inactive)
REMARK    1  A    between atoms: C_1  and  N_2
REMARK    2  A    between atoms: N_5  and  C_6
REMARK    3  A    between atoms: C_6  and  C_7
REMARK    4  A    between atoms: C_10  and  N_11
REMARK    5  A    between atoms: C_12  and  C_14
REMARK    6  A    between atoms: C_16  and  C_17
REMARK    7  A    between atoms: C_18  and  C_19
REMARK    8  A    between atoms: C_28  and  C_29
REMARK    9  A    between atoms: C_33  and  C_34
REMARK                            x       y       z     vdW  Elec       q    Type
REMARK                         _______ _______ _______ _____ _____    ______ ____
ROOT
ATOM      1  N   UNL     1       6.908  -1.185  24.606  0.00  0.00    -0.281 N 
ATOM      2  H   UNL     1       6.354  -1.558  25.365  0.00  0.00    +0.155 HD
ATOM      3  C   UNL     1       6.987  -1.929  23.437  0.00  0.00    +0.248 C 
ATOM      4  O   UNL     1       7.508  -1.585  22.383  0.00  0.00    -0.270 OA
ENDROOT
BRANCH   3   5
ATOM      5  C   UNL     1       6.326  -3.259  23.454  0.00  0.00    +0.038 A 
ATOM      6  C   UNL     1       6.125  -4.009  22.295  0.00  0.00    +0.013 A 
ATOM      7  C   UNL     1       5.474  -5.240  22.378  0.00  0.00    +0.005 A 
ATOM      8  C   UNL     1       5.016  -5.738  23.612  0.00  0.00    -0.035 A 
ATOM      9  C   UNL     1       4.326  -7.076  23.613  0.00  0.00    +0.045 C 
ATOM     10  C   UNL     1       5.205  -4.970  24.772  0.00  0.00    +0.029 A 
ATOM     11  C   UNL     1       5.856  -3.737  24.687  0.00  0.00    +0.030 A 
BRANCH  10  12
ATOM     12  C   UNL     1       4.766  -5.417  26.065  0.00  0.00    -0.059 C 
ATOM     13  C   UNL     1       4.402  -5.841  27.125  0.00  0.00    -0.040 C 
BRANCH  13  14
ATOM     14  C   UNL     1       3.955  -6.455  28.328  0.00  0.00    +0.136 A 
ATOM     15  N   UNL     1       2.764  -7.105  28.555  0.00  0.00    -0.205 N 
ATOM     16  C   UNL     1       2.792  -7.528  29.878  0.00  0.00    +0.155 A 
ATOM     17  C   UNL     1       1.665  -8.229  30.364  0.00  0.00    +0.050 A 
ATOM     18  C   UNL     1       0.632  -8.456  29.544  0.00  0.00    +0.025 A 
ATOM     19  C   UNL     1       0.745  -7.945  28.157  0.00  0.00    +0.133 A 
ATOM     20  N   UNL     1       3.913  -7.190  30.480  0.00  0.00    -0.233 NA
ATOM     21  N   UNL     1       1.748  -7.296  27.653  0.00  0.00    -0.172 NA
ATOM     22  C   UNL     1       4.635  -6.523  29.524  0.00  0.00    +0.150 A 
ENDBRANCH  13  14
ENDBRANCH  10  12
ENDBRANCH   3   5
BRANCH   1  26
ATOM     23  C   UNL     1       8.284   2.814  24.804  0.00  0.00    -0.022 A 
ATOM     24  C   UNL     1       6.943   2.545  24.468  0.00  0.00    +0.061 A 
ATOM     25  C   UNL     1       6.506   1.196  24.465  0.00  0.00    +0.036 A 
ATOM     26  C   UNL     1       7.374   0.138  24.771  0.00  0.00    +0.034 A 
ATOM     27  C   UNL     1       8.668   0.439  25.178  0.00  0.00    +0.023 A 
ATOM     28  C   UNL     1       9.117   1.753  25.192  0.00  0.00    +0.007 A 
BRANCH  24  29
ATOM     29  C   UNL     1       5.931   3.602  24.071  0.00  0.00    +0.418 C 
ATOM     30  F   UNL     1       5.630   4.439  25.105  0.00  0.00    -0.166 F 
ATOM     31  F   UNL     1       4.740   3.031  23.717  0.00  0.00    -0.166 F 
ATOM     32  F   UNL     1       6.251   4.402  23.021  0.00  0.00    -0.166 F 
ENDBRANCH  24  29
BRANCH  23  33
ATOM     33  C   UNL     1       8.915   4.185  24.729  0.00  0.00    +0.120 C 
BRANCH  33  38
ATOM     34  C   UNL     1      12.816   5.458  22.240  0.00  0.00    +0.105 C 
ATOM     35  N   UNL     1      12.287   5.109  23.557  0.00  0.00    -0.303 NA
ATOM     36  C   UNL     1      11.712   3.748  23.545  0.00  0.00    +0.099 C 
ATOM     37  C   UNL     1      10.324   3.638  22.863  0.00  0.00    +0.100 C 
ATOM     38  N   UNL     1       9.317   4.595  23.378  0.00  0.00    -0.296 NA
ATOM     39  C   UNL     1       9.893   5.953  23.321  0.00  0.00    +0.100 C 
ATOM     40  C   UNL     1      11.276   6.092  24.000  0.00  0.00    +0.099 C 
ENDBRANCH  33  38
ENDBRANCH  23  33
ENDBRANCH   1  26
TORSDOF 7
ENDMDL
MODEL 9
REMARK VINA RESULT:      -5.7      1.572      2.074
REMARK  Name = 
REMARK  9 active torsions:
REMARK  status: ('A' for Active; 'I' for Inactive)
REMARK    1  A    between atoms: C_1  and  N_2
REMARK    2  A    between atoms: N_5  and  C_6
REMARK    3  A    between atoms: C_6  and  C_7
REMARK    4  A    between atoms: C_10  and  N_11
REMARK    5  A    between atoms: C_12  and  C_14
REMARK    6  A    between atoms: C_16  and  C_17
REMARK    7  A    between atoms: C_18  and  C_19
REMARK    8  A    between atoms: C_28  and  C_29
REMARK    9  A    between atoms: C_33  and  C_34
REMARK                            x       y       z     vdW  Elec       q    Type
REMARK                         _______ _______ _______ _____ _____    ______ ____
ROOT
ATOM      1  N   UNL     1       6.541  -0.364  23.913  0.00  0.00    -0.281 N 
ATOM      2  H   UNL     1       5.916   0.213  23.368  0.00  0.00    +0.155 HD
ATOM      3  C   UNL     1       7.627   0.252  24.519  0.00  0.00    +0.248 C 
ATOM      4  O   UNL     1       8.415  -0.259  25.305  0.00  0.00    -0.270 OA
ENDROOT
BRANCH   3   5
ATOM      5  C   UNL     1       7.819   1.694  24.220  0.00  0.00    +0.038 A 
ATOM      6  C   UNL     1       9.054   2.328  24.358  0.00  0.00    +0.013 A 
ATOM      7  C   UNL     1       9.160   3.692  24.085  0.00  0.00    +0.005 A 
ATOM      8  C   UNL     1       8.041   4.440  23.672  0.00  0.00    -0.035 A 
ATOM      9  C   UNL     1       8.244   5.905  23.395  0.00  0.00    +0.045 C 
ATOM     10  C   UNL     1       6.798   3.799  23.552  0.00  0.00    +0.029 A 
ATOM     11  C   UNL     1       6.693   2.434  23.828  0.00  0.00    +0.030 A 
BRANCH  10  12
ATOM     12  C   UNL     1       5.615   4.499  23.133  0.00  0.00    -0.059 C 
ATOM     13  C   UNL     1       4.599   5.037  22.793  0.00  0.00    -0.040 C 
BRANCH  13  14
ATOM     14  C   UNL     1       3.341   5.563  22.389  0.00  0.00    +0.136 A 
ATOM     15  N   UNL     1       2.546   5.148  21.345  0.00  0.00    -0.205 N 
ATOM     16  C   UNL     1       1.425   5.969  21.354  0.00  0.00    +0.155 A 
ATOM     17  C   UNL     1       0.443   5.744  20.363  0.00  0.00    +0.050 A 
ATOM     18  C   UNL     1       0.626   4.765  19.469  0.00  0.00    +0.025 A 
ATOM     19  C   UNL     1       1.873   3.969  19.585  0.00  0.00    +0.133 A 
ATOM     20  N   UNL     1       1.470   6.854  22.327  0.00  0.00    -0.233 NA
ATOM     21  N   UNL     1       2.809   4.127  20.467  0.00  0.00    -0.172 NA
ATOM     22  C   UNL     1       2.656   6.608  22.969  0.00  0.00    +0.150 A 
ENDBRANCH  13  14
ENDBRANCH  10  12
ENDBRANCH   3   5
BRANCH   1  26
ATOM     23  C   UNL     1       5.065  -4.304  24.393  0.00  0.00    -0.022 A 
ATOM     24  C   UNL     1       5.745  -3.944  23.213  0.00  0.00    +0.061 A 
ATOM     25  C   UNL     1       6.271  -2.631  23.112  0.00  0.00    +0.036 A 
ATOM     26  C   UNL     1       6.118  -1.693  24.142  0.00  0.00    +0.034 A 
ATOM     27  C   UNL     1       5.514  -2.100  25.326  0.00  0.00    +0.023 A 
ATOM     28  C   UNL     1       4.995  -3.382  25.450  0.00  0.00    +0.007 A 
BRANCH  24  29
ATOM     29  C   UNL     1       5.926  -4.857  22.016  0.00  0.00    +0.418 C 
ATOM     30  F   UNL     1       7.154  -5.452  22.005  0.00  0.00    -0.166 F 
ATOM     31  F   UNL     1       5.863  -4.150  20.847  0.00  0.00    -0.166 F 
ATOM     32  F   UNL     1       5.022  -5.859  21.859  0.00  0.00    -0.166 F 
ENDBRANCH  24  29
BRANCH  23  33
ATOM     33  C   UNL     1       4.349  -5.621  24.587  0.00  0.00    +0.120 C 
BRANCH  33  38
ATOM     34  C   UNL     1       0.443  -8.406  24.444  0.00  0.00    +0.105 C 
ATOM     35  N   UNL     1       1.904  -8.374  24.390  0.00  0.00    -0.303 NA
ATOM     36  C   UNL     1       2.459  -7.800  25.633  0.00  0.00    +0.099 C 
ATOM     37  C   UNL     1       2.343  -6.258  25.743  0.00  0.00    +0.100 C 
ATOM     38  N   UNL     1       2.885  -5.524  24.574  0.00  0.00    -0.296 NA
ATOM     39  C   UNL     1       2.268  -6.074  23.352  0.00  0.00    +0.100 C 
ATOM     40  C   UNL     1       2.374  -7.612  23.215  0.00  0.00    +0.099 C 
ENDBRANCH  33  38
ENDBRANCH  23  33
ENDBRANCH   1  26
TORSDOF 7
ENDMDL
