MODEL 1
REMARK VINA RESULT:      -6.4      0.000      0.000
REMARK  Name = 
REMARK  4 active torsions:
REMARK  status: ('A' for Active; 'I' for Inactive)
REMARK    1  A    between atoms: O5*_1  and  C5*_2
REMARK    2  A    between atoms: C5*_2  and  C4*_3
REMARK    3  A    between atoms: C1*_6  and  N_12
REMARK    4  A    between atoms: C3*_9  and  O3*_11
REMARK                            x       y       z     vdW  Elec       q    Type
REMARK                         _______ _______ _______ _____ _____    ______ ____
ROOT
ATOM      1  C4* UNL     1      10.089  -0.820  23.454  0.00  0.00    +0.175 C 
ATOM      2  C3* UNL     1       8.983  -1.161  22.457  0.00  0.00    +0.150 C 
ATOM      3  C2* UNL     1       8.496  -2.539  22.871  0.00  0.00    +0.088 C 
ATOM      4  C1* UNL     1       9.402  -2.918  24.037  0.00  0.00    +0.226 C 
ATOM      5  O4* UNL     1       9.887  -1.686  24.586  0.00  0.00    -0.348 OA
ENDROOT
BRANCH   4   6
ATOM      6  N   UNL     1       8.749  -3.720  25.063  0.00  0.00    -0.271 N 
ATOM      7  C   UNL     1       9.384  -4.892  25.459  0.00  0.00    +0.331 A 
ATOM      8  O   UNL     1      10.431  -5.307  24.968  0.00  0.00    -0.246 OA
ATOM      9  N   UNL     1       8.768  -5.596  26.465  0.00  0.00    -0.273 N 
ATOM     10  H   UNL     1       9.238  -6.426  26.790  0.00  0.00    +0.174 HD
ATOM     11  C   UNL     1       7.598  -5.260  27.093  0.00  0.00    +0.289 A 
ATOM     12  O   UNL     1       7.133  -5.922  28.013  0.00  0.00    -0.265 OA
ATOM     13  C   UNL     1       6.944  -4.044  26.571  0.00  0.00    +0.204 A 
ATOM     14  F   UNL     1       5.767  -3.686  27.114  0.00  0.00    -0.198 F 
ATOM     15  C   UNL     1       7.530  -3.341  25.601  0.00  0.00    +0.137 A 
ENDBRANCH   4   6
BRANCH   2  16
ATOM     16  O3* UNL     1       9.501  -1.179  21.131  0.00  0.00    -0.389 OA
ATOM     17  H3* UNL     1      10.213  -1.843  21.105  0.00  0.00    +0.210 HD
ENDBRANCH   2  16
BRANCH   1  18
ATOM     18  C5* UNL     1      10.101   0.643  23.894  0.00  0.00    +0.190 C 
BRANCH  18  19
ATOM     19  O5* UNL     1      10.474   0.768  25.266  0.00  0.00    -0.392 OA
ATOM     20  H5* UNL     1      10.894  -0.074  25.518  0.00  0.00    +0.210 HD
ENDBRANCH  18  19
ENDBRANCH   1  18
TORSDOF 4
ENDMDL
MODEL 2
REMARK VINA RESULT:      -6.0      2.992      3.647
REMARK  Name = 
REMARK  4 active torsions:
REMARK  status: ('A' for Active; 'I' for Inactive)
REMARK    1  A    between atoms: O5*_1  and  C5*_2
REMARK    2  A    between atoms: C5*_2  and  C4*_3
REMARK    3  A    between atoms: C1*_6  and  N_12
REMARK    4  A    between atoms: C3*_9  and  O3*_11
REMARK                            x       y       z     vdW  Elec       q    Type
REMARK                         _______ _______ _______ _____ _____    ______ ____
ROOT
ATOM      1  C4* UNL     1       8.242   1.876  22.812  0.00  0.00    +0.175 C 
ATOM      2  C3* UNL     1       9.046   1.486  21.574  0.00  0.00    +0.150 C 
ATOM      3  C2* UNL     1       9.294  -0.006  21.724  0.00  0.00    +0.088 C 
ATOM      4  C1* UNL     1       8.669  -0.351  23.071  0.00  0.00    +0.226 C 
ATOM      5  O4* UNL     1       7.680   0.655  23.325  0.00  0.00    -0.348 OA
ENDROOT
BRANCH   4   6
ATOM      6  N   UNL     1       8.079  -1.682  23.130  0.00  0.00    -0.271 N 
ATOM      7  C   UNL     1       8.894  -2.724  23.563  0.00  0.00    +0.331 A 
ATOM      8  O   UNL     1      10.080  -2.593  23.855  0.00  0.00    -0.246 OA
ATOM      9  N   UNL     1       8.292  -3.955  23.657  0.00  0.00    -0.273 N 
ATOM     10  H   UNL     1       8.859  -4.710  24.008  0.00  0.00    +0.174 HD
ATOM     11  C   UNL     1       6.987  -4.246  23.355  0.00  0.00    +0.289 A 
ATOM     12  O   UNL     1       6.514  -5.366  23.505  0.00  0.00    -0.265 OA
ATOM     13  C   UNL     1       6.205  -3.109  22.833  0.00  0.00    +0.204 A 
ATOM     14  F   UNL     1       4.930  -3.341  22.474  0.00  0.00    -0.198 F 
ATOM     15  C   UNL     1       6.768  -1.903  22.743  0.00  0.00    +0.137 A 
ENDBRANCH   4   6
BRANCH   2  16
ATOM     16  O3* UNL     1      10.275   2.206  21.534  0.00  0.00    -0.389 OA
ATOM     17  H3* UNL     1      10.519   2.418  22.453  0.00  0.00    +0.210 HD
ENDBRANCH   2  16
BRANCH   1  18
ATOM     18  C5* UNL     1       7.141   2.900  22.541  0.00  0.00    +0.190 C 
BRANCH  18  19
ATOM     19  O5* UNL     1       7.679   4.109  22.006  0.00  0.00    -0.392 OA
ATOM     20  H5* UNL     1       8.558   4.225  22.409  0.00  0.00    +0.210 HD
ENDBRANCH  18  19
ENDBRANCH   1  18
TORSDOF 4
ENDMDL
MODEL 3
REMARK VINA RESULT:      -5.9      3.561      4.145
REMARK  Name = 
REMARK  4 active torsions:
REMARK  status: ('A' for Active; 'I' for Inactive)
REMARK    1  A    between atoms: O5*_1  and  C5*_2
REMARK    2  A    between atoms: C5*_2  and  C4*_3
REMARK    3  A    between atoms: C1*_6  and  N_12
REMARK    4  A    between atoms: C3*_9  and  O3*_11
REMARK                            x       y       z     vdW  Elec       q    Type
REMARK                         _______ _______ _______ _____ _____    ______ ____
ROOT
ATOM      1  C4* UNL     1       8.797   0.881  23.068  0.00  0.00    +0.175 C 
ATOM      2  C3* UNL     1      10.024  -0.019  23.205  0.00  0.00    +0.150 C 
ATOM      3  C2* UNL     1       9.469  -1.373  23.613  0.00  0.00    +0.088 C 
ATOM      4  C1* UNL     1       7.969  -1.137  23.743  0.00  0.00    +0.226 C 
ATOM      5  O4* UNL     1       7.669  -0.001  22.921  0.00  0.00    -0.348 OA
ENDROOT
BRANCH   4   6
ATOM      6  N   UNL     1       7.150  -2.280  23.363  0.00  0.00    -0.271 N 
ATOM      7  C   UNL     1       5.833  -2.301  23.812  0.00  0.00    +0.331 A 
ATOM      8  O   UNL     1       5.340  -1.440  24.536  0.00  0.00    -0.246 OA
ATOM      9  N   UNL     1       5.075  -3.366  23.391  0.00  0.00    -0.273 N 
ATOM     10  H   UNL     1       4.108  -3.372  23.675  0.00  0.00    +0.174 HD
ATOM     11  C   UNL     1       5.495  -4.399  22.595  0.00  0.00    +0.289 A 
ATOM     12  O   UNL     1       4.742  -5.293  22.231  0.00  0.00    -0.265 OA
ATOM     13  C   UNL     1       6.921  -4.348  22.219  0.00  0.00    +0.204 A 
ATOM     14  F   UNL     1       7.407  -5.358  21.476  0.00  0.00    -0.198 F 
ATOM     15  C   UNL     1       7.673  -3.317  22.609  0.00  0.00    +0.137 A 
ENDBRANCH   4   6
BRANCH   2  16
ATOM     16  O3* UNL     1      10.904   0.493  24.200  0.00  0.00    -0.389 OA
ATOM     17  H3* UNL     1      11.542  -0.210  24.417  0.00  0.00    +0.210 HD
ENDBRANCH   2  16
BRANCH   1  18
ATOM     18  C5* UNL     1       8.870   1.856  21.894  0.00  0.00    +0.190 C 
BRANCH  18  19
ATOM     19  O5* UNL     1      10.222   2.201  21.591  0.00  0.00    -0.392 OA
ATOM     20  H5* UNL     1      10.542   1.538  20.955  0.00  0.00    +0.210 HD
ENDBRANCH  18  19
ENDBRANCH   1  18
TORSDOF 4
ENDMDL
MODEL 4
REMARK VINA RESULT:      -5.7      3.576      5.676
REMARK  Name = 
REMARK  4 active torsions:
REMARK  status: ('A' for Active; 'I' for Inactive)
REMARK    1  A    between atoms: O5*_1  and  C5*_2
REMARK    2  A    between atoms: C5*_2  and  C4*_3
REMARK    3  A    between atoms: C1*_6  and  N_12
REMARK    4  A    between atoms: C3*_9  and  O3*_11
REMARK                            x       y       z     vdW  Elec       q    Type
REMARK                         _______ _______ _______ _____ _____    ______ ____
ROOT
ATOM      1  C4* UNL     1       6.686  -4.816  22.930  0.00  0.00    +0.175 C 
ATOM      2  C3* UNL     1       5.701  -3.818  22.324  0.00  0.00    +0.150 C 
ATOM      3  C2* UNL     1       6.098  -2.474  22.909  0.00  0.00    +0.088 C 
ATOM      4  C1* UNL     1       7.244  -2.807  23.859  0.00  0.00    +0.226 C 
ATOM      5  O4* UNL     1       7.806  -4.041  23.393  0.00  0.00    -0.348 OA
ENDROOT
BRANCH   4   6
ATOM      6  N   UNL     1       8.266  -1.773  23.945  0.00  0.00    -0.271 N 
ATOM      7  C   UNL     1       8.744  -1.450  25.211  0.00  0.00    +0.331 A 
ATOM      8  O   UNL     1       8.329  -1.953  26.252  0.00  0.00    -0.246 OA
ATOM      9  N   UNL     1       9.745  -0.510  25.251  0.00  0.00    -0.273 N 
ATOM     10  H   UNL     1      10.129  -0.297  26.158  0.00  0.00    +0.174 HD
ATOM     11  C   UNL     1      10.294   0.138  24.176  0.00  0.00    +0.289 A 
ATOM     12  O   UNL     1      11.215   0.937  24.292  0.00  0.00    -0.265 OA
ATOM     13  C   UNL     1       9.687  -0.201  22.874  0.00  0.00    +0.204 A 
ATOM     14  F   UNL     1      10.151   0.436  21.784  0.00  0.00    -0.198 F 
ATOM     15  C   UNL     1       8.721  -1.119  22.812  0.00  0.00    +0.137 A 
ENDBRANCH   4   6
BRANCH   2  16
ATOM     16  O3* UNL     1       4.366  -4.159  22.688  0.00  0.00    -0.389 OA
ATOM     17  H3* UNL     1       3.861  -4.283  21.864  0.00  0.00    +0.210 HD
ENDBRANCH   2  16
BRANCH   1  18
ATOM     18  C5* UNL     1       7.150  -5.899  21.958  0.00  0.00    +0.190 C 
BRANCH  18  19
ATOM     19  O5* UNL     1       6.081  -6.331  21.115  0.00  0.00    -0.392 OA
ATOM     20  H5* UNL     1       5.359  -5.689  21.232  0.00  0.00    +0.210 HD
ENDBRANCH  18  19
ENDBRANCH   1  18
TORSDOF 4
ENDMDL
MODEL 5
REMARK VINA RESULT:      -5.7      3.184      5.644
REMARK  Name = 
REMARK  4 active torsions:
REMARK  status: ('A' for Active; 'I' for Inactive)
REMARK    1  A    between atoms: O5*_1  and  C5*_2
REMARK    2  A    between atoms: C5*_2  and  C4*_3
REMARK    3  A    between atoms: C1*_6  and  N_12
REMARK    4  A    between atoms: C3*_9  and  O3*_11
REMARK                            x       y       z     vdW  Elec       q    Type
REMARK                         _______ _______ _______ _____ _____    ______ ____
ROOT
ATOM      1  C4* UNL     1       8.214  -4.441  24.980  0.00  0.00    +0.175 C 
ATOM      2  C3* UNL     1       7.706  -4.386  23.540  0.00  0.00    +0.150 C 
ATOM      3  C2* UNL     1       7.650  -2.906  23.203  0.00  0.00    +0.088 C 
ATOM      4  C1* UNL     1       8.070  -2.215  24.495  0.00  0.00    +0.226 C 
ATOM      5  O4* UNL     1       8.845  -3.172  25.229  0.00  0.00    -0.348 OA
ENDROOT
BRANCH   4   6
ATOM      6  N   UNL     1       8.823  -0.984  24.295  0.00  0.00    -0.271 N 
ATOM      7  C   UNL     1       9.182  -0.263  25.429  0.00  0.00    +0.331 A 
ATOM      8  O   UNL     1       8.868  -0.580  26.574  0.00  0.00    -0.246 OA
ATOM      9  N   UNL     1       9.936   0.864  25.208  0.00  0.00    -0.273 N 
ATOM     10  H   UNL     1      10.238   1.373  26.023  0.00  0.00    +0.174 HD
ATOM     11  C   UNL     1      10.347   1.340  23.991  0.00  0.00    +0.289 A 
ATOM     12  O   UNL     1      11.055   2.333  23.880  0.00  0.00    -0.265 OA
ATOM     13  C   UNL     1       9.867   0.565  22.830  0.00  0.00    +0.204 A 
ATOM     14  F   UNL     1      10.198   1.007  21.604  0.00  0.00    -0.198 F 
ATOM     15  C   UNL     1       9.142  -0.538  23.024  0.00  0.00    +0.137 A 
ENDBRANCH   4   6
BRANCH   2  16
ATOM     16  O3* UNL     1       6.414  -4.980  23.449  0.00  0.00    -0.389 OA
ATOM     17  H3* UNL     1       6.129  -4.918  22.520  0.00  0.00    +0.210 HD
ENDBRANCH   2  16
BRANCH   1  18
ATOM     18  C5* UNL     1       9.189  -5.586  25.251  0.00  0.00    +0.190 C 
BRANCH  18  19
ATOM     19  O5* UNL     1      10.537  -5.188  25.001  0.00  0.00    -0.392 OA
ATOM     20  H5* UNL     1      10.504  -4.259  24.712  0.00  0.00    +0.210 HD
ENDBRANCH  18  19
ENDBRANCH   1  18
TORSDOF 4
ENDMDL
MODEL 6
REMARK VINA RESULT:      -5.7      2.247      3.004
REMARK  Name = 
REMARK  4 active torsions:
REMARK  status: ('A' for Active; 'I' for Inactive)
REMARK    1  A    between atoms: O5*_1  and  C5*_2
REMARK    2  A    between atoms: C5*_2  and  C4*_3
REMARK    3  A    between atoms: C1*_6  and  N_12
REMARK    4  A    between atoms: C3*_9  and  O3*_11
REMARK                            x       y       z     vdW  Elec       q    Type
REMARK                         _______ _______ _______ _____ _____    ______ ____
ROOT
ATOM      1  C4* UNL     1       9.959   2.330  23.770  0.00  0.00    +0.175 C 
ATOM      2  C3* UNL     1       9.484   1.868  22.394  0.00  0.00    +0.150 C 
ATOM      3  C2* UNL     1       9.488   0.351  22.470  0.00  0.00    +0.088 C 
ATOM      4  C1* UNL     1      10.027   0.050  23.864  0.00  0.00    +0.226 C 
ATOM      5  O4* UNL     1       9.760   1.214  24.657  0.00  0.00    -0.348 OA
ENDROOT
BRANCH   4   6
ATOM      6  N   UNL     1       9.453  -1.139  24.481  0.00  0.00    -0.271 N 
ATOM      7  C   UNL     1       9.858  -2.374  23.986  0.00  0.00    +0.331 A 
ATOM      8  O   UNL     1      10.632  -2.518  23.043  0.00  0.00    -0.246 OA
ATOM      9  N   UNL     1       9.339  -3.474  24.626  0.00  0.00    -0.273 N 
ATOM     10  H   UNL     1       9.656  -4.375  24.305  0.00  0.00    +0.174 HD
ATOM     11  C   UNL     1       8.462  -3.462  25.679  0.00  0.00    +0.289 A 
ATOM     12  O   UNL     1       8.076  -4.490  26.221  0.00  0.00    -0.265 OA
ATOM     13  C   UNL     1       8.021  -2.119  26.101  0.00  0.00    +0.204 A 
ATOM     14  F   UNL     1       7.123  -2.041  27.100  0.00  0.00    -0.198 F 
ATOM     15  C   UNL     1       8.520  -1.038  25.499  0.00  0.00    +0.137 A 
ENDBRANCH   4   6
BRANCH   2  16
ATOM     16  O3* UNL     1      10.374   2.331  21.383  0.00  0.00    -0.389 OA
ATOM     17  H3* UNL     1      11.271   2.045  21.630  0.00  0.00    +0.210 HD
ENDBRANCH   2  16
BRANCH   1  18
ATOM     18  C5* UNL     1       9.232   3.567  24.295  0.00  0.00    +0.190 C 
BRANCH  18  19
ATOM     19  O5* UNL     1       9.178   4.595  23.306  0.00  0.00    -0.392 OA
ATOM     20  H5* UNL     1       8.399   4.408  22.753  0.00  0.00    +0.210 HD
ENDBRANCH  18  19
ENDBRANCH   1  18
TORSDOF 4
ENDMDL
MODEL 7
REMARK VINA RESULT:      -5.6      2.871      3.674
REMARK  Name = 
REMARK  4 active torsions:
REMARK  status: ('A' for Active; 'I' for Inactive)
REMARK    1  A    between atoms: O5*_1  and  C5*_2
REMARK    2  A    between atoms: C5*_2  and  C4*_3
REMARK    3  A    between atoms: C1*_6  and  N_12
REMARK    4  A    between atoms: C3*_9  and  O3*_11
REMARK                            x       y       z     vdW  Elec       q    Type
REMARK                         _______ _______ _______ _____ _____    ______ ____
ROOT
ATOM      1  C4* UNL     1       8.743  -0.934  26.384  0.00  0.00    +0.175 C 
ATOM      2  C3* UNL     1       9.251  -0.135  25.185  0.00  0.00    +0.150 C 
ATOM      3  C2* UNL     1       9.324  -1.140  24.049  0.00  0.00    +0.088 C 
ATOM      4  C1* UNL     1       8.913  -2.459  24.693  0.00  0.00    +0.226 C 
ATOM      5  O4* UNL     1       8.127  -2.117  25.842  0.00  0.00    -0.348 OA
ENDROOT
BRANCH   4   6
ATOM      6  N   UNL     1       8.174  -3.349  23.807  0.00  0.00    -0.271 N 
ATOM      7  C   UNL     1       8.423  -4.713  23.920  0.00  0.00    +0.331 A 
ATOM      8  O   UNL     1       9.250  -5.201  24.686  0.00  0.00    -0.246 OA
ATOM      9  N   UNL     1       7.670  -5.527  23.108  0.00  0.00    -0.273 N 
ATOM     10  H   UNL     1       7.811  -6.520  23.209  0.00  0.00    +0.174 HD
ATOM     11  C   UNL     1       6.724  -5.122  22.204  0.00  0.00    +0.289 A 
ATOM     12  O   UNL     1       6.066  -5.917  21.544  0.00  0.00    -0.265 OA
ATOM     13  C   UNL     1       6.567  -3.660  22.087  0.00  0.00    +0.204 A 
ATOM     14  F   UNL     1       5.686  -3.196  21.183  0.00  0.00    -0.198 F 
ATOM     15  C   UNL     1       7.281  -2.852  22.873  0.00  0.00    +0.137 A 
ENDBRANCH   4   6
BRANCH   2  16
ATOM     16  O3* UNL     1      10.536   0.413  25.466  0.00  0.00    -0.389 OA
ATOM     17  H3* UNL     1      10.513   0.763  26.374  0.00  0.00    +0.210 HD
ENDBRANCH   2  16
BRANCH   1  18
ATOM     18  C5* UNL     1       7.756  -0.172  27.266  0.00  0.00    +0.190 C 
BRANCH  18  19
ATOM     19  O5* UNL     1       7.850   1.236  27.051  0.00  0.00    -0.392 OA
ATOM     20  H5* UNL     1       7.391   1.420  26.212  0.00  0.00    +0.210 HD
ENDBRANCH  18  19
ENDBRANCH   1  18
TORSDOF 4
ENDMDL
MODEL 8
REMARK VINA RESULT:      -5.6      2.031      3.094
REMARK  Name = 
REMARK  4 active torsions:
REMARK  status: ('A' for Active; 'I' for Inactive)
REMARK    1  A    between atoms: O5*_1  and  C5*_2
REMARK    2  A    between atoms: C5*_2  and  C4*_3
REMARK    3  A    between atoms: C1*_6  and  N_12
REMARK    4  A    between atoms: C3*_9  and  O3*_11
REMARK                            x       y       z     vdW  Elec       q    Type
REMARK                         _______ _______ _______ _____ _____    ______ ____
ROOT
ATOM      1  C4* UNL     1       9.022   0.273  22.957  0.00  0.00    +0.175 C 
ATOM      2  C3* UNL     1      10.179   0.534  23.920  0.00  0.00    +0.150 C 
ATOM      3  C2* UNL     1       9.854  -0.293  25.152  0.00  0.00    +0.088 C 
ATOM      4  C1* UNL     1       8.502  -0.920  24.832  0.00  0.00    +0.226 C 
ATOM      5  O4* UNL     1       8.398  -0.945  23.403  0.00  0.00    -0.348 OA
ENDROOT
BRANCH   4   6
ATOM      6  N   UNL     1       8.317  -2.254  25.388  0.00  0.00    -0.271 N 
ATOM      7  C   UNL     1       7.398  -2.394  26.423  0.00  0.00    +0.331 A 
ATOM      8  O   UNL     1       6.771  -1.461  26.917  0.00  0.00    -0.246 OA
ATOM      9  N   UNL     1       7.210  -3.674  26.886  0.00  0.00    -0.273 N 
ATOM     10  H   UNL     1       6.518  -3.796  27.608  0.00  0.00    +0.174 HD
ATOM     11  C   UNL     1       7.846  -4.802  26.438  0.00  0.00    +0.289 A 
ATOM     12  O   UNL     1       7.591  -5.916  26.878  0.00  0.00    -0.265 OA
ATOM     13  C   UNL     1       8.859  -4.566  25.391  0.00  0.00    +0.204 A 
ATOM     14  F   UNL     1       9.551  -5.628  24.941  0.00  0.00    -0.198 F 
ATOM     15  C   UNL     1       9.050  -3.332  24.920  0.00  0.00    +0.137 A 
ENDBRANCH   4   6
BRANCH   2  16
ATOM     16  O3* UNL     1      10.252   1.920  24.240  0.00  0.00    -0.389 OA
ATOM     17  H3* UNL     1      10.382   1.991  25.202  0.00  0.00    +0.210 HD
ENDBRANCH   2  16
BRANCH   1  18
ATOM     18  C5* UNL     1       9.447   0.152  21.494  0.00  0.00    +0.190 C 
BRANCH  18  19
ATOM     19  O5* UNL     1       9.869  -1.176  21.186  0.00  0.00    -0.392 OA
ATOM     20  H5* UNL     1      10.580  -1.096  20.525  0.00  0.00    +0.210 HD
ENDBRANCH  18  19
ENDBRANCH   1  18
TORSDOF 4
ENDMDL
MODEL 9
REMARK VINA RESULT:      -5.6      3.271      6.042
REMARK  Name = 
REMARK  4 active torsions:
REMARK  status: ('A' for Active; 'I' for Inactive)
REMARK    1  A    between atoms: O5*_1  and  C5*_2
REMARK    2  A    between atoms: C5*_2  and  C4*_3
REMARK    3  A    between atoms: C1*_6  and  N_12
REMARK    4  A    between atoms: C3*_9  and  O3*_11
REMARK                            x       y       z     vdW  Elec       q    Type
REMARK                         _______ _______ _______ _____ _____    ______ ____
ROOT
ATOM      1  C4* UNL     1       7.071  -5.133  23.147  0.00  0.00    +0.175 C 
ATOM      2  C3* UNL     1       6.538  -4.609  24.479  0.00  0.00    +0.150 C 
ATOM      3  C2* UNL     1       7.267  -3.295  24.701  0.00  0.00    +0.088 C 
ATOM      4  C1* UNL     1       8.213  -3.190  23.510  0.00  0.00    +0.226 C 
ATOM      5  O4* UNL     1       7.644  -3.998  22.472  0.00  0.00    -0.348 OA
ENDROOT
BRANCH   4   6
ATOM      6  N   UNL     1       8.434  -1.828  23.042  0.00  0.00    -0.271 N 
ATOM      7  C   UNL     1       9.719  -1.497  22.623  0.00  0.00    +0.331 A 
ATOM      8  O   UNL     1      10.675  -2.266  22.663  0.00  0.00    -0.246 OA
ATOM      9  N   UNL     1       9.879  -0.221  22.139  0.00  0.00    -0.273 N 
ATOM     10  H   UNL     1      10.795   0.019  21.794  0.00  0.00    +0.174 HD
ATOM     11  C   UNL     1       8.908   0.741  22.047  0.00  0.00    +0.289 A 
ATOM     12  O   UNL     1       9.124   1.846  21.564  0.00  0.00    -0.265 OA
ATOM     13  C   UNL     1       7.591   0.342  22.578  0.00  0.00    +0.204 A 
ATOM     14  F   UNL     1       6.606   1.258  22.559  0.00  0.00    -0.198 F 
ATOM     15  C   UNL     1       7.411  -0.895  23.044  0.00  0.00    +0.137 A 
ENDBRANCH   4   6
BRANCH   2  16
ATOM     16  O3* UNL     1       6.824  -5.534  25.524  0.00  0.00    -0.389 OA
ATOM     17  H3* UNL     1       6.480  -6.402  25.248  0.00  0.00    +0.210 HD
ENDBRANCH   2  16
BRANCH   1  18
ATOM     18  C5* UNL     1       6.010  -5.797  22.271  0.00  0.00    +0.190 C 
BRANCH  18  19
ATOM     19  O5* UNL     1       5.206  -6.701  23.028  0.00  0.00    -0.392 OA
ATOM     20  H5* UNL     1       5.743  -7.501  23.169  0.00  0.00    +0.210 HD
ENDBRANCH  18  19
ENDBRANCH   1  18
TORSDOF 4
ENDMDL
