MODEL 1
REMARK VINA RESULT:      -6.4      0.000      0.000
REMARK  Name = 
REMARK  23 active torsions:
REMARK  status: ('A' for Active; 'I' for Inactive)
REMARK    1  A    between atoms: C_1  and  C_2
REMARK    2  A    between atoms: C_1  and  C_3
REMARK    3  A    between atoms: C_1  and  C_4
REMARK    4  A    between atoms: C_4  and  N_5
REMARK    5  A    between atoms: N_5  and  C_6
REMARK    6  A    between atoms: N_5  and  S_40
REMARK    7  A    between atoms: C_6  and  C_7
REMARK    8  A    between atoms: C_7  and  O_9
REMARK    9  A    between atoms: C_7  and  C_10
REMARK   10  A    between atoms: C_10  and  N_12
REMARK   11  A    between atoms: C_10  and  C_33
REMARK   12  A    between atoms: C_13  and  C_15
REMARK   13  A    between atoms: C_15  and  C_17
REMARK   14  A    between atoms: C_15  and  N_20
REMARK   15  A    between atoms: C_17  and  C_18
REMARK   16  A    between atoms: C_17  and  C_19
REMARK   17  A    between atoms: N_23  and  C_24
REMARK   18  A    between atoms: C_24  and  C_25
REMARK   19  A    between atoms: C_28  and  C_29
REMARK   20  A    between atoms: C_33  and  C_34
REMARK   21  A    between atoms: S_40  and  C_43
REMARK   22  A    between atoms: C_46  and  C_49
REMARK   23  A    between atoms: N_50  and  O_51
REMARK                            x       y       z     vdW  Elec       q    Type
REMARK                         _______ _______ _______ _____ _____    ______ ____
ROOT
ATOM      1  C   UNL     1       6.969  -0.483  26.356  0.00  0.00    +0.107 C 
ENDROOT
BRANCH   1   2
ATOM      2  N   UNL     1       5.753  -0.729  27.130  0.00  0.00    -0.308 N 
ATOM      3  H   UNL     1       5.674  -0.386  28.078  0.00  0.00    +0.149 HD
ATOM      4  C   UNL     1       4.582  -1.110  26.504  0.00  0.00    +0.234 C 
ATOM      5  O   UNL     1       4.541  -1.436  25.320  0.00  0.00    -0.274 OA
BRANCH   4   6
ATOM      6  C   UNL     1       3.388  -1.260  27.476  0.00  0.00    +0.166 C 
BRANCH   6   7
ATOM      7  N   UNL     1       3.083  -2.662  27.806  0.00  0.00    -0.272 N 
ATOM      8  C   UNL     1       1.904  -3.342  27.486  0.00  0.00    +0.306 C 
ATOM      9  O   UNL     1       0.877  -2.855  27.056  0.00  0.00    -0.252 OA
ATOM     10  N   UNL     1       2.105  -4.685  27.791  0.00  0.00    -0.278 N 
ATOM     11  C   UNL     1       3.514  -4.959  27.930  0.00  0.00    +0.129 C 
ATOM     12  C   UNL     1       4.096  -3.592  28.267  0.00  0.00    +0.129 C 
BRANCH  10  13
ATOM     13  C   UNL     1       1.125  -5.727  27.556  0.00  0.00    +0.165 C 
BRANCH  13  14
ATOM     14  C   UNL     1       1.372  -6.374  26.226  0.00  0.00    +0.066 A 
ATOM     15  N   UNL     1       0.998  -5.715  25.055  0.00  0.00    -0.248 NA
ATOM     16  C   UNL     1       1.273  -6.464  24.004  0.00  0.00    +0.076 A 
ATOM     17  C   UNL     1       1.036  -6.052  22.592  0.00  0.00    +0.073 C 
ATOM     18  S   UNL     1       1.983  -7.990  24.351  0.00  0.00    -0.080 S 
ATOM     19  C   UNL     1       1.936  -7.621  26.020  0.00  0.00    +0.071 A 
ENDBRANCH  13  14
ENDBRANCH  10  13
ENDBRANCH   6   7
BRANCH   6  20
ATOM     20  C   UNL     1       3.438  -0.307  28.691  0.00  0.00    +0.012 C 
ATOM     21  C   UNL     1       2.551  -0.836  29.836  0.00  0.00    +0.009 C 
ATOM     22  C   UNL     1       3.091   1.145  28.358  0.00  0.00    +0.009 C 
ENDBRANCH   6  20
ENDBRANCH   4   6
ENDBRANCH   1   2
BRANCH   1  23
ATOM     23  C   UNL     1       7.294   1.024  26.401  0.00  0.00    +0.060 C 
BRANCH  23  24
ATOM     24  C   UNL     1       7.089   1.724  25.085  0.00  0.00    -0.046 A 
ATOM     25  C   UNL     1       6.608   1.021  23.975  0.00  0.00    +0.004 A 
ATOM     26  C   UNL     1       6.387   1.680  22.767  0.00  0.00    +0.000 A 
ATOM     27  C   UNL     1       6.649   3.045  22.656  0.00  0.00    +0.000 A 
ATOM     28  C   UNL     1       7.144   3.750  23.751  0.00  0.00    +0.000 A 
ATOM     29  C   UNL     1       7.372   3.091  24.958  0.00  0.00    +0.004 A 
ENDBRANCH  23  24
ENDBRANCH   1  23
BRANCH   1  30
ATOM     30  C   UNL     1       8.125  -1.452  26.750  0.00  0.00    +0.151 C 
BRANCH  30  31
ATOM     31  O   UNL     1       9.274  -0.668  27.132  0.00  0.00    -0.389 OA
ATOM     32  H   UNL     1       9.739  -0.438  26.308  0.00  0.00    +0.210 HD
ENDBRANCH  30  31
BRANCH  30  33
ATOM     33  C   UNL     1       8.559  -2.410  25.627  0.00  0.00    +0.142 C 
BRANCH  33  34
ATOM     34  N   UNL     1       8.022  -2.086  24.219  0.00  0.00    -0.174 NA
BRANCH  34  35
ATOM     35  S   UNL     1       9.310  -2.013  23.056  0.00  0.00    +0.061 S 
ATOM     36  O   UNL     1       8.686  -2.244  21.766  0.00  0.00    -0.153 OA
ATOM     37  O   UNL     1      10.401  -2.851  23.501  0.00  0.00    -0.153 OA
BRANCH  35  38
ATOM     38  C   UNL     1       9.941  -0.336  23.043  0.00  0.00    +0.106 A 
ATOM     39  C   UNL     1      10.473   0.190  24.233  0.00  0.00    +0.029 A 
ATOM     40  C   UNL     1      10.788   1.549  24.318  0.00  0.00    +0.011 A 
ATOM     41  C   UNL     1      10.563   2.385  23.221  0.00  0.00    -0.004 A 
ATOM     42  C   UNL     1      10.056   1.853  22.028  0.00  0.00    +0.011 A 
ATOM     43  C   UNL     1       9.735   0.486  21.940  0.00  0.00    +0.029 A 
BRANCH  41  44
ATOM     44  C   UNL     1      10.818   3.832  23.384  0.00  0.00    +0.160 C 
ATOM     45  N   UNL     1      12.009   4.340  23.349  0.00  0.00    -0.095 NA
BRANCH  45  46
ATOM     46  O   UNL     1      11.912   5.729  23.501  0.00  0.00    -0.409 OA
ATOM     47  H   UNL     1      11.505   6.005  22.659  0.00  0.00    +0.328 HD
ENDBRANCH  45  46
ENDBRANCH  41  44
ENDBRANCH  35  38
ENDBRANCH  34  35
BRANCH  34  48
ATOM     48  C   UNL     1       6.923  -3.037  23.828  0.00  0.00    +0.112 C 
BRANCH  48  49
ATOM     49  C   UNL     1       7.140  -4.499  24.274  0.00  0.00    -0.001 C 
ATOM     50  C   UNL     1       7.419  -5.378  23.051  0.00  0.00    +0.008 C 
ATOM     51  C   UNL     1       5.948  -5.063  25.052  0.00  0.00    +0.008 C 
ENDBRANCH  48  49
ENDBRANCH  34  48
ENDBRANCH  33  34
ENDBRANCH  30  33
ENDBRANCH   1  30
TORSDOF 18
ENDMDL
MODEL 2
REMARK VINA RESULT:      -6.3      1.679      2.331
REMARK  Name = 
REMARK  23 active torsions:
REMARK  status: ('A' for Active; 'I' for Inactive)
REMARK    1  A    between atoms: C_1  and  C_2
REMARK    2  A    between atoms: C_1  and  C_3
REMARK    3  A    between atoms: C_1  and  C_4
REMARK    4  A    between atoms: C_4  and  N_5
REMARK    5  A    between atoms: N_5  and  C_6
REMARK    6  A    between atoms: N_5  and  S_40
REMARK    7  A    between atoms: C_6  and  C_7
REMARK    8  A    between atoms: C_7  and  O_9
REMARK    9  A    between atoms: C_7  and  C_10
REMARK   10  A    between atoms: C_10  and  N_12
REMARK   11  A    between atoms: C_10  and  C_33
REMARK   12  A    between atoms: C_13  and  C_15
REMARK   13  A    between atoms: C_15  and  C_17
REMARK   14  A    between atoms: C_15  and  N_20
REMARK   15  A    between atoms: C_17  and  C_18
REMARK   16  A    between atoms: C_17  and  C_19
REMARK   17  A    between atoms: N_23  and  C_24
REMARK   18  A    between atoms: C_24  and  C_25
REMARK   19  A    between atoms: C_28  and  C_29
REMARK   20  A    between atoms: C_33  and  C_34
REMARK   21  A    between atoms: S_40  and  C_43
REMARK   22  A    between atoms: C_46  and  C_49
REMARK   23  A    between atoms: N_50  and  O_51
REMARK                            x       y       z     vdW  Elec       q    Type
REMARK                         _______ _______ _______ _____ _____    ______ ____
ROOT
ATOM      1  C   UNL     1       5.296  -0.633  25.500  0.00  0.00    +0.107 C 
ENDROOT
BRANCH   1   2
ATOM      2  N   UNL     1       4.661  -0.653  26.817  0.00  0.00    -0.308 N 
ATOM      3  H   UNL     1       5.062  -1.199  27.569  0.00  0.00    +0.149 HD
ATOM      4  C   UNL     1       3.734   0.309  27.170  0.00  0.00    +0.234 C 
ATOM      5  O   UNL     1       3.265   1.102  26.358  0.00  0.00    -0.274 OA
BRANCH   4   6
ATOM      6  C   UNL     1       3.222   0.163  28.622  0.00  0.00    +0.166 C 
BRANCH   6   7
ATOM      7  N   UNL     1       3.042  -1.239  29.034  0.00  0.00    -0.272 N 
ATOM      8  C   UNL     1       2.402  -2.236  28.292  0.00  0.00    +0.306 C 
ATOM      9  O   UNL     1       1.735  -2.080  27.288  0.00  0.00    -0.252 OA
ATOM     10  N   UNL     1       2.631  -3.446  28.940  0.00  0.00    -0.278 N 
ATOM     11  C   UNL     1       3.731  -3.316  29.863  0.00  0.00    +0.129 C 
ATOM     12  C   UNL     1       3.760  -1.821  30.152  0.00  0.00    +0.129 C 
BRANCH  10  13
ATOM     13  C   UNL     1       2.167  -4.730  28.452  0.00  0.00    +0.165 C 
BRANCH  13  14
ATOM     14  C   UNL     1       3.145  -5.287  27.462  0.00  0.00    +0.066 A 
ATOM     15  N   UNL     1       2.827  -5.300  26.104  0.00  0.00    -0.248 NA
ATOM     16  C   UNL     1       3.802  -5.855  25.413  0.00  0.00    +0.076 A 
ATOM     17  C   UNL     1       3.807  -6.000  23.929  0.00  0.00    +0.073 C 
ATOM     18  S   UNL     1       5.146  -6.398  26.337  0.00  0.00    -0.080 S 
ATOM     19  C   UNL     1       4.380  -5.837  27.760  0.00  0.00    +0.071 A 
ENDBRANCH  13  14
ENDBRANCH  10  13
ENDBRANCH   6   7
BRANCH   6  20
ATOM     20  C   UNL     1       3.968   1.046  29.648  0.00  0.00    +0.012 C 
ATOM     21  C   UNL     1       3.123   2.279  30.023  0.00  0.00    +0.009 C 
ATOM     22  C   UNL     1       5.373   1.459  29.207  0.00  0.00    +0.009 C 
ENDBRANCH   6  20
ENDBRANCH   4   6
ENDBRANCH   1   2
BRANCH   1  23
ATOM     23  C   UNL     1       6.695   0.004  25.630  0.00  0.00    +0.060 C 
BRANCH  23  24
ATOM     24  C   UNL     1       6.880   1.229  24.776  0.00  0.00    -0.046 A 
ATOM     25  C   UNL     1       6.573   1.197  23.412  0.00  0.00    +0.004 A 
ATOM     26  C   UNL     1       6.713   2.343  22.633  0.00  0.00    +0.000 A 
ATOM     27  C   UNL     1       7.163   3.531  23.208  0.00  0.00    +0.000 A 
ATOM     28  C   UNL     1       7.488   3.569  24.562  0.00  0.00    +0.000 A 
ATOM     29  C   UNL     1       7.354   2.421  25.342  0.00  0.00    +0.004 A 
ENDBRANCH  23  24
ENDBRANCH   1  23
BRANCH   1  30
ATOM     30  C   UNL     1       5.231  -2.021  24.792  0.00  0.00    +0.151 C 
BRANCH  30  31
ATOM     31  O   UNL     1       3.952  -2.624  25.077  0.00  0.00    -0.389 OA
ATOM     32  H   UNL     1       3.952  -2.838  26.027  0.00  0.00    +0.210 HD
ENDBRANCH  30  31
BRANCH  30  33
ATOM     33  C   UNL     1       6.327  -3.007  25.232  0.00  0.00    +0.142 C 
BRANCH  33  34
ATOM     34  N   UNL     1       7.436  -3.289  24.199  0.00  0.00    -0.174 NA
BRANCH  34  35
ATOM     35  S   UNL     1       9.012  -3.026  24.879  0.00  0.00    +0.061 S 
ATOM     36  O   UNL     1       9.837  -4.114  24.386  0.00  0.00    -0.153 OA
ATOM     37  O   UNL     1       8.884  -2.791  26.300  0.00  0.00    -0.153 OA
BRANCH  35  38
ATOM     38  C   UNL     1       9.664  -1.511  24.179  0.00  0.00    +0.106 A 
ATOM     39  C   UNL     1      10.192  -0.542  25.051  0.00  0.00    +0.029 A 
ATOM     40  C   UNL     1      10.523   0.727  24.569  0.00  0.00    +0.011 A 
ATOM     41  C   UNL     1      10.320   1.033  23.220  0.00  0.00    -0.004 A 
ATOM     42  C   UNL     1       9.818   0.058  22.348  0.00  0.00    +0.011 A 
ATOM     43  C   UNL     1       9.481  -1.220  22.832  0.00  0.00    +0.029 A 
BRANCH  41  44
ATOM     44  C   UNL     1      10.592   2.415  22.771  0.00  0.00    +0.160 C 
ATOM     45  N   UNL     1      10.982   3.348  23.580  0.00  0.00    -0.095 NA
BRANCH  45  46
ATOM     46  O   UNL     1      11.183   4.525  22.848  0.00  0.00    -0.409 OA
ATOM     47  H   UNL     1      11.324   4.189  21.943  0.00  0.00    +0.328 HD
ENDBRANCH  45  46
ENDBRANCH  41  44
ENDBRANCH  35  38
ENDBRANCH  34  35
BRANCH  34  48
ATOM     48  C   UNL     1       7.272  -4.655  23.590  0.00  0.00    +0.112 C 
BRANCH  48  49
ATOM     49  C   UNL     1       7.103  -4.666  22.055  0.00  0.00    -0.001 C 
ATOM     50  C   UNL     1       6.023  -3.660  21.645  0.00  0.00    +0.008 C 
ATOM     51  C   UNL     1       6.750  -6.052  21.509  0.00  0.00    +0.008 C 
ENDBRANCH  48  49
ENDBRANCH  34  48
ENDBRANCH  33  34
ENDBRANCH  30  33
ENDBRANCH   1  30
TORSDOF 18
ENDMDL
MODEL 3
REMARK VINA RESULT:      -6.2      2.255      6.118
REMARK  Name = 
REMARK  23 active torsions:
REMARK  status: ('A' for Active; 'I' for Inactive)
REMARK    1  A    between atoms: C_1  and  C_2
REMARK    2  A    between atoms: C_1  and  C_3
REMARK    3  A    between atoms: C_1  and  C_4
REMARK    4  A    between atoms: C_4  and  N_5
REMARK    5  A    between atoms: N_5  and  C_6
REMARK    6  A    between atoms: N_5  and  S_40
REMARK    7  A    between atoms: C_6  and  C_7
REMARK    8  A    between atoms: C_7  and  O_9
REMARK    9  A    between atoms: C_7  and  C_10
REMARK   10  A    between atoms: C_10  and  N_12
REMARK   11  A    between atoms: C_10  and  C_33
REMARK   12  A    between atoms: C_13  and  C_15
REMARK   13  A    between atoms: C_15  and  C_17
REMARK   14  A    between atoms: C_15  and  N_20
REMARK   15  A    between atoms: C_17  and  C_18
REMARK   16  A    between atoms: C_17  and  C_19
REMARK   17  A    between atoms: N_23  and  C_24
REMARK   18  A    between atoms: C_24  and  C_25
REMARK   19  A    between atoms: C_28  and  C_29
REMARK   20  A    between atoms: C_33  and  C_34
REMARK   21  A    between atoms: S_40  and  C_43
REMARK   22  A    between atoms: C_46  and  C_49
REMARK   23  A    between atoms: N_50  and  O_51
REMARK                            x       y       z     vdW  Elec       q    Type
REMARK                         _______ _______ _______ _____ _____    ______ ____
ROOT
ATOM      1  C   UNL     1       4.512  -5.949  25.572  0.00  0.00    +0.107 C 
ENDROOT
BRANCH   1   2
ATOM      2  N   UNL     1       3.820  -5.237  26.645  0.00  0.00    -0.308 N 
ATOM      3  H   UNL     1       3.322  -4.379  26.449  0.00  0.00    +0.149 HD
ATOM      4  C   UNL     1       3.533  -5.867  27.841  0.00  0.00    +0.234 C 
ATOM      5  O   UNL     1       3.992  -6.968  28.134  0.00  0.00    -0.274 OA
BRANCH   4   6
ATOM      6  C   UNL     1       2.740  -4.978  28.827  0.00  0.00    +0.166 C 
BRANCH   6   7
ATOM      7  N   UNL     1       3.177  -3.572  28.818  0.00  0.00    -0.272 N 
ATOM      8  C   UNL     1       2.799  -2.601  27.886  0.00  0.00    +0.306 C 
ATOM      9  O   UNL     1       2.209  -2.788  26.840  0.00  0.00    -0.252 OA
ATOM     10  N   UNL     1       3.262  -1.374  28.353  0.00  0.00    -0.278 N 
ATOM     11  C   UNL     1       3.586  -1.466  29.756  0.00  0.00    +0.129 C 
ATOM     12  C   UNL     1       3.842  -2.955  29.951  0.00  0.00    +0.129 C 
BRANCH  10  13
ATOM     13  C   UNL     1       3.028  -0.109  27.686  0.00  0.00    +0.165 C 
BRANCH  13  14
ATOM     14  C   UNL     1       4.257   0.309  26.936  0.00  0.00    +0.066 A 
ATOM     15  N   UNL     1       4.583  -0.316  25.733  0.00  0.00    -0.248 NA
ATOM     16  C   UNL     1       5.710   0.176  25.255  0.00  0.00    +0.076 A 
ATOM     17  C   UNL     1       6.331  -0.242  23.966  0.00  0.00    +0.073 C 
ATOM     18  S   UNL     1       6.445   1.400  26.210  0.00  0.00    -0.080 S 
ATOM     19  C   UNL     1       5.162   1.280  27.334  0.00  0.00    +0.071 A 
ENDBRANCH  13  14
ENDBRANCH  10  13
ENDBRANCH   6   7
BRANCH   6  20
ATOM     20  C   UNL     1       1.209  -5.176  28.769  0.00  0.00    +0.012 C 
ATOM     21  C   UNL     1       0.715  -5.977  29.989  0.00  0.00    +0.009 C 
ATOM     22  C   UNL     1       0.714  -5.807  27.466  0.00  0.00    +0.009 C 
ENDBRANCH   6  20
ENDBRANCH   4   6
ENDBRANCH   1   2
BRANCH   1  23
ATOM     23  C   UNL     1       3.728  -5.758  24.258  0.00  0.00    +0.060 C 
BRANCH  23  24
ATOM     24  C   UNL     1       2.712  -6.839  24.001  0.00  0.00    -0.046 A 
ATOM     25  C   UNL     1       1.914  -6.803  22.853  0.00  0.00    +0.004 A 
ATOM     26  C   UNL     1       0.999  -7.823  22.602  0.00  0.00    +0.000 A 
ATOM     27  C   UNL     1       0.871  -8.886  23.496  0.00  0.00    +0.000 A 
ATOM     28  C   UNL     1       1.649  -8.922  24.650  0.00  0.00    +0.000 A 
ATOM     29  C   UNL     1       2.560  -7.898  24.907  0.00  0.00    +0.004 A 
ENDBRANCH  23  24
ENDBRANCH   1  23
BRANCH   1  30
ATOM     30  C   UNL     1       6.034  -5.609  25.524  0.00  0.00    +0.151 C 
BRANCH  30  31
ATOM     31  O   UNL     1       6.617  -5.925  26.805  0.00  0.00    -0.389 OA
ATOM     32  H   UNL     1       7.520  -6.244  26.627  0.00  0.00    +0.210 HD
ENDBRANCH  30  31
BRANCH  30  33
ATOM     33  C   UNL     1       6.343  -4.134  25.215  0.00  0.00    +0.142 C 
BRANCH  33  34
ATOM     34  N   UNL     1       7.478  -3.880  24.204  0.00  0.00    -0.174 NA
BRANCH  34  35
ATOM     35  S   UNL     1       8.973  -3.524  25.012  0.00  0.00    +0.061 S 
ATOM     36  O   UNL     1       9.910  -4.539  24.567  0.00  0.00    -0.153 OA
ATOM     37  O   UNL     1       8.719  -3.332  26.422  0.00  0.00    -0.153 OA
BRANCH  35  38
ATOM     38  C   UNL     1       9.568  -1.951  24.394  0.00  0.00    +0.106 A 
ATOM     39  C   UNL     1       9.638  -0.863  25.282  0.00  0.00    +0.029 A 
ATOM     40  C   UNL     1       9.902   0.421  24.797  0.00  0.00    +0.011 A 
ATOM     41  C   UNL     1      10.088   0.622  23.427  0.00  0.00    -0.004 A 
ATOM     42  C   UNL     1      10.043  -0.467  22.546  0.00  0.00    +0.011 A 
ATOM     43  C   UNL     1       9.774  -1.761  23.031  0.00  0.00    +0.029 A 
BRANCH  41  44
ATOM     44  C   UNL     1      10.268   2.008  22.945  0.00  0.00    +0.160 C 
ATOM     45  N   UNL     1      10.984   2.881  23.580  0.00  0.00    -0.095 NA
BRANCH  45  46
ATOM     46  O   UNL     1      10.983   4.079  22.855  0.00  0.00    -0.409 OA
ATOM     47  H   UNL     1      10.299   3.915  22.179  0.00  0.00    +0.328 HD
ENDBRANCH  45  46
ENDBRANCH  41  44
ENDBRANCH  35  38
ENDBRANCH  34  35
BRANCH  34  48
ATOM     48  C   UNL     1       7.589  -5.014  23.221  0.00  0.00    +0.112 C 
BRANCH  48  49
ATOM     49  C   UNL     1       6.987  -4.727  21.828  0.00  0.00    -0.001 C 
ATOM     50  C   UNL     1       6.234  -3.394  21.854  0.00  0.00    +0.008 C 
ATOM     51  C   UNL     1       6.050  -5.839  21.350  0.00  0.00    +0.008 C 
ENDBRANCH  48  49
ENDBRANCH  34  48
ENDBRANCH  33  34
ENDBRANCH  30  33
ENDBRANCH   1  30
TORSDOF 18
ENDMDL
MODEL 4
REMARK VINA RESULT:      -6.2      3.032      5.928
REMARK  Name = 
REMARK  23 active torsions:
REMARK  status: ('A' for Active; 'I' for Inactive)
REMARK    1  A    between atoms: C_1  and  C_2
REMARK    2  A    between atoms: C_1  and  C_3
REMARK    3  A    between atoms: C_1  and  C_4
REMARK    4  A    between atoms: C_4  and  N_5
REMARK    5  A    between atoms: N_5  and  C_6
REMARK    6  A    between atoms: N_5  and  S_40
REMARK    7  A    between atoms: C_6  and  C_7
REMARK    8  A    between atoms: C_7  and  O_9
REMARK    9  A    between atoms: C_7  and  C_10
REMARK   10  A    between atoms: C_10  and  N_12
REMARK   11  A    between atoms: C_10  and  C_33
REMARK   12  A    between atoms: C_13  and  C_15
REMARK   13  A    between atoms: C_15  and  C_17
REMARK   14  A    between atoms: C_15  and  N_20
REMARK   15  A    between atoms: C_17  and  C_18
REMARK   16  A    between atoms: C_17  and  C_19
REMARK   17  A    between atoms: N_23  and  C_24
REMARK   18  A    between atoms: C_24  and  C_25
REMARK   19  A    between atoms: C_28  and  C_29
REMARK   20  A    between atoms: C_33  and  C_34
REMARK   21  A    between atoms: S_40  and  C_43
REMARK   22  A    between atoms: C_46  and  C_49
REMARK   23  A    between atoms: N_50  and  O_51
REMARK                            x       y       z     vdW  Elec       q    Type
REMARK                         _______ _______ _______ _____ _____    ______ ____
ROOT
ATOM      1  C   UNL     1       6.912   1.712  26.094  0.00  0.00    +0.107 C 
ENDROOT
BRANCH   1   2
ATOM      2  N   UNL     1       7.108   0.474  25.342  0.00  0.00    -0.308 N 
ATOM      3  H   UNL     1       6.947   0.453  24.343  0.00  0.00    +0.149 HD
ATOM      4  C   UNL     1       7.831  -0.573  25.880  0.00  0.00    +0.234 C 
ATOM      5  O   UNL     1       8.181  -0.598  27.058  0.00  0.00    -0.274 OA
BRANCH   4   6
ATOM      6  C   UNL     1       7.988  -1.771  24.914  0.00  0.00    +0.166 C 
BRANCH   6   7
ATOM      7  N   UNL     1       6.933  -2.786  25.075  0.00  0.00    -0.272 N 
ATOM      8  C   UNL     1       7.091  -4.165  24.912  0.00  0.00    +0.306 C 
ATOM      9  O   UNL     1       8.054  -4.736  24.437  0.00  0.00    -0.252 OA
ATOM     10  N   UNL     1       5.919  -4.772  25.354  0.00  0.00    -0.278 N 
ATOM     11  C   UNL     1       5.159  -3.854  26.166  0.00  0.00    +0.129 C 
ATOM     12  C   UNL     1       5.657  -2.492  25.699  0.00  0.00    +0.129 C 
BRANCH  10  13
ATOM     13  C   UNL     1       5.709  -6.206  25.389  0.00  0.00    +0.165 C 
BRANCH  13  14
ATOM     14  C   UNL     1       4.420  -6.553  24.707  0.00  0.00    +0.066 A 
ATOM     15  N   UNL     1       3.620  -7.577  25.213  0.00  0.00    -0.248 NA
ATOM     16  C   UNL     1       2.555  -7.740  24.454  0.00  0.00    +0.076 A 
ATOM     17  C   UNL     1       1.471  -8.727  24.725  0.00  0.00    +0.073 C 
ATOM     18  S   UNL     1       2.448  -6.692  23.096  0.00  0.00    -0.080 S 
ATOM     19  C   UNL     1       3.920  -5.956  23.562  0.00  0.00    +0.071 A 
ENDBRANCH  13  14
ENDBRANCH  10  13
ENDBRANCH   6   7
BRANCH   6  20
ATOM     20  C   UNL     1       8.278  -1.370  23.450  0.00  0.00    +0.012 C 
ATOM     21  C   UNL     1       7.021  -1.549  22.576  0.00  0.00    +0.009 C 
ATOM     22  C   UNL     1       9.479  -2.089  22.835  0.00  0.00    +0.009 C 
ENDBRANCH   6  20
ENDBRANCH   4   6
ENDBRANCH   1   2
BRANCH   1  23
ATOM     23  C   UNL     1       7.949   2.752  25.625  0.00  0.00    +0.060 C 
BRANCH  23  24
ATOM     24  C   UNL     1       8.596   2.406  24.311  0.00  0.00    -0.046 A 
ATOM     25  C   UNL     1       9.954   2.077  24.253  0.00  0.00    +0.004 A 
ATOM     26  C   UNL     1      10.541   1.724  23.039  0.00  0.00    +0.000 A 
ATOM     27  C   UNL     1       9.777   1.701  21.873  0.00  0.00    +0.000 A 
ATOM     28  C   UNL     1       8.428   2.044  21.917  0.00  0.00    +0.000 A 
ATOM     29  C   UNL     1       7.841   2.403  23.129  0.00  0.00    +0.004 A 
ENDBRANCH  23  24
ENDBRANCH   1  23
BRANCH   1  30
ATOM     30  C   UNL     1       5.422   2.173  26.093  0.00  0.00    +0.151 C 
BRANCH  30  31
ATOM     31  O   UNL     1       4.599   1.073  25.654  0.00  0.00    -0.389 OA
ATOM     32  H   UNL     1       4.272   1.308  24.768  0.00  0.00    +0.210 HD
ENDBRANCH  30  31
BRANCH  30  33
ATOM     33  C   UNL     1       5.132   3.375  25.177  0.00  0.00    +0.142 C 
BRANCH  33  34
ATOM     34  N   UNL     1       5.605   4.748  25.694  0.00  0.00    -0.174 NA
BRANCH  34  35
ATOM     35  S   UNL     1       5.942   5.834  24.382  0.00  0.00    +0.061 S 
ATOM     36  O   UNL     1       5.366   7.108  24.770  0.00  0.00    -0.153 OA
ATOM     37  O   UNL     1       5.559   5.208  23.136  0.00  0.00    -0.153 OA
BRANCH  35  38
ATOM     38  C   UNL     1       7.717   6.061  24.301  0.00  0.00    +0.106 A 
ATOM     39  C   UNL     1       8.354   5.940  23.053  0.00  0.00    +0.029 A 
ATOM     40  C   UNL     1       9.749   5.910  22.979  0.00  0.00    +0.011 A 
ATOM     41  C   UNL     1      10.509   5.991  24.150  0.00  0.00    -0.004 A 
ATOM     42  C   UNL     1       9.873   6.137  25.389  0.00  0.00    +0.011 A 
ATOM     43  C   UNL     1       8.469   6.165  25.467  0.00  0.00    +0.029 A 
BRANCH  41  44
ATOM     44  C   UNL     1      11.978   5.858  24.036  0.00  0.00    +0.160 C 
ATOM     45  N   UNL     1      12.542   4.956  23.298  0.00  0.00    -0.095 NA
BRANCH  45  46
ATOM     46  O   UNL     1      13.932   5.113  23.379  0.00  0.00    -0.409 OA
ATOM     47  H   UNL     1      14.021   5.980  23.817  0.00  0.00    +0.328 HD
ENDBRANCH  45  46
ENDBRANCH  41  44
ENDBRANCH  35  38
ENDBRANCH  34  35
BRANCH  34  48
ATOM     48  C   UNL     1       4.634   5.311  26.697  0.00  0.00    +0.112 C 
BRANCH  48  49
ATOM     49  C   UNL     1       5.280   5.875  27.981  0.00  0.00    -0.001 C 
ATOM     50  C   UNL     1       6.424   4.961  28.429  0.00  0.00    +0.008 C 
ATOM     51  C   UNL     1       4.275   6.039  29.124  0.00  0.00    +0.008 C 
ENDBRANCH  48  49
ENDBRANCH  34  48
ENDBRANCH  33  34
ENDBRANCH  30  33
ENDBRANCH   1  30
TORSDOF 18
ENDMDL
MODEL 5
REMARK VINA RESULT:      -6.2      2.127      2.772
REMARK  Name = 
REMARK  23 active torsions:
REMARK  status: ('A' for Active; 'I' for Inactive)
REMARK    1  A    between atoms: C_1  and  C_2
REMARK    2  A    between atoms: C_1  and  C_3
REMARK    3  A    between atoms: C_1  and  C_4
REMARK    4  A    between atoms: C_4  and  N_5
REMARK    5  A    between atoms: N_5  and  C_6
REMARK    6  A    between atoms: N_5  and  S_40
REMARK    7  A    between atoms: C_6  and  C_7
REMARK    8  A    between atoms: C_7  and  O_9
REMARK    9  A    between atoms: C_7  and  C_10
REMARK   10  A    between atoms: C_10  and  N_12
REMARK   11  A    between atoms: C_10  and  C_33
REMARK   12  A    between atoms: C_13  and  C_15
REMARK   13  A    between atoms: C_15  and  C_17
REMARK   14  A    between atoms: C_15  and  N_20
REMARK   15  A    between atoms: C_17  and  C_18
REMARK   16  A    between atoms: C_17  and  C_19
REMARK   17  A    between atoms: N_23  and  C_24
REMARK   18  A    between atoms: C_24  and  C_25
REMARK   19  A    between atoms: C_28  and  C_29
REMARK   20  A    between atoms: C_33  and  C_34
REMARK   21  A    between atoms: S_40  and  C_43
REMARK   22  A    between atoms: C_46  and  C_49
REMARK   23  A    between atoms: N_50  and  O_51
REMARK                            x       y       z     vdW  Elec       q    Type
REMARK                         _______ _______ _______ _____ _____    ______ ____
ROOT
ATOM      1  C   UNL     1       5.543   0.131  25.350  0.00  0.00    +0.107 C 
ENDROOT
BRANCH   1   2
ATOM      2  N   UNL     1       4.847   0.232  26.632  0.00  0.00    -0.308 N 
ATOM      3  H   UNL     1       5.263  -0.153  27.470  0.00  0.00    +0.149 HD
ATOM      4  C   UNL     1       3.811   1.130  26.805  0.00  0.00    +0.234 C 
ATOM      5  O   UNL     1       3.306   1.744  25.869  0.00  0.00    -0.274 OA
BRANCH   4   6
ATOM      6  C   UNL     1       3.243   1.142  28.244  0.00  0.00    +0.166 C 
BRANCH   6   7
ATOM      7  N   UNL     1       3.075  -0.207  28.810  0.00  0.00    -0.272 N 
ATOM      8  C   UNL     1       2.722  -1.357  28.097  0.00  0.00    +0.306 C 
ATOM      9  O   UNL     1       2.318  -1.408  26.952  0.00  0.00    -0.252 OA
ATOM     10  N   UNL     1       2.874  -2.441  28.957  0.00  0.00    -0.278 N 
ATOM     11  C   UNL     1       3.694  -2.070  30.085  0.00  0.00    +0.129 C 
ATOM     12  C   UNL     1       3.532  -0.556  30.142  0.00  0.00    +0.129 C 
BRANCH  10  13
ATOM     13  C   UNL     1       2.648  -3.821  28.575  0.00  0.00    +0.165 C 
BRANCH  13  14
ATOM     14  C   UNL     1       3.937  -4.585  28.629  0.00  0.00    +0.066 A 
ATOM     15  N   UNL     1       4.931  -4.337  27.683  0.00  0.00    -0.248 NA
ATOM     16  C   UNL     1       5.964  -5.132  27.888  0.00  0.00    +0.076 A 
ATOM     17  C   UNL     1       7.217  -5.109  27.082  0.00  0.00    +0.073 C 
ATOM     18  S   UNL     1       5.806  -6.219  29.209  0.00  0.00    -0.080 S 
ATOM     19  C   UNL     1       4.258  -5.575  29.543  0.00  0.00    +0.071 A 
ENDBRANCH  13  14
ENDBRANCH  10  13
ENDBRANCH   6   7
BRANCH   6  20
ATOM     20  C   UNL     1       3.929   2.155  29.187  0.00  0.00    +0.012 C 
ATOM     21  C   UNL     1       2.927   3.228  29.656  0.00  0.00    +0.009 C 
ATOM     22  C   UNL     1       5.185   2.800  28.599  0.00  0.00    +0.009 C 
ENDBRANCH   6  20
ENDBRANCH   4   6
ENDBRANCH   1   2
BRANCH   1  23
ATOM     23  C   UNL     1       6.859   0.930  25.431  0.00  0.00    +0.060 C 
BRANCH  23  24
ATOM     24  C   UNL     1       6.945   2.052  24.432  0.00  0.00    -0.046 A 
ATOM     25  C   UNL     1       6.655   1.824  23.083  0.00  0.00    +0.004 A 
ATOM     26  C   UNL     1       6.702   2.873  22.167  0.00  0.00    +0.000 A 
ATOM     27  C   UNL     1       7.041   4.158  22.590  0.00  0.00    +0.000 A 
ATOM     28  C   UNL     1       7.347   4.392  23.929  0.00  0.00    +0.000 A 
ATOM     29  C   UNL     1       7.307   3.342  24.845  0.00  0.00    +0.004 A 
ENDBRANCH  23  24
ENDBRANCH   1  23
BRANCH   1  30
ATOM     30  C   UNL     1       5.659  -1.344  24.857  0.00  0.00    +0.151 C 
BRANCH  30  31
ATOM     31  O   UNL     1       5.105  -2.212  25.867  0.00  0.00    -0.389 OA
ATOM     32  H   UNL     1       4.151  -2.276  25.685  0.00  0.00    +0.210 HD
ENDBRANCH  30  31
BRANCH  30  33
ATOM     33  C   UNL     1       7.099  -1.806  24.574  0.00  0.00    +0.142 C 
BRANCH  33  34
ATOM     34  N   UNL     1       7.496  -1.907  23.088  0.00  0.00    -0.174 NA
BRANCH  34  35
ATOM     35  S   UNL     1       9.219  -2.017  22.903  0.00  0.00    +0.061 S 
ATOM     36  O   UNL     1       9.438  -2.474  21.543  0.00  0.00    -0.153 OA
ATOM     37  O   UNL     1       9.772  -2.751  24.019  0.00  0.00    -0.153 OA
BRANCH  35  38
ATOM     38  C   UNL     1       9.888  -0.359  23.016  0.00  0.00    +0.106 A 
ATOM     39  C   UNL     1      10.284   0.121  24.277  0.00  0.00    +0.029 A 
ATOM     40  C   UNL     1      10.619   1.468  24.439  0.00  0.00    +0.011 A 
ATOM     41  C   UNL     1      10.552   2.338  23.347  0.00  0.00    -0.004 A 
ATOM     42  C   UNL     1      10.182   1.852  22.086  0.00  0.00    +0.011 A 
ATOM     43  C   UNL     1       9.840   0.497  21.921  0.00  0.00    +0.029 A 
BRANCH  41  44
ATOM     44  C   UNL     1      10.821   3.773  23.583  0.00  0.00    +0.160 C 
ATOM     45  N   UNL     1      11.926   4.345  23.223  0.00  0.00    -0.095 NA
BRANCH  45  46
ATOM     46  O   UNL     1      11.860   5.704  23.555  0.00  0.00    -0.409 OA
ATOM     47  H   UNL     1      11.588   6.113  22.712  0.00  0.00    +0.328 HD
ENDBRANCH  45  46
ENDBRANCH  41  44
ENDBRANCH  35  38
ENDBRANCH  34  35
BRANCH  34  48
ATOM     48  C   UNL     1       6.753  -3.024  22.406  0.00  0.00    +0.112 C 
BRANCH  48  49
ATOM     49  C   UNL     1       6.847  -4.393  23.113  0.00  0.00    -0.001 C 
ATOM     50  C   UNL     1       7.416  -5.437  22.147  0.00  0.00    +0.008 C 
ATOM     51  C   UNL     1       5.498  -4.873  23.653  0.00  0.00    +0.008 C 
ENDBRANCH  48  49
ENDBRANCH  34  48
ENDBRANCH  33  34
ENDBRANCH  30  33
ENDBRANCH   1  30
TORSDOF 18
ENDMDL
MODEL 6
REMARK VINA RESULT:      -6.1      2.722      5.914
REMARK  Name = 
REMARK  23 active torsions:
REMARK  status: ('A' for Active; 'I' for Inactive)
REMARK    1  A    between atoms: C_1  and  C_2
REMARK    2  A    between atoms: C_1  and  C_3
REMARK    3  A    between atoms: C_1  and  C_4
REMARK    4  A    between atoms: C_4  and  N_5
REMARK    5  A    between atoms: N_5  and  C_6
REMARK    6  A    between atoms: N_5  and  S_40
REMARK    7  A    between atoms: C_6  and  C_7
REMARK    8  A    between atoms: C_7  and  O_9
REMARK    9  A    between atoms: C_7  and  C_10
REMARK   10  A    between atoms: C_10  and  N_12
REMARK   11  A    between atoms: C_10  and  C_33
REMARK   12  A    between atoms: C_13  and  C_15
REMARK   13  A    between atoms: C_15  and  C_17
REMARK   14  A    between atoms: C_15  and  N_20
REMARK   15  A    between atoms: C_17  and  C_18
REMARK   16  A    between atoms: C_17  and  C_19
REMARK   17  A    between atoms: N_23  and  C_24
REMARK   18  A    between atoms: C_24  and  C_25
REMARK   19  A    between atoms: C_28  and  C_29
REMARK   20  A    between atoms: C_33  and  C_34
REMARK   21  A    between atoms: S_40  and  C_43
REMARK   22  A    between atoms: C_46  and  C_49
REMARK   23  A    between atoms: N_50  and  O_51
REMARK                            x       y       z     vdW  Elec       q    Type
REMARK                         _______ _______ _______ _____ _____    ______ ____
ROOT
ATOM      1  C   UNL     1       6.908  -5.169  25.300  0.00  0.00    +0.107 C 
ENDROOT
BRANCH   1   2
ATOM      2  N   UNL     1       6.359  -4.608  26.534  0.00  0.00    -0.308 N 
ATOM      3  H   UNL     1       6.163  -3.618  26.601  0.00  0.00    +0.149 HD
ATOM      4  C   UNL     1       5.779  -5.426  27.485  0.00  0.00    +0.234 C 
ATOM      5  O   UNL     1       5.855  -6.651  27.438  0.00  0.00    -0.274 OA
BRANCH   4   6
ATOM      6  C   UNL     1       5.196  -4.648  28.688  0.00  0.00    +0.166 C 
BRANCH   6   7
ATOM      7  N   UNL     1       4.134  -3.703  28.306  0.00  0.00    -0.272 N 
ATOM      8  C   UNL     1       3.860  -2.481  28.930  0.00  0.00    +0.306 C 
ATOM      9  O   UNL     1       4.316  -2.084  29.984  0.00  0.00    -0.252 OA
ATOM     10  N   UNL     1       2.929  -1.813  28.140  0.00  0.00    -0.278 N 
ATOM     11  C   UNL     1       2.886  -2.393  26.820  0.00  0.00    +0.129 C 
ATOM     12  C   UNL     1       3.416  -3.803  27.050  0.00  0.00    +0.129 C 
BRANCH  10  13
ATOM     13  C   UNL     1       2.424  -0.485  28.427  0.00  0.00    +0.165 C 
BRANCH  13  14
ATOM     14  C   UNL     1       3.312   0.548  27.802  0.00  0.00    +0.066 A 
ATOM     15  N   UNL     1       2.925   1.170  26.616  0.00  0.00    -0.248 NA
ATOM     16  C   UNL     1       3.856   2.018  26.221  0.00  0.00    +0.076 A 
ATOM     17  C   UNL     1       3.752   2.878  25.008  0.00  0.00    +0.073 C 
ATOM     18  S   UNL     1       5.241   2.116  27.232  0.00  0.00    -0.080 S 
ATOM     19  C   UNL     1       4.545   0.958  28.282  0.00  0.00    +0.071 A 
ENDBRANCH  13  14
ENDBRANCH  10  13
ENDBRANCH   6   7
BRANCH   6  20
ATOM     20  C   UNL     1       4.863  -5.532  29.912  0.00  0.00    +0.012 C 
ATOM     21  C   UNL     1       6.113  -6.295  30.390  0.00  0.00    +0.009 C 
ATOM     22  C   UNL     1       3.691  -6.489  29.686  0.00  0.00    +0.009 C 
ENDBRANCH   6  20
ENDBRANCH   4   6
ENDBRANCH   1   2
BRANCH   1  23
ATOM     23  C   UNL     1       6.082  -4.651  24.105  0.00  0.00    +0.060 C 
BRANCH  23  24
ATOM     24  C   UNL     1       4.746  -5.328  23.958  0.00  0.00    -0.046 A 
ATOM     25  C   UNL     1       4.599  -6.683  24.273  0.00  0.00    +0.004 A 
ATOM     26  C   UNL     1       3.353  -7.298  24.168  0.00  0.00    +0.000 A 
ATOM     27  C   UNL     1       2.244  -6.566  23.745  0.00  0.00    +0.000 A 
ATOM     28  C   UNL     1       2.383  -5.220  23.414  0.00  0.00    +0.000 A 
ATOM     29  C   UNL     1       3.631  -4.606  23.511  0.00  0.00    +0.004 A 
ENDBRANCH  23  24
ENDBRANCH   1  23
BRANCH   1  30
ATOM     30  C   UNL     1       8.453  -4.984  25.205  0.00  0.00    +0.151 C 
BRANCH  30  31
ATOM     31  O   UNL     1       9.091  -6.044  25.946  0.00  0.00    -0.389 OA
ATOM     32  H   UNL     1       8.859  -5.906  26.882  0.00  0.00    +0.210 HD
ENDBRANCH  30  31
BRANCH  30  33
ATOM     33  C   UNL     1       8.965  -3.643  25.761  0.00  0.00    +0.142 C 
BRANCH  33  34
ATOM     34  N   UNL     1       8.546  -2.384  24.979  0.00  0.00    -0.174 NA
BRANCH  34  35
ATOM     35  S   UNL     1       7.788  -1.219  26.020  0.00  0.00    +0.061 S 
ATOM     36  O   UNL     1       8.747  -0.957  27.078  0.00  0.00    -0.153 OA
ATOM     37  O   UNL     1       6.451  -1.665  26.340  0.00  0.00    -0.153 OA
BRANCH  35  38
ATOM     38  C   UNL     1       7.599   0.303  25.093  0.00  0.00    +0.106 A 
ATOM     39  C   UNL     1       6.623   0.355  24.082  0.00  0.00    +0.029 A 
ATOM     40  C   UNL     1       6.580   1.445  23.208  0.00  0.00    +0.011 A 
ATOM     41  C   UNL     1       7.514   2.477  23.336  0.00  0.00    -0.004 A 
ATOM     42  C   UNL     1       8.469   2.434  24.360  0.00  0.00    +0.011 A 
ATOM     43  C   UNL     1       8.517   1.337  25.240  0.00  0.00    +0.029 A 
BRANCH  41  44
ATOM     44  C   UNL     1       7.495   3.562  22.331  0.00  0.00    +0.160 C 
ATOM     45  N   UNL     1       7.433   4.814  22.657  0.00  0.00    -0.095 NA
BRANCH  45  46
ATOM     46  O   UNL     1       7.464   5.586  21.489  0.00  0.00    -0.409 OA
ATOM     47  H   UNL     1       6.525   5.819  21.366  0.00  0.00    +0.328 HD
ENDBRANCH  45  46
ENDBRANCH  41  44
ENDBRANCH  35  38
ENDBRANCH  34  35
BRANCH  34  48
ATOM     48  C   UNL     1       9.706  -1.820  24.203  0.00  0.00    +0.112 C 
BRANCH  48  49
ATOM     49  C   UNL     1       9.533  -1.844  22.668  0.00  0.00    -0.001 C 
ATOM     50  C   UNL     1       9.800  -0.449  22.094  0.00  0.00    +0.008 C 
ATOM     51  C   UNL     1       8.143  -2.321  22.239  0.00  0.00    +0.008 C 
ENDBRANCH  48  49
ENDBRANCH  34  48
ENDBRANCH  33  34
ENDBRANCH  30  33
ENDBRANCH   1  30
TORSDOF 18
ENDMDL
MODEL 7
REMARK VINA RESULT:      -5.9      4.774      8.810
REMARK  Name = 
REMARK  23 active torsions:
REMARK  status: ('A' for Active; 'I' for Inactive)
REMARK    1  A    between atoms: C_1  and  C_2
REMARK    2  A    between atoms: C_1  and  C_3
REMARK    3  A    between atoms: C_1  and  C_4
REMARK    4  A    between atoms: C_4  and  N_5
REMARK    5  A    between atoms: N_5  and  C_6
REMARK    6  A    between atoms: N_5  and  S_40
REMARK    7  A    between atoms: C_6  and  C_7
REMARK    8  A    between atoms: C_7  and  O_9
REMARK    9  A    between atoms: C_7  and  C_10
REMARK   10  A    between atoms: C_10  and  N_12
REMARK   11  A    between atoms: C_10  and  C_33
REMARK   12  A    between atoms: C_13  and  C_15
REMARK   13  A    between atoms: C_15  and  C_17
REMARK   14  A    between atoms: C_15  and  N_20
REMARK   15  A    between atoms: C_17  and  C_18
REMARK   16  A    between atoms: C_17  and  C_19
REMARK   17  A    between atoms: N_23  and  C_24
REMARK   18  A    between atoms: C_24  and  C_25
REMARK   19  A    between atoms: C_28  and  C_29
REMARK   20  A    between atoms: C_33  and  C_34
REMARK   21  A    between atoms: S_40  and  C_43
REMARK   22  A    between atoms: C_46  and  C_49
REMARK   23  A    between atoms: N_50  and  O_51
REMARK                            x       y       z     vdW  Elec       q    Type
REMARK                         _______ _______ _______ _____ _____    ______ ____
ROOT
ATOM      1  C   UNL     1       7.968   3.072  22.827  0.00  0.00    +0.107 C 
ENDROOT
BRANCH   1   2
ATOM      2  N   UNL     1       6.732   3.726  23.254  0.00  0.00    -0.308 N 
ATOM      3  H   UNL     1       6.230   3.389  24.066  0.00  0.00    +0.149 HD
ATOM      4  C   UNL     1       6.408   4.991  22.802  0.00  0.00    +0.234 C 
ATOM      5  O   UNL     1       7.026   5.547  21.898  0.00  0.00    -0.274 OA
BRANCH   4   6
ATOM      6  C   UNL     1       5.100   5.545  23.414  0.00  0.00    +0.166 C 
BRANCH   6   7
ATOM      7  N   UNL     1       3.892   5.086  22.708  0.00  0.00    -0.272 N 
ATOM      8  C   UNL     1       2.915   5.907  22.137  0.00  0.00    +0.306 C 
ATOM      9  O   UNL     1       2.797   7.108  22.282  0.00  0.00    -0.252 OA
ATOM     10  N   UNL     1       2.066   5.088  21.398  0.00  0.00    -0.278 N 
ATOM     11  C   UNL     1       2.693   3.813  21.152  0.00  0.00    +0.129 C 
ATOM     12  C   UNL     1       3.715   3.712  22.278  0.00  0.00    +0.129 C 
BRANCH  10  13
ATOM     13  C   UNL     1       0.947   5.573  20.615  0.00  0.00    +0.165 C 
BRANCH  13  14
ATOM     14  C   UNL     1       1.401   5.910  19.226  0.00  0.00    +0.066 A 
ATOM     15  N   UNL     1       1.122   5.038  18.174  0.00  0.00    -0.248 NA
ATOM     16  C   UNL     1       1.632   5.503  17.050  0.00  0.00    +0.076 A 
ATOM     17  C   UNL     1       1.491   4.840  15.723  0.00  0.00    +0.073 C 
ATOM     18  S   UNL     1       2.474   6.995  17.183  0.00  0.00    -0.080 S 
ATOM     19  C   UNL     1       2.120   7.034  18.856  0.00  0.00    +0.071 A 
ENDBRANCH  13  14
ENDBRANCH  10  13
ENDBRANCH   6   7
BRANCH   6  20
ATOM     20  C   UNL     1       5.026   5.438  24.954  0.00  0.00    +0.012 C 
ATOM     21  C   UNL     1       3.584   5.666  25.448  0.00  0.00    +0.009 C 
ATOM     22  C   UNL     1       6.006   6.354  25.688  0.00  0.00    +0.009 C 
ENDBRANCH   6  20
ENDBRANCH   4   6
ENDBRANCH   1   2
BRANCH   1  23
ATOM     23  C   UNL     1       8.961   3.060  24.006  0.00  0.00    +0.060 C 
BRANCH  23  24
ATOM     24  C   UNL     1      10.054   4.086  23.883  0.00  0.00    -0.046 A 
ATOM     25  C   UNL     1       9.838   5.406  24.292  0.00  0.00    +0.004 A 
ATOM     26  C   UNL     1      10.864   6.345  24.209  0.00  0.00    +0.000 A 
ATOM     27  C   UNL     1      12.113   5.975  23.713  0.00  0.00    +0.000 A 
ATOM     28  C   UNL     1      12.334   4.667  23.287  0.00  0.00    +0.000 A 
ATOM     29  C   UNL     1      11.307   3.728  23.364  0.00  0.00    +0.004 A 
ENDBRANCH  23  24
ENDBRANCH   1  23
BRANCH   1  30
ATOM     30  C   UNL     1       7.699   1.701  22.133  0.00  0.00    +0.151 C 
BRANCH  30  31
ATOM     31  O   UNL     1       6.430   1.194  22.591  0.00  0.00    -0.389 OA
ATOM     32  H   UNL     1       6.537   0.231  22.695  0.00  0.00    +0.210 HD
ENDBRANCH  30  31
BRANCH  30  33
ATOM     33  C   UNL     1       8.767   0.630  22.416  0.00  0.00    +0.142 C 
BRANCH  33  34
ATOM     34  N   UNL     1       8.322  -0.550  23.301  0.00  0.00    -0.174 NA
BRANCH  34  35
ATOM     35  S   UNL     1       9.134  -2.017  22.851  0.00  0.00    +0.061 S 
ATOM     36  O   UNL     1      10.072  -2.290  23.925  0.00  0.00    -0.153 OA
ATOM     37  O   UNL     1       9.598  -1.905  21.486  0.00  0.00    -0.153 OA
BRANCH  35  38
ATOM     38  C   UNL     1       7.924  -3.338  22.860  0.00  0.00    +0.106 A 
ATOM     39  C   UNL     1       6.753  -3.180  22.098  0.00  0.00    +0.029 A 
ATOM     40  C   UNL     1       5.701  -4.090  22.235  0.00  0.00    +0.011 A 
ATOM     41  C   UNL     1       5.812  -5.151  23.139  0.00  0.00    -0.004 A 
ATOM     42  C   UNL     1       6.990  -5.320  23.878  0.00  0.00    +0.011 A 
ATOM     43  C   UNL     1       8.050  -4.404  23.744  0.00  0.00    +0.029 A 
BRANCH  41  44
ATOM     44  C   UNL     1       4.640  -6.033  23.324  0.00  0.00    +0.160 C 
ATOM     45  N   UNL     1       4.671  -7.086  24.079  0.00  0.00    -0.095 NA
BRANCH  45  46
ATOM     46  O   UNL     1       3.404  -7.683  24.071  0.00  0.00    -0.409 OA
ATOM     47  H   UNL     1       3.045  -7.427  24.940  0.00  0.00    +0.328 HD
ENDBRANCH  45  46
ENDBRANCH  41  44
ENDBRANCH  35  38
ENDBRANCH  34  35
BRANCH  34  48
ATOM     48  C   UNL     1       8.468  -0.214  24.762  0.00  0.00    +0.112 C 
BRANCH  48  49
ATOM     49  C   UNL     1       7.294  -0.675  25.654  0.00  0.00    -0.001 C 
ATOM     50  C   UNL     1       7.721  -1.888  26.486  0.00  0.00    +0.008 C 
ATOM     51  C   UNL     1       6.040  -1.019  24.847  0.00  0.00    +0.008 C 
ENDBRANCH  48  49
ENDBRANCH  34  48
ENDBRANCH  33  34
ENDBRANCH  30  33
ENDBRANCH   1  30
TORSDOF 18
ENDMDL
MODEL 8
REMARK VINA RESULT:      -5.8      2.536      6.133
REMARK  Name = 
REMARK  23 active torsions:
REMARK  status: ('A' for Active; 'I' for Inactive)
REMARK    1  A    between atoms: C_1  and  C_2
REMARK    2  A    between atoms: C_1  and  C_3
REMARK    3  A    between atoms: C_1  and  C_4
REMARK    4  A    between atoms: C_4  and  N_5
REMARK    5  A    between atoms: N_5  and  C_6
REMARK    6  A    between atoms: N_5  and  S_40
REMARK    7  A    between atoms: C_6  and  C_7
REMARK    8  A    between atoms: C_7  and  O_9
REMARK    9  A    between atoms: C_7  and  C_10
REMARK   10  A    between atoms: C_10  and  N_12
REMARK   11  A    between atoms: C_10  and  C_33
REMARK   12  A    between atoms: C_13  and  C_15
REMARK   13  A    between atoms: C_15  and  C_17
REMARK   14  A    between atoms: C_15  and  N_20
REMARK   15  A    between atoms: C_17  and  C_18
REMARK   16  A    between atoms: C_17  and  C_19
REMARK   17  A    between atoms: N_23  and  C_24
REMARK   18  A    between atoms: C_24  and  C_25
REMARK   19  A    between atoms: C_28  and  C_29
REMARK   20  A    between atoms: C_33  and  C_34
REMARK   21  A    between atoms: S_40  and  C_43
REMARK   22  A    between atoms: C_46  and  C_49
REMARK   23  A    between atoms: N_50  and  O_51
REMARK                            x       y       z     vdW  Elec       q    Type
REMARK                         _______ _______ _______ _____ _____    ______ ____
ROOT
ATOM      1  C   UNL     1       9.112   1.663  24.465  0.00  0.00    +0.107 C 
ENDROOT
BRANCH   1   2
ATOM      2  N   UNL     1       8.326   2.314  25.511  0.00  0.00    -0.308 N 
ATOM      3  H   UNL     1       8.740   3.038  26.084  0.00  0.00    +0.149 HD
ATOM      4  C   UNL     1       6.947   2.224  25.519  0.00  0.00    +0.234 C 
ATOM      5  O   UNL     1       6.331   1.460  24.780  0.00  0.00    -0.274 OA
BRANCH   4   6
ATOM      6  C   UNL     1       6.287   3.031  26.661  0.00  0.00    +0.166 C 
BRANCH   6   7
ATOM      7  N   UNL     1       5.827   2.186  27.775  0.00  0.00    -0.272 N 
ATOM      8  C   UNL     1       4.538   1.666  27.932  0.00  0.00    +0.306 C 
ATOM      9  O   UNL     1       3.550   1.966  27.293  0.00  0.00    -0.252 OA
ATOM     10  N   UNL     1       4.582   0.764  28.992  0.00  0.00    -0.278 N 
ATOM     11  C   UNL     1       5.947   0.391  29.272  0.00  0.00    +0.129 C 
ATOM     12  C   UNL     1       6.743   1.561  28.709  0.00  0.00    +0.129 C 
BRANCH  10  13
ATOM     13  C   UNL     1       3.448  -0.022  29.438  0.00  0.00    +0.165 C 
BRANCH  13  14
ATOM     14  C   UNL     1       3.272  -1.217  28.550  0.00  0.00    +0.066 A 
ATOM     15  N   UNL     1       4.122  -2.313  28.685  0.00  0.00    -0.248 NA
ATOM     16  C   UNL     1       3.819  -3.238  27.794  0.00  0.00    +0.076 A 
ATOM     17  C   UNL     1       4.505  -4.556  27.681  0.00  0.00    +0.073 C 
ATOM     18  S   UNL     1       2.514  -2.852  26.746  0.00  0.00    -0.080 S 
ATOM     19  C   UNL     1       2.327  -1.352  27.546  0.00  0.00    +0.071 A 
ENDBRANCH  13  14
ENDBRANCH  10  13
ENDBRANCH   6   7
BRANCH   6  20
ATOM     20  C   UNL     1       7.078   4.287  27.089  0.00  0.00    +0.012 C 
ATOM     21  C   UNL     1       6.719   4.694  28.531  0.00  0.00    +0.009 C 
ATOM     22  C   UNL     1       6.928   5.472  26.133  0.00  0.00    +0.009 C 
ENDBRANCH   6  20
ENDBRANCH   4   6
ENDBRANCH   1   2
BRANCH   1  23
ATOM     23  C   UNL     1       9.985   2.721  23.762  0.00  0.00    +0.060 C 
BRANCH  23  24
ATOM     24  C   UNL     1       9.230   3.965  23.376  0.00  0.00    -0.046 A 
ATOM     25  C   UNL     1       9.705   5.227  23.747  0.00  0.00    +0.004 A 
ATOM     26  C   UNL     1       9.021   6.377  23.358  0.00  0.00    +0.000 A 
ATOM     27  C   UNL     1       7.857   6.276  22.598  0.00  0.00    +0.000 A 
ATOM     28  C   UNL     1       7.367   5.023  22.237  0.00  0.00    +0.000 A 
ATOM     29  C   UNL     1       8.046   3.872  22.631  0.00  0.00    +0.004 A 
ENDBRANCH  23  24
ENDBRANCH   1  23
BRANCH   1  30
ATOM     30  C   UNL     1       9.852   0.393  24.988  0.00  0.00    +0.151 C 
BRANCH  30  31
ATOM     31  O   UNL     1      11.231   0.732  25.236  0.00  0.00    -0.389 OA
ATOM     32  H   UNL     1      11.235   1.640  25.586  0.00  0.00    +0.210 HD
ENDBRANCH  30  31
BRANCH  30  33
ATOM     33  C   UNL     1       9.825  -0.800  24.016  0.00  0.00    +0.142 C 
BRANCH  33  34
ATOM     34  N   UNL     1       8.642  -1.774  24.175  0.00  0.00    -0.174 NA
BRANCH  34  35
ATOM     35  S   UNL     1       7.740  -1.916  22.698  0.00  0.00    +0.061 S 
ATOM     36  O   UNL     1       8.716  -2.241  21.673  0.00  0.00    -0.153 OA
ATOM     37  O   UNL     1       6.883  -0.761  22.550  0.00  0.00    -0.153 OA
BRANCH  35  38
ATOM     38  C   UNL     1       6.651  -3.330  22.855  0.00  0.00    +0.106 A 
ATOM     39  C   UNL     1       5.497  -3.203  23.648  0.00  0.00    +0.029 A 
ATOM     40  C   UNL     1       4.734  -4.332  23.958  0.00  0.00    +0.011 A 
ATOM     41  C   UNL     1       5.125  -5.588  23.485  0.00  0.00    -0.004 A 
ATOM     42  C   UNL     1       6.261  -5.707  22.674  0.00  0.00    +0.011 A 
ATOM     43  C   UNL     1       7.033  -4.573  22.362  0.00  0.00    +0.029 A 
BRANCH  41  44
ATOM     44  C   UNL     1       4.346  -6.768  23.915  0.00  0.00    +0.160 C 
ATOM     45  N   UNL     1       4.275  -7.145  25.153  0.00  0.00    -0.095 NA
BRANCH  45  46
ATOM     46  O   UNL     1       3.440  -8.267  25.235  0.00  0.00    -0.409 OA
ATOM     47  H   UNL     1       3.335  -8.520  24.299  0.00  0.00    +0.328 HD
ENDBRANCH  45  46
ENDBRANCH  41  44
ENDBRANCH  35  38
ENDBRANCH  34  35
BRANCH  34  48
ATOM     48  C   UNL     1       9.103  -3.100  24.718  0.00  0.00    +0.112 C 
BRANCH  48  49
ATOM     49  C   UNL     1       8.521  -3.473  26.099  0.00  0.00    -0.001 C 
ATOM     50  C   UNL     1       7.918  -4.879  26.045  0.00  0.00    +0.008 C 
ATOM     51  C   UNL     1       7.464  -2.477  26.582  0.00  0.00    +0.008 C 
ENDBRANCH  48  49
ENDBRANCH  34  48
ENDBRANCH  33  34
ENDBRANCH  30  33
ENDBRANCH   1  30
TORSDOF 18
ENDMDL
MODEL 9
REMARK VINA RESULT:      -5.8      2.083      6.187
REMARK  Name = 
REMARK  23 active torsions:
REMARK  status: ('A' for Active; 'I' for Inactive)
REMARK    1  A    between atoms: C_1  and  C_2
REMARK    2  A    between atoms: C_1  and  C_3
REMARK    3  A    between atoms: C_1  and  C_4
REMARK    4  A    between atoms: C_4  and  N_5
REMARK    5  A    between atoms: N_5  and  C_6
REMARK    6  A    between atoms: N_5  and  S_40
REMARK    7  A    between atoms: C_6  and  C_7
REMARK    8  A    between atoms: C_7  and  O_9
REMARK    9  A    between atoms: C_7  and  C_10
REMARK   10  A    between atoms: C_10  and  N_12
REMARK   11  A    between atoms: C_10  and  C_33
REMARK   12  A    between atoms: C_13  and  C_15
REMARK   13  A    between atoms: C_15  and  C_17
REMARK   14  A    between atoms: C_15  and  N_20
REMARK   15  A    between atoms: C_17  and  C_18
REMARK   16  A    between atoms: C_17  and  C_19
REMARK   17  A    between atoms: N_23  and  C_24
REMARK   18  A    between atoms: C_24  and  C_25
REMARK   19  A    between atoms: C_28  and  C_29
REMARK   20  A    between atoms: C_33  and  C_34
REMARK   21  A    between atoms: S_40  and  C_43
REMARK   22  A    between atoms: C_46  and  C_49
REMARK   23  A    between atoms: N_50  and  O_51
REMARK                            x       y       z     vdW  Elec       q    Type
REMARK                         _______ _______ _______ _____ _____    ______ ____
ROOT
ATOM      1  C   UNL     1       5.769  -5.409  24.901  0.00  0.00    +0.107 C 
ENDROOT
BRANCH   1   2
ATOM      2  N   UNL     1       4.781  -4.979  25.889  0.00  0.00    -0.308 N 
ATOM      3  H   UNL     1       3.806  -4.896  25.633  0.00  0.00    +0.149 HD
ATOM      4  C   UNL     1       5.071  -5.014  27.240  0.00  0.00    +0.234 C 
ATOM      5  O   UNL     1       6.204  -5.222  27.667  0.00  0.00    -0.274 OA
BRANCH   4   6
ATOM      6  C   UNL     1       3.883  -4.586  28.133  0.00  0.00    +0.166 C 
BRANCH   6   7
ATOM      7  N   UNL     1       3.949  -3.175  28.548  0.00  0.00    -0.272 N 
ATOM      8  C   UNL     1       3.880  -2.067  27.699  0.00  0.00    +0.306 C 
ATOM      9  O   UNL     1       3.941  -2.076  26.485  0.00  0.00    -0.252 OA
ATOM     10  N   UNL     1       3.772  -0.935  28.502  0.00  0.00    -0.278 N 
ATOM     11  C   UNL     1       3.372  -1.308  29.837  0.00  0.00    +0.129 C 
ATOM     12  C   UNL     1       3.816  -2.762  29.932  0.00  0.00    +0.129 C 
BRANCH  10  13
ATOM     13  C   UNL     1       3.629   0.414  27.991  0.00  0.00    +0.165 C 
BRANCH  13  14
ATOM     14  C   UNL     1       4.856   1.215  28.310  0.00  0.00    +0.066 A 
ATOM     15  N   UNL     1       5.235   2.265  27.475  0.00  0.00    -0.248 NA
ATOM     16  C   UNL     1       6.350   2.816  27.914  0.00  0.00    +0.076 A 
ATOM     17  C   UNL     1       7.018   3.988  27.279  0.00  0.00    +0.073 C 
ATOM     18  S   UNL     1       7.010   2.115  29.337  0.00  0.00    -0.080 S 
ATOM     19  C   UNL     1       5.708   1.006  29.382  0.00  0.00    +0.071 A 
ENDBRANCH  13  14
ENDBRANCH  10  13
ENDBRANCH   6   7
BRANCH   6  20
ATOM     20  C   UNL     1       2.502  -5.040  27.610  0.00  0.00    +0.012 C 
ATOM     21  C   UNL     1       1.384  -4.137  28.166  0.00  0.00    +0.009 C 
ATOM     22  C   UNL     1       2.193  -6.515  27.869  0.00  0.00    +0.009 C 
ENDBRANCH   6  20
ENDBRANCH   4   6
ENDBRANCH   1   2
BRANCH   1  23
ATOM     23  C   UNL     1       5.135  -6.481  23.993  0.00  0.00    +0.060 C 
BRANCH  23  24
ATOM     24  C   UNL     1       3.632  -6.422  23.952  0.00  0.00    -0.046 A 
ATOM     25  C   UNL     1       2.979  -5.301  23.428  0.00  0.00    +0.004 A 
ATOM     26  C   UNL     1       1.588  -5.265  23.361  0.00  0.00    +0.000 A 
ATOM     27  C   UNL     1       0.837  -6.347  23.818  0.00  0.00    +0.000 A 
ATOM     28  C   UNL     1       1.476  -7.461  24.356  0.00  0.00    +0.000 A 
ATOM     29  C   UNL     1       2.868  -7.496  24.431  0.00  0.00    +0.004 A 
ENDBRANCH  23  24
ENDBRANCH   1  23
BRANCH   1  30
ATOM     30  C   UNL     1       6.444  -4.202  24.179  0.00  0.00    +0.151 C 
BRANCH  30  31
ATOM     31  O   UNL     1       6.730  -4.580  22.818  0.00  0.00    -0.389 OA
ATOM     32  H   UNL     1       6.455  -3.832  22.258  0.00  0.00    +0.210 HD
ENDBRANCH  30  31
BRANCH  30  33
ATOM     33  C   UNL     1       7.759  -3.733  24.826  0.00  0.00    +0.142 C 
BRANCH  33  34
ATOM     34  N   UNL     1       8.165  -2.272  24.549  0.00  0.00    -0.174 NA
BRANCH  34  35
ATOM     35  S   UNL     1       9.365  -2.178  23.298  0.00  0.00    +0.061 S 
ATOM     36  O   UNL     1       8.653  -2.409  22.055  0.00  0.00    -0.153 OA
ATOM     37  O   UNL     1      10.494  -3.006  23.659  0.00  0.00    -0.153 OA
BRANCH  35  38
ATOM     38  C   UNL     1       9.976  -0.494  23.250  0.00  0.00    +0.106 A 
ATOM     39  C   UNL     1      10.537   0.050  24.419  0.00  0.00    +0.029 A 
ATOM     40  C   UNL     1      10.837   1.413  24.482  0.00  0.00    +0.011 A 
ATOM     41  C   UNL     1      10.571   2.235  23.384  0.00  0.00    -0.004 A 
ATOM     42  C   UNL     1      10.035   1.686  22.211  0.00  0.00    +0.011 A 
ATOM     43  C   UNL     1       9.728   0.314  22.146  0.00  0.00    +0.029 A 
BRANCH  41  44
ATOM     44  C   UNL     1      10.813   3.687  23.526  0.00  0.00    +0.160 C 
ATOM     45  N   UNL     1      11.983   4.219  23.362  0.00  0.00    -0.095 NA
BRANCH  45  46
ATOM     46  O   UNL     1      11.875   5.605  23.531  0.00  0.00    -0.409 OA
ATOM     47  H   UNL     1      11.861   5.929  22.611  0.00  0.00    +0.328 HD
ENDBRANCH  45  46
ENDBRANCH  41  44
ENDBRANCH  35  38
ENDBRANCH  34  35
BRANCH  34  48
ATOM     48  C   UNL     1       6.955  -1.418  24.277  0.00  0.00    +0.112 C 
BRANCH  48  49
ATOM     49  C   UNL     1       6.740  -0.260  25.276  0.00  0.00    -0.001 C 
ATOM     50  C   UNL     1       6.933   1.081  24.563  0.00  0.00    +0.008 C 
ATOM     51  C   UNL     1       7.678  -0.341  26.484  0.00  0.00    +0.008 C 
ENDBRANCH  48  49
ENDBRANCH  34  48
ENDBRANCH  33  34
ENDBRANCH  30  33
ENDBRANCH   1  30
TORSDOF 18
ENDMDL
