MODEL 1
REMARK VINA RESULT:      -7.3      0.000      0.000
REMARK  Name = 
REMARK  11 active torsions:
REMARK  status: ('A' for Active; 'I' for Inactive)
REMARK    1  A    between atoms: N_1  and  C_2
REMARK    2  A    between atoms: C_2  and  C_4
REMARK    3  A    between atoms: C_2  and  C_29
REMARK    4  A    between atoms: C_4  and  C_5
REMARK    5  A    between atoms: C_5  and  S_6
REMARK    6  A    between atoms: S_6  and  C_7
REMARK    7  A    between atoms: C_7  and  C_8
REMARK    8  A    between atoms: C_11  and  N_19
REMARK    9  A    between atoms: C_13  and  O_15
REMARK   10  A    between atoms: C_16  and  O_18
REMARK   11  A    between atoms: C_29  and  O_30
REMARK                            x       y       z     vdW  Elec       q    Type
REMARK                         _______ _______ _______ _____ _____    ______ ____
ROOT
ATOM      1  C   UNK     1       8.577   2.629  23.250  0.00  0.00    +0.162 C 
ATOM      2  C   UNK     1       9.985   2.119  22.938  0.00  0.00    +0.177 C 
ATOM      3  C   UNK     1       9.995   0.651  23.367  0.00  0.00    +0.195 C 
ATOM      4  C   UNK     1       8.598   0.409  23.946  0.00  0.00    +0.253 C 
ATOM      5  O   UNK     1       7.759   1.459  23.428  0.00  0.00    -0.347 OA
ENDROOT
BRANCH   4   6
ATOM      6  N   UNK     1       7.969  -0.861  23.631  0.00  0.00    -0.286 N 
ATOM      7  C   UNK     1       8.399  -2.117  23.968  0.00  0.00    +0.167 A 
ATOM      8  N   UNK     1       9.548  -2.472  24.570  0.00  0.00    -0.216 NA
ATOM      9  C   UNK     1       9.622  -3.816  24.703  0.00  0.00    +0.225 A 
ATOM     10  N   UNK     1       8.710  -4.750  24.343  0.00  0.00    -0.219 NA
ATOM     11  C   UNK     1       7.559  -4.338  23.777  0.00  0.00    +0.147 A 
ATOM     12  N   UNK     1       6.603  -5.285  23.437  0.00  0.00    -0.341 N 
ATOM     13  H   UNK     1       5.930  -4.957  22.752  0.00  0.00    +0.144 HD
ATOM     14  H   UNK     1       6.990  -6.210  23.318  0.00  0.00    +0.144 HD
ATOM     15  C   UNK     1       7.382  -2.963  23.552  0.00  0.00    +0.147 A 
ATOM     16  N   UNK     1       6.354  -2.253  22.966  0.00  0.00    -0.231 NA
ATOM     17  C   UNK     1       6.731  -0.997  23.046  0.00  0.00    +0.203 A 
ENDBRANCH   4   6
BRANCH   2  18
ATOM     18  O   UNK     1      10.223   2.212  21.522  0.00  0.00    -0.386 OA
ATOM     19  H   UNK     1       9.764   1.475  21.080  0.00  0.00    +0.210 HD
ENDBRANCH   2  18
BRANCH   3  20
ATOM     20  O   UNK     1      11.004   0.431  24.357  0.00  0.00    -0.385 OA
ATOM     21  H   UNK     1      11.199   1.304  24.752  0.00  0.00    +0.210 HD
ENDBRANCH   3  20
BRANCH   1  22
ATOM     22  C   UNK     1       8.476   3.501  24.510  0.00  0.00    +0.103 C 
BRANCH  22  23
ATOM     23  S   UNK     1       8.208   5.278  24.188  0.00  0.00    -0.158 S 
BRANCH  23  24
ATOM     24  C   UNK     1       9.801   5.945  24.779  0.00  0.00    +0.071 C 
BRANCH  24  25
ATOM     25  C   UNK     1      10.800   5.956  23.624  0.00  0.00    +0.040 C 
BRANCH  25  26
ATOM     26  C   UNK     1      12.231   5.616  24.056  0.00  0.00    +0.161 C 
BRANCH  26  27
ATOM     27  N   UNK     1      12.779   6.749  24.875  0.00  0.00    -0.318 NA
ATOM     28  H   UNK     1      12.450   6.639  25.842  0.00  0.00    +0.119 HD
ATOM     29  H   UNK     1      13.792   6.609  24.953  0.00  0.00    +0.119 HD
ENDBRANCH  26  27
BRANCH  26  30
ATOM     30  C   UNK     1      13.176   5.390  22.862  0.00  0.00    +0.322 C 
ATOM     31  O   UNK     1      12.879   5.529  21.686  0.00  0.00    -0.249 OA
BRANCH  30  32
ATOM     32  O   UNK     1      14.406   4.985  23.273  0.00  0.00    -0.480 OA
ATOM     33  H   UNK     1      15.036   5.664  22.924  0.00  0.00    +0.295 HD
ENDBRANCH  30  32
ENDBRANCH  26  30
ENDBRANCH  25  26
ENDBRANCH  24  25
ENDBRANCH  23  24
ENDBRANCH  22  23
ENDBRANCH   1  22
TORSDOF 11
ENDMDL
MODEL 2
REMARK VINA RESULT:      -7.2      5.013      9.045
REMARK  Name = 
REMARK  11 active torsions:
REMARK  status: ('A' for Active; 'I' for Inactive)
REMARK    1  A    between atoms: N_1  and  C_2
REMARK    2  A    between atoms: C_2  and  C_4
REMARK    3  A    between atoms: C_2  and  C_29
REMARK    4  A    between atoms: C_4  and  C_5
REMARK    5  A    between atoms: C_5  and  S_6
REMARK    6  A    between atoms: S_6  and  C_7
REMARK    7  A    between atoms: C_7  and  C_8
REMARK    8  A    between atoms: C_11  and  N_19
REMARK    9  A    between atoms: C_13  and  O_15
REMARK   10  A    between atoms: C_16  and  O_18
REMARK   11  A    between atoms: C_29  and  O_30
REMARK                            x       y       z     vdW  Elec       q    Type
REMARK                         _______ _______ _______ _____ _____    ______ ____
ROOT
ATOM      1  C   UNK     1       8.227  -3.986  26.427  0.00  0.00    +0.162 C 
ATOM      2  C   UNK     1       8.652  -5.078  25.444  0.00  0.00    +0.177 C 
ATOM      3  C   UNK     1       8.613  -4.425  24.061  0.00  0.00    +0.195 C 
ATOM      4  C   UNK     1       8.121  -2.998  24.323  0.00  0.00    +0.253 C 
ATOM      5  O   UNK     1       8.357  -2.739  25.720  0.00  0.00    -0.347 OA
ENDROOT
BRANCH   4   6
ATOM      6  N   UNK     1       8.753  -1.937  23.560  0.00  0.00    -0.286 N 
ATOM      7  C   UNK     1       8.211  -0.736  23.185  0.00  0.00    +0.167 A 
ATOM      8  N   UNK     1       6.946  -0.306  23.341  0.00  0.00    -0.216 NA
ATOM      9  C   UNK     1       6.792   0.928  22.809  0.00  0.00    +0.225 A 
ATOM     10  N   UNK     1       7.722   1.711  22.214  0.00  0.00    -0.219 NA
ATOM     11  C   UNK     1       8.984   1.248  22.117  0.00  0.00    +0.147 A 
ATOM     12  N   UNK     1       9.953   2.058  21.540  0.00  0.00    -0.341 N 
ATOM     13  H   UNK     1      10.770   1.550  21.218  0.00  0.00    +0.144 HD
ATOM     14  H   UNK     1       9.564   2.766  20.934  0.00  0.00    +0.144 HD
ATOM     15  C   UNK     1       9.260  -0.041  22.600  0.00  0.00    +0.147 A 
ATOM     16  N   UNK     1      10.416  -0.793  22.606  0.00  0.00    -0.231 NA
ATOM     17  C   UNK     1      10.081  -1.914  23.202  0.00  0.00    +0.203 A 
ENDBRANCH   4   6
BRANCH   2  18
ATOM     18  O   UNK     1       9.996  -5.493  25.745  0.00  0.00    -0.386 OA
ATOM     19  H   UNK     1      10.604  -5.068  25.113  0.00  0.00    +0.210 HD
ENDBRANCH   2  18
BRANCH   3  20
ATOM     20  O   UNK     1       7.708  -5.129  23.207  0.00  0.00    -0.385 OA
ATOM     21  H   UNK     1       7.354  -4.471  22.576  0.00  0.00    +0.210 HD
ENDBRANCH   3  20
BRANCH   1  22
ATOM     22  C   UNK     1       6.786  -4.114  26.943  0.00  0.00    +0.103 C 
BRANCH  22  23
ATOM     23  S   UNK     1       6.406  -5.705  27.754  0.00  0.00    -0.158 S 
BRANCH  23  24
ATOM     24  C   UNK     1       5.202  -6.383  26.560  0.00  0.00    +0.071 C 
BRANCH  24  25
ATOM     25  C   UNK     1       4.965  -5.359  25.451  0.00  0.00    +0.040 C 
BRANCH  25  26
ATOM     26  C   UNK     1       4.188  -5.927  24.258  0.00  0.00    +0.161 C 
BRANCH  26  27
ATOM     27  N   UNK     1       4.350  -7.419  24.230  0.00  0.00    -0.318 NA
ATOM     28  H   UNK     1       3.471  -7.847  24.547  0.00  0.00    +0.119 HD
ATOM     29  H   UNK     1       4.411  -7.702  23.247  0.00  0.00    +0.119 HD
ENDBRANCH  26  27
BRANCH  26  30
ATOM     30  C   UNK     1       4.676  -5.368  22.910  0.00  0.00    +0.322 C 
ATOM     31  O   UNK     1       4.662  -4.192  22.581  0.00  0.00    -0.249 OA
BRANCH  30  32
ATOM     32  O   UNK     1       5.119  -6.359  22.093  0.00  0.00    -0.480 OA
ATOM     33  H   UNK     1       4.312  -6.881  21.853  0.00  0.00    +0.295 HD
ENDBRANCH  30  32
ENDBRANCH  26  30
ENDBRANCH  25  26
ENDBRANCH  24  25
ENDBRANCH  23  24
ENDBRANCH  22  23
ENDBRANCH   1  22
TORSDOF 11
ENDMDL
MODEL 3
REMARK VINA RESULT:      -7.2      2.302      3.060
REMARK  Name = 
REMARK  11 active torsions:
REMARK  status: ('A' for Active; 'I' for Inactive)
REMARK    1  A    between atoms: N_1  and  C_2
REMARK    2  A    between atoms: C_2  and  C_4
REMARK    3  A    between atoms: C_2  and  C_29
REMARK    4  A    between atoms: C_4  and  C_5
REMARK    5  A    between atoms: C_5  and  S_6
REMARK    6  A    between atoms: S_6  and  C_7
REMARK    7  A    between atoms: C_7  and  C_8
REMARK    8  A    between atoms: C_11  and  N_19
REMARK    9  A    between atoms: C_13  and  O_15
REMARK   10  A    between atoms: C_16  and  O_18
REMARK   11  A    between atoms: C_29  and  O_30
REMARK                            x       y       z     vdW  Elec       q    Type
REMARK                         _______ _______ _______ _____ _____    ______ ____
ROOT
ATOM      1  C   UNK     1       8.475  -0.305  22.682  0.00  0.00    +0.162 C 
ATOM      2  C   UNK     1       9.641  -1.292  22.755  0.00  0.00    +0.177 C 
ATOM      3  C   UNK     1       9.046  -2.593  23.295  0.00  0.00    +0.195 C 
ATOM      4  C   UNK     1       7.570  -2.267  23.546  0.00  0.00    +0.253 C 
ATOM      5  O   UNK     1       7.276  -1.097  22.758  0.00  0.00    -0.347 OA
ENDROOT
BRANCH   4   6
ATOM      6  N   UNK     1       6.604  -3.293  23.198  0.00  0.00    -0.286 N 
ATOM      7  C   UNK     1       6.161  -4.327  23.979  0.00  0.00    +0.167 A 
ATOM      8  N   UNK     1       6.591  -4.696  25.198  0.00  0.00    -0.216 NA
ATOM      9  C   UNK     1       5.925  -5.792  25.628  0.00  0.00    +0.225 A 
ATOM     10  N   UNK     1       4.931  -6.471  25.010  0.00  0.00    -0.219 NA
ATOM     11  C   UNK     1       4.511  -6.038  23.804  0.00  0.00    +0.147 A 
ATOM     12  N   UNK     1       3.469  -6.707  23.177  0.00  0.00    -0.341 N 
ATOM     13  H   UNK     1       3.420  -6.539  22.178  0.00  0.00    +0.144 HD
ATOM     14  H   UNK     1       3.356  -7.654  23.506  0.00  0.00    +0.144 HD
ATOM     15  C   UNK     1       5.156  -4.928  23.235  0.00  0.00    +0.147 A 
ATOM     16  N   UNK     1       4.986  -4.288  22.024  0.00  0.00    -0.231 NA
ATOM     17  C   UNK     1       5.856  -3.305  22.043  0.00  0.00    +0.203 A 
ENDBRANCH   4   6
BRANCH   2  18
ATOM     18  O   UNK     1      10.165  -1.511  21.434  0.00  0.00    -0.386 OA
ATOM     19  H   UNK     1      11.137  -1.549  21.485  0.00  0.00    +0.210 HD
ENDBRANCH   2  18
BRANCH   3  20
ATOM     20  O   UNK     1       9.699  -2.970  24.510  0.00  0.00    -0.385 OA
ATOM     21  H   UNK     1       8.997  -3.276  25.119  0.00  0.00    +0.210 HD
ENDBRANCH   3  20
BRANCH   1  22
ATOM     22  C   UNK     1       8.449   0.742  23.804  0.00  0.00    +0.103 C 
BRANCH  22  23
ATOM     23  S   UNK     1      10.095   1.285  24.378  0.00  0.00    -0.158 S 
BRANCH  23  24
ATOM     24  C   UNK     1      10.038   3.038  23.874  0.00  0.00    +0.071 C 
BRANCH  24  25
ATOM     25  C   UNK     1      11.344   3.401  23.171  0.00  0.00    +0.040 C 
BRANCH  25  26
ATOM     26  C   UNK     1      11.824   4.824  23.477  0.00  0.00    +0.161 C 
BRANCH  26  27
ATOM     27  N   UNK     1      10.729   5.795  23.144  0.00  0.00    -0.318 NA
ATOM     28  H   UNK     1       9.847   5.434  23.528  0.00  0.00    +0.119 HD
ATOM     29  H   UNK     1      10.895   6.645  23.692  0.00  0.00    +0.119 HD
ENDBRANCH  26  27
BRANCH  26  30
ATOM     30  C   UNK     1      13.074   5.218  22.670  0.00  0.00    +0.322 C 
ATOM     31  O   UNK     1      13.074   5.651  21.528  0.00  0.00    -0.249 OA
BRANCH  30  32
ATOM     32  O   UNK     1      14.212   5.004  23.381  0.00  0.00    -0.480 OA
ATOM     33  H   UNK     1      13.962   4.356  24.087  0.00  0.00    +0.295 HD
ENDBRANCH  30  32
ENDBRANCH  26  30
ENDBRANCH  25  26
ENDBRANCH  24  25
ENDBRANCH  23  24
ENDBRANCH  22  23
ENDBRANCH   1  22
TORSDOF 11
ENDMDL
MODEL 4
REMARK VINA RESULT:      -7.2      3.811      6.031
REMARK  Name = 
REMARK  11 active torsions:
REMARK  status: ('A' for Active; 'I' for Inactive)
REMARK    1  A    between atoms: N_1  and  C_2
REMARK    2  A    between atoms: C_2  and  C_4
REMARK    3  A    between atoms: C_2  and  C_29
REMARK    4  A    between atoms: C_4  and  C_5
REMARK    5  A    between atoms: C_5  and  S_6
REMARK    6  A    between atoms: S_6  and  C_7
REMARK    7  A    between atoms: C_7  and  C_8
REMARK    8  A    between atoms: C_11  and  N_19
REMARK    9  A    between atoms: C_13  and  O_15
REMARK   10  A    between atoms: C_16  and  O_18
REMARK   11  A    between atoms: C_29  and  O_30
REMARK                            x       y       z     vdW  Elec       q    Type
REMARK                         _______ _______ _______ _____ _____    ______ ____
ROOT
ATOM      1  C   UNK     1       8.922  -3.241  24.955  0.00  0.00    +0.162 C 
ATOM      2  C   UNK     1       9.335  -4.549  25.634  0.00  0.00    +0.177 C 
ATOM      3  C   UNK     1       8.057  -5.382  25.734  0.00  0.00    +0.195 C 
ATOM      4  C   UNK     1       6.965  -4.485  25.144  0.00  0.00    +0.253 C 
ATOM      5  O   UNK     1       7.642  -3.493  24.348  0.00  0.00    -0.347 OA
ENDROOT
BRANCH   4   6
ATOM      6  N   UNK     1       5.970  -5.128  24.304  0.00  0.00    -0.286 N 
ATOM      7  C   UNK     1       5.006  -6.024  24.681  0.00  0.00    +0.167 A 
ATOM      8  N   UNK     1       4.822  -6.595  25.885  0.00  0.00    -0.216 NA
ATOM      9  C   UNK     1       3.777  -7.453  25.851  0.00  0.00    +0.225 A 
ATOM     10  N   UNK     1       2.955  -7.740  24.816  0.00  0.00    -0.219 NA
ATOM     11  C   UNK     1       3.159  -7.112  23.641  0.00  0.00    +0.147 A 
ATOM     12  N   UNK     1       2.300  -7.374  22.582  0.00  0.00    -0.341 N 
ATOM     13  H   UNK     1       2.684  -7.128  21.676  0.00  0.00    +0.144 HD
ATOM     14  H   UNK     1       1.822  -8.258  22.673  0.00  0.00    +0.144 HD
ATOM     15  C   UNK     1       4.242  -6.223  23.541  0.00  0.00    +0.147 A 
ATOM     16  N   UNK     1       4.724  -5.478  22.484  0.00  0.00    -0.231 NA
ATOM     17  C   UNK     1       5.748  -4.822  22.981  0.00  0.00    +0.203 A 
ENDBRANCH   4   6
BRANCH   2  18
ATOM     18  O   UNK     1      10.295  -5.231  24.809  0.00  0.00    -0.386 OA
ATOM     19  H   UNK     1      10.722  -5.928  25.338  0.00  0.00    +0.210 HD
ENDBRANCH   2  18
BRANCH   3  20
ATOM     20  O   UNK     1       7.777  -5.697  27.100  0.00  0.00    -0.385 OA
ATOM     21  H   UNK     1       7.145  -6.444  27.089  0.00  0.00    +0.210 HD
ENDBRANCH   3  20
BRANCH   1  22
ATOM     22  C   UNK     1       8.792  -2.040  25.903  0.00  0.00    +0.103 C 
BRANCH  22  23
ATOM     23  S   UNK     1       8.507  -0.440  25.072  0.00  0.00    -0.158 S 
BRANCH  23  24
ATOM     24  C   UNK     1      10.226   0.163  24.958  0.00  0.00    +0.071 C 
BRANCH  24  25
ATOM     25  C   UNK     1      10.628   0.258  23.488  0.00  0.00    +0.040 C 
BRANCH  25  26
ATOM     26  C   UNK     1       9.447   0.097  22.524  0.00  0.00    +0.161 C 
BRANCH  26  27
ATOM     27  N   UNK     1       9.786  -0.947  21.501  0.00  0.00    -0.318 NA
ATOM     28  H   UNK     1       9.019  -1.630  21.467  0.00  0.00    +0.119 HD
ATOM     29  H   UNK     1       9.745  -0.499  20.579  0.00  0.00    +0.119 HD
ENDBRANCH  26  27
BRANCH  26  30
ATOM     30  C   UNK     1       9.103   1.400  21.781  0.00  0.00    +0.322 C 
ATOM     31  O   UNK     1       7.990   1.727  21.398  0.00  0.00    -0.249 OA
BRANCH  30  32
ATOM     32  O   UNK     1      10.210   2.160  21.573  0.00  0.00    -0.480 OA
ATOM     33  H   UNK     1       9.951   3.079  21.836  0.00  0.00    +0.295 HD
ENDBRANCH  30  32
ENDBRANCH  26  30
ENDBRANCH  25  26
ENDBRANCH  24  25
ENDBRANCH  23  24
ENDBRANCH  22  23
ENDBRANCH   1  22
TORSDOF 11
ENDMDL
MODEL 5
REMARK VINA RESULT:      -6.9      3.913      6.181
REMARK  Name = 
REMARK  11 active torsions:
REMARK  status: ('A' for Active; 'I' for Inactive)
REMARK    1  A    between atoms: N_1  and  C_2
REMARK    2  A    between atoms: C_2  and  C_4
REMARK    3  A    between atoms: C_2  and  C_29
REMARK    4  A    between atoms: C_4  and  C_5
REMARK    5  A    between atoms: C_5  and  S_6
REMARK    6  A    between atoms: S_6  and  C_7
REMARK    7  A    between atoms: C_7  and  C_8
REMARK    8  A    between atoms: C_11  and  N_19
REMARK    9  A    between atoms: C_13  and  O_15
REMARK   10  A    between atoms: C_16  and  O_18
REMARK   11  A    between atoms: C_29  and  O_30
REMARK                            x       y       z     vdW  Elec       q    Type
REMARK                         _______ _______ _______ _____ _____    ______ ____
ROOT
ATOM      1  C   UNK     1       9.095  -3.293  24.526  0.00  0.00    +0.162 C 
ATOM      2  C   UNK     1       9.391  -4.413  25.525  0.00  0.00    +0.177 C 
ATOM      3  C   UNK     1       8.049  -5.103  25.777  0.00  0.00    +0.195 C 
ATOM      4  C   UNK     1       7.043  -4.310  24.938  0.00  0.00    +0.253 C 
ATOM      5  O   UNK     1       7.813  -3.600  23.949  0.00  0.00    -0.347 OA
ENDROOT
BRANCH   4   6
ATOM      6  N   UNK     1       6.021  -5.073  24.245  0.00  0.00    -0.286 N 
ATOM      7  C   UNK     1       5.076  -5.900  24.792  0.00  0.00    +0.167 A 
ATOM      8  N   UNK     1       4.942  -6.280  26.075  0.00  0.00    -0.216 NA
ATOM      9  C   UNK     1       3.901  -7.133  26.213  0.00  0.00    +0.225 A 
ATOM     10  N   UNK     1       3.041  -7.574  25.266  0.00  0.00    -0.219 NA
ATOM     11  C   UNK     1       3.197  -7.133  24.002  0.00  0.00    +0.147 A 
ATOM     12  N   UNK     1       2.299  -7.553  23.030  0.00  0.00    -0.341 N 
ATOM     13  H   UNK     1       2.647  -7.448  22.082  0.00  0.00    +0.144 HD
ATOM     14  H   UNK     1       1.830  -8.413  23.273  0.00  0.00    +0.144 HD
ATOM     15  C   UNK     1       4.270  -6.271  23.726  0.00  0.00    +0.147 A 
ATOM     16  N   UNK     1       4.708  -5.696  22.550  0.00  0.00    -0.231 NA
ATOM     17  C   UNK     1       5.747  -4.972  22.901  0.00  0.00    +0.203 A 
ENDBRANCH   4   6
BRANCH   2  18
ATOM     18  O   UNK     1      10.313  -5.346  24.936  0.00  0.00    -0.386 OA
ATOM     19  H   UNK     1      11.137  -4.875  24.717  0.00  0.00    +0.210 HD
ENDBRANCH   2  18
BRANCH   3  20
ATOM     20  O   UNK     1       7.716  -5.044  27.167  0.00  0.00    -0.385 OA
ATOM     21  H   UNK     1       8.005  -4.165  27.484  0.00  0.00    +0.210 HD
ENDBRANCH   3  20
BRANCH   1  22
ATOM     22  C   UNK     1       9.038  -1.886  25.138  0.00  0.00    +0.103 C 
BRANCH  22  23
ATOM     23  S   UNK     1      10.067  -0.641  24.286  0.00  0.00    -0.158 S 
BRANCH  23  24
ATOM     24  C   UNK     1      10.072  -1.342  22.600  0.00  0.00    +0.071 C 
BRANCH  24  25
ATOM     25  C   UNK     1       9.028  -0.618  21.752  0.00  0.00    +0.040 C 
BRANCH  25  26
ATOM     26  C   UNK     1       8.258   0.458  22.527  0.00  0.00    +0.161 C 
BRANCH  26  27
ATOM     27  N   UNK     1       6.826   0.032  22.669  0.00  0.00    -0.318 NA
ATOM     28  H   UNK     1       6.231   0.867  22.610  0.00  0.00    +0.119 HD
ATOM     29  H   UNK     1       6.578  -0.496  21.826  0.00  0.00    +0.119 HD
ENDBRANCH  26  27
BRANCH  26  30
ATOM     30  C   UNK     1       8.281   1.828  21.825  0.00  0.00    +0.322 C 
ATOM     31  O   UNK     1       7.314   2.552  21.649  0.00  0.00    -0.249 OA
BRANCH  30  32
ATOM     32  O   UNK     1       9.530   2.142  21.390  0.00  0.00    -0.480 OA
ATOM     33  H   UNK     1       9.547   1.883  20.435  0.00  0.00    +0.295 HD
ENDBRANCH  30  32
ENDBRANCH  26  30
ENDBRANCH  25  26
ENDBRANCH  24  25
ENDBRANCH  23  24
ENDBRANCH  22  23
ENDBRANCH   1  22
TORSDOF 11
ENDMDL
MODEL 6
REMARK VINA RESULT:      -6.8      4.988      9.356
REMARK  Name = 
REMARK  11 active torsions:
REMARK  status: ('A' for Active; 'I' for Inactive)
REMARK    1  A    between atoms: N_1  and  C_2
REMARK    2  A    between atoms: C_2  and  C_4
REMARK    3  A    between atoms: C_2  and  C_29
REMARK    4  A    between atoms: C_4  and  C_5
REMARK    5  A    between atoms: C_5  and  S_6
REMARK    6  A    between atoms: S_6  and  C_7
REMARK    7  A    between atoms: C_7  and  C_8
REMARK    8  A    between atoms: C_11  and  N_19
REMARK    9  A    between atoms: C_13  and  O_15
REMARK   10  A    between atoms: C_16  and  O_18
REMARK   11  A    between atoms: C_29  and  O_30
REMARK                            x       y       z     vdW  Elec       q    Type
REMARK                         _______ _______ _______ _____ _____    ______ ____
ROOT
ATOM      1  C   UNK     1       8.398  -4.232  26.335  0.00  0.00    +0.162 C 
ATOM      2  C   UNK     1       8.552  -5.263  25.215  0.00  0.00    +0.177 C 
ATOM      3  C   UNK     1       8.391  -4.481  23.911  0.00  0.00    +0.195 C 
ATOM      4  C   UNK     1       8.107  -3.043  24.357  0.00  0.00    +0.253 C 
ATOM      5  O   UNK     1       8.567  -2.943  25.718  0.00  0.00    -0.347 OA
ENDROOT
BRANCH   4   6
ATOM      6  N   UNK     1       8.740  -1.983  23.593  0.00  0.00    -0.286 N 
ATOM      7  C   UNK     1       8.197  -0.784  23.213  0.00  0.00    +0.167 A 
ATOM      8  N   UNK     1       6.931  -0.356  23.361  0.00  0.00    -0.216 NA
ATOM      9  C   UNK     1       6.778   0.876  22.825  0.00  0.00    +0.225 A 
ATOM     10  N   UNK     1       7.709   1.659  22.232  0.00  0.00    -0.219 NA
ATOM     11  C   UNK     1       8.972   1.198  22.142  0.00  0.00    +0.147 A 
ATOM     12  N   UNK     1       9.942   2.008  21.567  0.00  0.00    -0.341 N 
ATOM     13  H   UNK     1      10.762   1.501  21.251  0.00  0.00    +0.144 HD
ATOM     14  H   UNK     1       9.554   2.713  20.958  0.00  0.00    +0.144 HD
ATOM     15  C   UNK     1       9.248  -0.089  22.631  0.00  0.00    +0.147 A 
ATOM     16  N   UNK     1      10.406  -0.839  22.644  0.00  0.00    -0.231 NA
ATOM     17  C   UNK     1      10.070  -1.959  23.242  0.00  0.00    +0.203 A 
ENDBRANCH   4   6
BRANCH   2  18
ATOM     18  O   UNK     1       9.869  -5.838  25.275  0.00  0.00    -0.386 OA
ATOM     19  H   UNK     1      10.064  -6.263  24.420  0.00  0.00    +0.210 HD
ENDBRANCH   2  18
BRANCH   3  20
ATOM     20  O   UNK     1       7.299  -5.005  23.151  0.00  0.00    -0.385 OA
ATOM     21  H   UNK     1       7.056  -4.315  22.502  0.00  0.00    +0.210 HD
ENDBRANCH   3  20
BRANCH   1  22
ATOM     22  C   UNK     1       7.041  -4.264  27.053  0.00  0.00    +0.103 C 
BRANCH  22  23
ATOM     23  S   UNK     1       5.858  -5.489  26.395  0.00  0.00    -0.158 S 
BRANCH  23  24
ATOM     24  C   UNK     1       4.729  -4.377  25.488  0.00  0.00    +0.071 C 
BRANCH  24  25
ATOM     25  C   UNK     1       3.499  -5.166  25.044  0.00  0.00    +0.040 C 
BRANCH  25  26
ATOM     26  C   UNK     1       3.629  -5.748  23.631  0.00  0.00    +0.161 C 
BRANCH  26  27
ATOM     27  N   UNK     1       4.317  -4.747  22.749  0.00  0.00    -0.318 NA
ATOM     28  H   UNK     1       5.288  -5.052  22.608  0.00  0.00    +0.119 HD
ATOM     29  H   UNK     1       3.905  -4.828  21.813  0.00  0.00    +0.119 HD
ENDBRANCH  26  27
BRANCH  26  30
ATOM     30  C   UNK     1       2.267  -6.085  22.999  0.00  0.00    +0.322 C 
ATOM     31  O   UNK     1       1.296  -5.346  22.966  0.00  0.00    -0.249 OA
BRANCH  30  32
ATOM     32  O   UNK     1       2.257  -7.343  22.485  0.00  0.00    -0.480 OA
ATOM     33  H   UNK     1       2.638  -7.920  23.194  0.00  0.00    +0.295 HD
ENDBRANCH  30  32
ENDBRANCH  26  30
ENDBRANCH  25  26
ENDBRANCH  24  25
ENDBRANCH  23  24
ENDBRANCH  22  23
ENDBRANCH   1  22
TORSDOF 11
ENDMDL
MODEL 7
REMARK VINA RESULT:      -6.8      4.895      8.062
REMARK  Name = 
REMARK  11 active torsions:
REMARK  status: ('A' for Active; 'I' for Inactive)
REMARK    1  A    between atoms: N_1  and  C_2
REMARK    2  A    between atoms: C_2  and  C_4
REMARK    3  A    between atoms: C_2  and  C_29
REMARK    4  A    between atoms: C_4  and  C_5
REMARK    5  A    between atoms: C_5  and  S_6
REMARK    6  A    between atoms: S_6  and  C_7
REMARK    7  A    between atoms: C_7  and  C_8
REMARK    8  A    between atoms: C_11  and  N_19
REMARK    9  A    between atoms: C_13  and  O_15
REMARK   10  A    between atoms: C_16  and  O_18
REMARK   11  A    between atoms: C_29  and  O_30
REMARK                            x       y       z     vdW  Elec       q    Type
REMARK                         _______ _______ _______ _____ _____    ______ ____
ROOT
ATOM      1  C   UNK     1       6.545  -4.158  24.222  0.00  0.00    +0.162 C 
ATOM      2  C   UNK     1       6.543  -4.814  22.841  0.00  0.00    +0.177 C 
ATOM      3  C   UNK     1       6.745  -3.673  21.843  0.00  0.00    +0.195 C 
ATOM      4  C   UNK     1       6.808  -2.411  22.708  0.00  0.00    +0.253 C 
ATOM      5  O   UNK     1       7.121  -2.851  24.043  0.00  0.00    -0.347 OA
ENDROOT
BRANCH   4   6
ATOM      6  N   UNK     1       7.784  -1.404  22.330  0.00  0.00    -0.286 N 
ATOM      7  C   UNK     1       7.691  -0.047  22.485  0.00  0.00    +0.167 A 
ATOM      8  N   UNK     1       6.642   0.675  22.918  0.00  0.00    -0.216 NA
ATOM      9  C   UNK     1       6.931   1.996  22.899  0.00  0.00    +0.225 A 
ATOM     10  N   UNK     1       8.089   2.601  22.543  0.00  0.00    -0.219 NA
ATOM     11  C   UNK     1       9.122   1.829  22.151  0.00  0.00    +0.147 A 
ATOM     12  N   UNK     1      10.324   2.438  21.817  0.00  0.00    -0.341 N 
ATOM     13  H   UNK     1      10.930   1.857  21.248  0.00  0.00    +0.144 HD
ATOM     14  H   UNK     1      10.215   3.408  21.560  0.00  0.00    +0.144 HD
ATOM     15  C   UNK     1       8.930   0.439  22.093  0.00  0.00    +0.147 A 
ATOM     16  N   UNK     1       9.764  -0.588  21.700  0.00  0.00    -0.231 NA
ATOM     17  C   UNK     1       9.051  -1.678  21.871  0.00  0.00    +0.203 A 
ENDBRANCH   4   6
BRANCH   2  18
ATOM     18  O   UNK     1       7.642  -5.737  22.750  0.00  0.00    -0.386 OA
ATOM     19  H   UNK     1       7.288  -6.627  22.570  0.00  0.00    +0.210 HD
ENDBRANCH   2  18
BRANCH   3  20
ATOM     20  O   UNK     1       5.645  -3.612  20.930  0.00  0.00    -0.385 OA
ATOM     21  H   UNK     1       5.976  -3.161  20.128  0.00  0.00    +0.210 HD
ENDBRANCH   3  20
BRANCH   1  22
ATOM     22  C   UNK     1       5.157  -4.003  24.860  0.00  0.00    +0.103 C 
BRANCH  22  23
ATOM     23  S   UNK     1       4.962  -4.834  26.475  0.00  0.00    -0.158 S 
BRANCH  23  24
ATOM     24  C   UNK     1       6.463  -4.229  27.319  0.00  0.00    +0.071 C 
BRANCH  24  25
ATOM     25  C   UNK     1       7.600  -5.225  27.095  0.00  0.00    +0.040 C 
BRANCH  25  26
ATOM     26  C   UNK     1       8.934  -4.554  26.749  0.00  0.00    +0.161 C 
BRANCH  26  27
ATOM     27  N   UNK     1       8.713  -3.080  26.572  0.00  0.00    -0.318 NA
ATOM     28  H   UNK     1       7.701  -2.907  26.524  0.00  0.00    +0.119 HD
ATOM     29  H   UNK     1       8.990  -2.621  27.446  0.00  0.00    +0.119 HD
ENDBRANCH  26  27
BRANCH  26  30
ATOM     30  C   UNK     1       9.558  -5.103  25.453  0.00  0.00    +0.322 C 
ATOM     31  O   UNK     1      10.037  -4.429  24.555  0.00  0.00    -0.249 OA
BRANCH  30  32
ATOM     32  O   UNK     1       9.495  -6.459  25.408  0.00  0.00    -0.480 OA
ATOM     33  H   UNK     1      10.184  -6.775  26.045  0.00  0.00    +0.295 HD
ENDBRANCH  30  32
ENDBRANCH  26  30
ENDBRANCH  25  26
ENDBRANCH  24  25
ENDBRANCH  23  24
ENDBRANCH  22  23
ENDBRANCH   1  22
TORSDOF 11
ENDMDL
MODEL 8
REMARK VINA RESULT:      -6.8      4.038      6.034
REMARK  Name = 
REMARK  11 active torsions:
REMARK  status: ('A' for Active; 'I' for Inactive)
REMARK    1  A    between atoms: N_1  and  C_2
REMARK    2  A    between atoms: C_2  and  C_4
REMARK    3  A    between atoms: C_2  and  C_29
REMARK    4  A    between atoms: C_4  and  C_5
REMARK    5  A    between atoms: C_5  and  S_6
REMARK    6  A    between atoms: S_6  and  C_7
REMARK    7  A    between atoms: C_7  and  C_8
REMARK    8  A    between atoms: C_11  and  N_19
REMARK    9  A    between atoms: C_13  and  O_15
REMARK   10  A    between atoms: C_16  and  O_18
REMARK   11  A    between atoms: C_29  and  O_30
REMARK                            x       y       z     vdW  Elec       q    Type
REMARK                         _______ _______ _______ _____ _____    ______ ____
ROOT
ATOM      1  C   UNK     1       8.210  -2.665  25.223  0.00  0.00    +0.162 C 
ATOM      2  C   UNK     1       9.039  -3.753  24.537  0.00  0.00    +0.177 C 
ATOM      3  C   UNK     1       8.602  -5.070  25.180  0.00  0.00    +0.195 C 
ATOM      4  C   UNK     1       7.572  -4.660  26.237  0.00  0.00    +0.253 C 
ATOM      5  O   UNK     1       7.117  -3.343  25.869  0.00  0.00    -0.347 OA
ENDROOT
BRANCH   4   6
ATOM      6  N   UNK     1       6.404  -5.511  26.379  0.00  0.00    -0.286 N 
ATOM      7  C   UNK     1       5.525  -5.900  25.403  0.00  0.00    +0.167 A 
ATOM      8  N   UNK     1       5.475  -5.504  24.119  0.00  0.00    -0.216 NA
ATOM      9  C   UNK     1       4.439  -6.091  23.478  0.00  0.00    +0.225 A 
ATOM     10  N   UNK     1       3.546  -6.986  23.962  0.00  0.00    -0.219 NA
ATOM     11  C   UNK     1       3.664  -7.378  25.247  0.00  0.00    +0.147 A 
ATOM     12  N   UNK     1       2.774  -8.321  25.743  0.00  0.00    -0.341 N 
ATOM     13  H   UNK     1       2.715  -8.332  26.756  0.00  0.00    +0.144 HD
ATOM     14  H   UNK     1       1.914  -8.367  25.216  0.00  0.00    +0.144 HD
ATOM     15  C   UNK     1       4.681  -6.806  26.027  0.00  0.00    +0.147 A 
ATOM     16  N   UNK     1       5.022  -6.969  27.354  0.00  0.00    -0.231 NA
ATOM     17  C   UNK     1       6.067  -6.192  27.526  0.00  0.00    +0.203 A 
ENDBRANCH   4   6
BRANCH   2  18
ATOM     18  O   UNK     1       8.730  -3.773  23.133  0.00  0.00    -0.386 OA
ATOM     19  H   UNK     1       9.186  -3.028  22.702  0.00  0.00    +0.210 HD
ENDBRANCH   2  18
BRANCH   3  20
ATOM     20  O   UNK     1       9.722  -5.722  25.784  0.00  0.00    -0.385 OA
ATOM     21  H   UNK     1      10.430  -5.052  25.851  0.00  0.00    +0.210 HD
ENDBRANCH   3  20
BRANCH   1  22
ATOM     22  C   UNK     1       8.973  -1.844  26.273  0.00  0.00    +0.103 C 
BRANCH  22  23
ATOM     23  S   UNK     1       8.897  -0.036  26.030  0.00  0.00    -0.158 S 
BRANCH  23  24
ATOM     24  C   UNK     1      10.306   0.184  24.890  0.00  0.00    +0.071 C 
BRANCH  24  25
ATOM     25  C   UNK     1       9.941   1.230  23.838  0.00  0.00    +0.040 C 
BRANCH  25  26
ATOM     26  C   UNK     1      10.137   0.738  22.400  0.00  0.00    +0.161 C 
BRANCH  26  27
ATOM     27  N   UNK     1       9.605   1.771  21.450  0.00  0.00    -0.318 NA
ATOM     28  H   UNK     1      10.123   1.697  20.566  0.00  0.00    +0.119 HD
ATOM     29  H   UNK     1       8.654   1.489  21.191  0.00  0.00    +0.119 HD
ENDBRANCH  26  27
BRANCH  26  30
ATOM     30  C   UNK     1       9.410  -0.589  22.120  0.00  0.00    +0.322 C 
ATOM     31  O   UNK     1       8.214  -0.787  22.264  0.00  0.00    -0.249 OA
BRANCH  30  32
ATOM     32  O   UNK     1      10.274  -1.550  21.702  0.00  0.00    -0.480 OA
ATOM     33  H   UNK     1      10.027  -1.735  20.762  0.00  0.00    +0.295 HD
ENDBRANCH  30  32
ENDBRANCH  26  30
ENDBRANCH  25  26
ENDBRANCH  24  25
ENDBRANCH  23  24
ENDBRANCH  22  23
ENDBRANCH   1  22
TORSDOF 11
ENDMDL
MODEL 9
REMARK VINA RESULT:      -6.7      5.349      8.804
REMARK  Name = 
REMARK  11 active torsions:
REMARK  status: ('A' for Active; 'I' for Inactive)
REMARK    1  A    between atoms: N_1  and  C_2
REMARK    2  A    between atoms: C_2  and  C_4
REMARK    3  A    between atoms: C_2  and  C_29
REMARK    4  A    between atoms: C_4  and  C_5
REMARK    5  A    between atoms: C_5  and  S_6
REMARK    6  A    between atoms: S_6  and  C_7
REMARK    7  A    between atoms: C_7  and  C_8
REMARK    8  A    between atoms: C_11  and  N_19
REMARK    9  A    between atoms: C_13  and  O_15
REMARK   10  A    between atoms: C_16  and  O_18
REMARK   11  A    between atoms: C_29  and  O_30
REMARK                            x       y       z     vdW  Elec       q    Type
REMARK                         _______ _______ _______ _____ _____    ______ ____
ROOT
ATOM      1  C   UNK     1       6.396  -4.475  26.660  0.00  0.00    +0.162 C 
ATOM      2  C   UNK     1       7.555  -5.393  26.267  0.00  0.00    +0.177 C 
ATOM      3  C   UNK     1       8.412  -4.580  25.295  0.00  0.00    +0.195 C 
ATOM      4  C   UNK     1       7.670  -3.248  25.148  0.00  0.00    +0.253 C 
ATOM      5  O   UNK     1       6.797  -3.144  26.289  0.00  0.00    -0.347 OA
ENDROOT
BRANCH   4   6
ATOM      6  N   UNK     1       8.483  -2.046  25.098  0.00  0.00    -0.286 N 
ATOM      7  C   UNK     1       8.969  -1.408  23.988  0.00  0.00    +0.167 A 
ATOM      8  N   UNK     1       8.899  -1.799  22.703  0.00  0.00    -0.216 NA
ATOM      9  C   UNK     1       9.528  -0.912  21.899  0.00  0.00    +0.225 A 
ATOM     10  N   UNK     1      10.140   0.247  22.238  0.00  0.00    -0.219 NA
ATOM     11  C   UNK     1      10.149   0.612  23.536  0.00  0.00    +0.147 A 
ATOM     12  N   UNK     1      10.744   1.815  23.890  0.00  0.00    -0.341 N 
ATOM     13  H   UNK     1      10.991   1.874  24.872  0.00  0.00    +0.144 HD
ATOM     14  H   UNK     1      11.416   2.136  23.209  0.00  0.00    +0.144 HD
ATOM     15  C   UNK     1       9.559  -0.251  24.474  0.00  0.00    +0.147 A 
ATOM     16  N   UNK     1       9.449  -0.178  25.847  0.00  0.00    -0.231 NA
ATOM     17  C   UNK     1       8.785  -1.259  26.185  0.00  0.00    +0.203 A 
ENDBRANCH   4   6
BRANCH   2  18
ATOM     18  O   UNK     1       8.326  -5.716  27.438  0.00  0.00    -0.386 OA
ATOM     19  H   UNK     1       7.784  -5.536  28.227  0.00  0.00    +0.210 HD
ENDBRANCH   2  18
BRANCH   3  20
ATOM     20  O   UNK     1       8.509  -5.253  24.037  0.00  0.00    -0.385 OA
ATOM     21  H   UNK     1       7.884  -6.005  24.077  0.00  0.00    +0.210 HD
ENDBRANCH   3  20
BRANCH   1  22
ATOM     22  C   UNK     1       5.061  -4.799  25.974  0.00  0.00    +0.103 C 
BRANCH  22  23
ATOM     23  S   UNK     1       4.612  -6.569  25.977  0.00  0.00    -0.158 S 
BRANCH  23  24
ATOM     24  C   UNK     1       4.254  -6.803  24.203  0.00  0.00    +0.071 C 
BRANCH  24  25
ATOM     25  C   UNK     1       5.511  -6.488  23.392  0.00  0.00    +0.040 C 
BRANCH  25  26
ATOM     26  C   UNK     1       5.233  -5.629  22.153  0.00  0.00    +0.161 C 
BRANCH  26  27
ATOM     27  N   UNK     1       5.957  -6.215  20.976  0.00  0.00    -0.318 NA
ATOM     28  H   UNK     1       5.896  -5.552  20.194  0.00  0.00    +0.119 HD
ATOM     29  H   UNK     1       6.957  -6.222  21.203  0.00  0.00    +0.119 HD
ENDBRANCH  26  27
BRANCH  26  30
ATOM     30  C   UNK     1       5.699  -4.172  22.323  0.00  0.00    +0.322 C 
ATOM     31  O   UNK     1       5.035  -3.264  22.798  0.00  0.00    -0.249 OA
BRANCH  30  32
ATOM     32  O   UNK     1       6.961  -3.996  21.851  0.00  0.00    -0.480 OA
ATOM     33  H   UNK     1       7.548  -4.044  22.647  0.00  0.00    +0.295 HD
ENDBRANCH  30  32
ENDBRANCH  26  30
ENDBRANCH  25  26
ENDBRANCH  24  25
ENDBRANCH  23  24
ENDBRANCH  22  23
ENDBRANCH   1  22
TORSDOF 11
ENDMDL
