MODEL 1
REMARK VINA RESULT:      -7.3      0.000      0.000
REMARK  Name = 
REMARK  19 active torsions:
REMARK  status: ('A' for Active; 'I' for Inactive)
REMARK    1  A    between atoms: C_1  and  C_2
REMARK    2  A    between atoms: C_2  and  C_4
REMARK    3  A    between atoms: C_4  and  C_5
REMARK    4  A    between atoms: N_8  and  C_14
REMARK    5  A    between atoms: C_10  and  C_11
REMARK    6  A    between atoms: C_17  and  C_19
REMARK    7  A    between atoms: C_19  and  O_20
REMARK    8  A    between atoms: O_20  and  P_21
REMARK    9  A    between atoms: P_21  and  O_24
REMARK   10  A    between atoms: O_24  and  P_25
REMARK   11  A    between atoms: P_25  and  O_26
REMARK   12  A    between atoms: P_25  and  O_28
REMARK   13  A    between atoms: O_28  and  C_29
REMARK   14  A    between atoms: C_29  and  C_30
REMARK   15  A    between atoms: C_33  and  N_41
REMARK   16  A    between atoms: C_35  and  O_37
REMARK   17  A    between atoms: C_38  and  O_40
REMARK   18  A    between atoms: C_51  and  O_53
REMARK   19  A    between atoms: C_54  and  O_56
REMARK                            x       y       z     vdW  Elec       q    Type
REMARK                         _______ _______ _______ _____ _____    ______ ____
ROOT
ATOM      1  P   UNL     1       6.923   4.952  26.609  0.00  0.00    +0.222 P 
ATOM      2  O   UNL     1       6.658   5.697  25.070  0.00  0.00    -0.437 OA
ATOM      3  O   UNL     1       8.381   5.438  26.725  0.00  0.00    -0.517 OA
ENDROOT
BRANCH   1   4
ATOM      4  O   UNL     1       7.187   4.208  28.149  0.00  0.00    -0.229 OA
BRANCH   4   5
ATOM      5  P   UNL     1       6.499   2.930  28.831  0.00  0.00    +0.480 P 
ATOM      6  O   UNL     1       6.586   2.938  30.331  0.00  0.00    -0.227 OA
BRANCH   5   7
ATOM      7  O   UNL     1       7.444   1.720  28.346  0.00  0.00    -0.302 OA
ATOM      8  H   UNL     1       7.436   1.740  27.371  0.00  0.00    +0.222 HD
ENDBRANCH   5   7
BRANCH   5   9
ATOM      9  O   UNL     1       5.043   2.437  28.277  0.00  0.00    -0.284 OA
BRANCH   9  10
ATOM     10  C   UNL     1       4.792   1.013  28.097  0.00  0.00    +0.206 C 
BRANCH  10  11
ATOM     11  C   UNL     1       4.386   0.465  26.669  0.00  0.00    +0.178 C 
ATOM     12  C   UNL     1       5.642   0.108  25.822  0.00  0.00    +0.178 C 
ATOM     13  C   UNL     1       5.860  -1.394  26.036  0.00  0.00    +0.195 C 
ATOM     14  C   UNL     1       4.627  -1.829  26.838  0.00  0.00    +0.253 C 
ATOM     15  O   UNL     1       3.647  -0.782  26.716  0.00  0.00    -0.346 OA
BRANCH  14  16
ATOM     16  N   UNL     1       4.108  -3.112  26.393  0.00  0.00    -0.286 N 
ATOM     17  C   UNL     1       4.666  -4.312  26.749  0.00  0.00    +0.167 A 
ATOM     18  N   UNL     1       5.749  -4.513  27.524  0.00  0.00    -0.216 NA
ATOM     19  C   UNL     1       5.975  -5.837  27.687  0.00  0.00    +0.225 A 
ATOM     20  N   UNL     1       5.290  -6.873  27.157  0.00  0.00    -0.219 NA
ATOM     21  C   UNL     1       4.240  -6.613  26.356  0.00  0.00    +0.147 A 
ATOM     22  N   UNL     1       3.551  -7.687  25.802  0.00  0.00    -0.341 N 
ATOM     23  H   UNL     1       2.601  -7.461  25.528  0.00  0.00    +0.144 HD
ATOM     24  H   UNL     1       3.697  -8.538  26.327  0.00  0.00    +0.144 HD
ATOM     25  C   UNL     1       3.880  -5.275  26.138  0.00  0.00    +0.147 A 
ATOM     26  N   UNL     1       2.859  -4.673  25.413  0.00  0.00    -0.231 NA
ATOM     27  C   UNL     1       3.029  -3.378  25.600  0.00  0.00    +0.203 A 
ENDBRANCH  14  16
BRANCH  13  28
ATOM     28  O   UNL     1       7.063  -1.644  26.767  0.00  0.00    -0.385 OA
ATOM     29  H   UNL     1       6.857  -1.482  27.713  0.00  0.00    +0.210 HD
ENDBRANCH  13  28
BRANCH  12  30
ATOM     30  O   UNL     1       5.420   0.365  24.422  0.00  0.00    -0.386 OA
ATOM     31  H   UNL     1       6.274   0.432  23.959  0.00  0.00    +0.210 HD
ENDBRANCH  12  30
ENDBRANCH  10  11
ENDBRANCH   9  10
ENDBRANCH   5   9
ENDBRANCH   4   5
ENDBRANCH   1   4
BRANCH   1  32
ATOM     32  O   UNL     1       7.023   3.414  25.881  0.00  0.00    -0.324 OA
BRANCH  32  33
ATOM     33  C   UNL     1       8.299   3.134  25.265  0.00  0.00    +0.202 C 
BRANCH  33  37
ATOM     34  C   UNL     1       9.585   0.396  23.237  0.00  0.00    +0.439 C 
ATOM     35  C   UNL     1       9.065   1.305  22.124  0.00  0.00    +0.244 C 
ATOM     36  C   UNL     1       8.182   2.326  22.855  0.00  0.00    +0.183 C 
ATOM     37  C   UNL     1       8.252   1.933  24.334  0.00  0.00    +0.182 C 
ATOM     38  O   UNL     1       9.426   1.106  24.468  0.00  0.00    -0.309 OA
BRANCH  34  42
ATOM     39  C   UNL     1       7.966  -3.545  23.217  0.00  0.00    -0.017 A 
ATOM     40  C   UNL     1       8.852  -3.160  24.232  0.00  0.00    +0.104 A 
ATOM     41  C   UNL     1       9.263  -1.830  24.309  0.00  0.00    +0.325 A 
ATOM     42  N   UNL     1       8.878  -0.915  23.387  0.00  0.00    -0.173 N 
ATOM     43  C   UNL     1       7.971  -1.252  22.439  0.00  0.00    +0.312 A 
ATOM     44  C   UNL     1       7.489  -2.555  22.350  0.00  0.00    +0.074 A 
BRANCH  40  45
ATOM     45  C   UNL     1       9.375  -4.106  25.248  0.00  0.00    +0.248 C 
ATOM     46  O   UNL     1      10.281  -4.894  24.968  0.00  0.00    -0.270 OA
ATOM     47  N   UNL     1       8.841  -4.072  26.501  0.00  0.00    -0.325 N 
ATOM     48  H   UNL     1       9.290  -4.677  27.186  0.00  0.00    +0.145 HD
ATOM     49  H   UNL     1       8.285  -3.323  26.890  0.00  0.00    +0.145 HD
ENDBRANCH  40  45
BRANCH  39  50
ATOM     50  C   UNL     1       7.525  -4.978  23.010  0.00  0.00    +0.110 C 
BRANCH  50  52
ATOM     51  C   UNL     1       6.199  -5.678  20.926  0.00  0.00    +0.086 C 
ATOM     52  C   UNL     1       6.181  -5.114  22.324  0.00  0.00    +0.135 C 
ATOM     53  O   UNL     1       5.143  -4.704  22.847  0.00  0.00    -0.297 OA
ENDBRANCH  50  52
ENDBRANCH  39  50
ENDBRANCH  34  42
BRANCH  36  54
ATOM     54  O   UNL     1       6.833   2.202  22.403  0.00  0.00    -0.386 OA
ATOM     55  H   UNL     1       6.294   2.102  23.218  0.00  0.00    +0.210 HD
ENDBRANCH  36  54
BRANCH  35  56
ATOM     56  O   UNL     1      10.163   1.930  21.438  0.00  0.00    -0.380 OA
ATOM     57  H   UNL     1       9.966   2.013  20.485  0.00  0.00    +0.210 HD
ENDBRANCH  35  56
ENDBRANCH  33  37
ENDBRANCH  32  33
ENDBRANCH   1  32
TORSDOF 18
ENDMDL
MODEL 2
REMARK VINA RESULT:      -7.1      3.334      8.266
REMARK  Name = 
REMARK  19 active torsions:
REMARK  status: ('A' for Active; 'I' for Inactive)
REMARK    1  A    between atoms: C_1  and  C_2
REMARK    2  A    between atoms: C_2  and  C_4
REMARK    3  A    between atoms: C_4  and  C_5
REMARK    4  A    between atoms: N_8  and  C_14
REMARK    5  A    between atoms: C_10  and  C_11
REMARK    6  A    between atoms: C_17  and  C_19
REMARK    7  A    between atoms: C_19  and  O_20
REMARK    8  A    between atoms: O_20  and  P_21
REMARK    9  A    between atoms: P_21  and  O_24
REMARK   10  A    between atoms: O_24  and  P_25
REMARK   11  A    between atoms: P_25  and  O_26
REMARK   12  A    between atoms: P_25  and  O_28
REMARK   13  A    between atoms: O_28  and  C_29
REMARK   14  A    between atoms: C_29  and  C_30
REMARK   15  A    between atoms: C_33  and  N_41
REMARK   16  A    between atoms: C_35  and  O_37
REMARK   17  A    between atoms: C_38  and  O_40
REMARK   18  A    between atoms: C_51  and  O_53
REMARK   19  A    between atoms: C_54  and  O_56
REMARK                            x       y       z     vdW  Elec       q    Type
REMARK                         _______ _______ _______ _____ _____    ______ ____
ROOT
ATOM      1  P   UNL     1       4.340  -1.700  26.577  0.00  0.00    +0.222 P 
ATOM      2  O   UNL     1       4.379  -0.618  27.927  0.00  0.00    -0.437 OA
ATOM      3  O   UNL     1       5.557  -2.520  27.048  0.00  0.00    -0.517 OA
ENDROOT
BRANCH   1   4
ATOM      4  O   UNL     1       4.300  -2.783  25.228  0.00  0.00    -0.229 OA
BRANCH   4   5
ATOM      5  P   UNL     1       3.822  -4.311  25.120  0.00  0.00    +0.480 P 
ATOM      6  O   UNL     1       2.496  -4.471  24.433  0.00  0.00    -0.227 OA
BRANCH   5   7
ATOM      7  O   UNL     1       3.567  -4.710  26.659  0.00  0.00    -0.302 OA
ATOM      8  H   UNL     1       2.622  -4.942  26.728  0.00  0.00    +0.222 HD
ENDBRANCH   5   7
BRANCH   5   9
ATOM      9  O   UNL     1       4.915  -5.441  24.676  0.00  0.00    -0.284 OA
BRANCH   9  10
ATOM     10  C   UNL     1       6.326  -5.226  24.970  0.00  0.00    +0.206 C 
BRANCH  10  11
ATOM     11  C   UNL     1       7.368  -5.143  23.781  0.00  0.00    +0.178 C 
ATOM     12  C   UNL     1       6.658  -4.860  22.425  0.00  0.00    +0.178 C 
ATOM     13  C   UNL     1       6.736  -3.341  22.238  0.00  0.00    +0.195 C 
ATOM     14  C   UNL     1       7.630  -2.878  23.395  0.00  0.00    +0.253 C 
ATOM     15  O   UNL     1       8.304  -4.043  23.907  0.00  0.00    -0.346 OA
BRANCH  14  16
ATOM     16  N   UNL     1       8.567  -1.845  22.986  0.00  0.00    -0.286 N 
ATOM     17  C   UNL     1       8.189  -0.561  22.691  0.00  0.00    +0.167 A 
ATOM     18  N   UNL     1       6.943  -0.050  22.714  0.00  0.00    -0.216 NA
ATOM     19  C   UNL     1       6.967   1.267  22.404  0.00  0.00    +0.225 A 
ATOM     20  N   UNL     1       8.032   2.028  22.072  0.00  0.00    -0.219 NA
ATOM     21  C   UNL     1       9.248   1.454  22.026  0.00  0.00    +0.147 A 
ATOM     22  N   UNL     1      10.336   2.243  21.667  0.00  0.00    -0.341 N 
ATOM     23  H   UNL     1      11.226   1.879  21.991  0.00  0.00    +0.144 HD
ATOM     24  H   UNL     1      10.152   3.227  21.811  0.00  0.00    +0.144 HD
ATOM     25  C   UNL     1       9.362   0.097  22.363  0.00  0.00    +0.147 A 
ATOM     26  N   UNL     1      10.442  -0.771  22.449  0.00  0.00    -0.231 NA
ATOM     27  C   UNL     1       9.922  -1.922  22.832  0.00  0.00    +0.203 A 
ENDBRANCH  14  16
BRANCH  13  28
ATOM     28  O   UNL     1       5.440  -2.742  22.317  0.00  0.00    -0.385 OA
ATOM     29  H   UNL     1       5.339  -2.408  23.235  0.00  0.00    +0.210 HD
ENDBRANCH  13  28
BRANCH  12  30
ATOM     30  O   UNL     1       7.334  -5.512  21.334  0.00  0.00    -0.386 OA
ATOM     31  H   UNL     1       7.553  -4.862  20.644  0.00  0.00    +0.210 HD
ENDBRANCH  12  30
ENDBRANCH  10  11
ENDBRANCH   9  10
ENDBRANCH   5   9
ENDBRANCH   4   5
ENDBRANCH   1   4
BRANCH   1  32
ATOM     32  O   UNL     1       4.984  -0.497  25.555  0.00  0.00    -0.324 OA
BRANCH  32  33
ATOM     33  C   UNL     1       6.007   0.316  26.171  0.00  0.00    +0.202 C 
BRANCH  33  37
ATOM     34  C   UNL     1       5.589   3.890  26.727  0.00  0.00    +0.439 C 
ATOM     35  C   UNL     1       4.257   3.590  26.040  0.00  0.00    +0.244 C 
ATOM     36  C   UNL     1       4.453   2.193  25.436  0.00  0.00    +0.183 C 
ATOM     37  C   UNL     1       5.882   1.788  25.813  0.00  0.00    +0.182 C 
ATOM     38  O   UNL     1       6.256   2.640  26.915  0.00  0.00    -0.309 OA
BRANCH  34  42
ATOM     39  C   UNL     1       8.575   5.906  24.452  0.00  0.00    -0.017 A 
ATOM     40  C   UNL     1       7.335   5.613  23.871  0.00  0.00    +0.104 A 
ATOM     41  C   UNL     1       6.318   5.082  24.664  0.00  0.00    +0.325 A 
ATOM     42  N   UNL     1       6.522   4.782  25.970  0.00  0.00    -0.173 N 
ATOM     43  C   UNL     1       7.691   5.120  26.565  0.00  0.00    +0.312 A 
ATOM     44  C   UNL     1       8.721   5.699  25.829  0.00  0.00    +0.074 A 
BRANCH  40  45
ATOM     45  C   UNL     1       7.040   5.848  22.436  0.00  0.00    +0.248 C 
ATOM     46  O   UNL     1       6.737   6.972  22.030  0.00  0.00    -0.270 OA
ATOM     47  N   UNL     1       7.128   4.795  21.575  0.00  0.00    -0.325 N 
ATOM     48  H   UNL     1       7.002   5.021  20.591  0.00  0.00    +0.145 HD
ATOM     49  H   UNL     1       7.591   3.916  21.757  0.00  0.00    +0.145 HD
ENDBRANCH  40  45
BRANCH  39  50
ATOM     50  C   UNL     1       9.758   6.413  23.655  0.00  0.00    +0.110 C 
BRANCH  50  52
ATOM     51  C   UNL     1      12.165   6.387  24.549  0.00  0.00    +0.086 C 
ATOM     52  C   UNL     1      11.036   5.635  23.891  0.00  0.00    +0.135 C 
ATOM     53  O   UNL     1      11.174   4.478  23.488  0.00  0.00    -0.297 OA
ENDBRANCH  50  52
ENDBRANCH  39  50
ENDBRANCH  34  42
BRANCH  36  54
ATOM     54  O   UNL     1       4.350   2.268  24.014  0.00  0.00    -0.386 OA
ATOM     55  H   UNL     1       4.771   3.121  23.766  0.00  0.00    +0.210 HD
ENDBRANCH  36  54
BRANCH  35  56
ATOM     56  O   UNL     1       3.185   3.622  26.997  0.00  0.00    -0.380 OA
ATOM     57  H   UNL     1       3.528   3.836  27.887  0.00  0.00    +0.210 HD
ENDBRANCH  35  56
ENDBRANCH  33  37
ENDBRANCH  32  33
ENDBRANCH   1  32
TORSDOF 18
ENDMDL
MODEL 3
REMARK VINA RESULT:      -6.9      2.375      5.888
REMARK  Name = 
REMARK  19 active torsions:
REMARK  status: ('A' for Active; 'I' for Inactive)
REMARK    1  A    between atoms: C_1  and  C_2
REMARK    2  A    between atoms: C_2  and  C_4
REMARK    3  A    between atoms: C_4  and  C_5
REMARK    4  A    between atoms: N_8  and  C_14
REMARK    5  A    between atoms: C_10  and  C_11
REMARK    6  A    between atoms: C_17  and  C_19
REMARK    7  A    between atoms: C_19  and  O_20
REMARK    8  A    between atoms: O_20  and  P_21
REMARK    9  A    between atoms: P_21  and  O_24
REMARK   10  A    between atoms: O_24  and  P_25
REMARK   11  A    between atoms: P_25  and  O_26
REMARK   12  A    between atoms: P_25  and  O_28
REMARK   13  A    between atoms: O_28  and  C_29
REMARK   14  A    between atoms: C_29  and  C_30
REMARK   15  A    between atoms: C_33  and  N_41
REMARK   16  A    between atoms: C_35  and  O_37
REMARK   17  A    between atoms: C_38  and  O_40
REMARK   18  A    between atoms: C_51  and  O_53
REMARK   19  A    between atoms: C_54  and  O_56
REMARK                            x       y       z     vdW  Elec       q    Type
REMARK                         _______ _______ _______ _____ _____    ______ ____
ROOT
ATOM      1  P   UNL     1       1.859   3.166  25.857  0.00  0.00    +0.222 P 
ATOM      2  O   UNL     1       1.094   3.531  27.366  0.00  0.00    -0.437 OA
ATOM      3  O   UNL     1       1.070   1.860  25.639  0.00  0.00    -0.517 OA
ENDROOT
BRANCH   1   4
ATOM      4  O   UNL     1       2.622   2.801  24.348  0.00  0.00    -0.229 OA
BRANCH   4   5
ATOM      5  P   UNL     1       3.425   3.737  23.323  0.00  0.00    +0.480 P 
ATOM      6  O   UNL     1       2.780   5.079  23.114  0.00  0.00    -0.227 OA
BRANCH   5   7
ATOM      7  O   UNL     1       3.261   2.953  21.926  0.00  0.00    -0.302 OA
ATOM      8  H   UNL     1       3.059   3.631  21.254  0.00  0.00    +0.222 HD
ENDBRANCH   5   7
BRANCH   5   9
ATOM      9  O   UNL     1       5.051   3.822  23.450  0.00  0.00    -0.284 OA
BRANCH   9  10
ATOM     10  C   UNL     1       5.764   4.910  22.793  0.00  0.00    +0.206 C 
BRANCH  10  11
ATOM     11  C   UNL     1       7.297   4.737  22.435  0.00  0.00    +0.178 C 
ATOM     12  C   UNL     1       8.208   5.328  23.551  0.00  0.00    +0.178 C 
ATOM     13  C   UNL     1       8.564   4.141  24.452  0.00  0.00    +0.195 C 
ATOM     14  C   UNL     1       7.988   2.931  23.705  0.00  0.00    +0.253 C 
ATOM     15  O   UNL     1       7.719   3.352  22.354  0.00  0.00    -0.346 OA
BRANCH  14  16
ATOM     16  N   UNL     1       8.879   1.784  23.748  0.00  0.00    -0.286 N 
ATOM     17  C   UNL     1       8.492   0.518  23.394  0.00  0.00    +0.167 A 
ATOM     18  N   UNL     1       7.274   0.122  22.975  0.00  0.00    -0.216 NA
ATOM     19  C   UNL     1       7.283  -1.198  22.677  0.00  0.00    +0.225 A 
ATOM     20  N   UNL     1       8.305  -2.073  22.788  0.00  0.00    -0.219 NA
ATOM     21  C   UNL     1       9.488  -1.630  23.252  0.00  0.00    +0.147 A 
ATOM     22  N   UNL     1      10.530  -2.544  23.378  0.00  0.00    -0.341 N 
ATOM     23  H   UNL     1      11.448  -2.114  23.375  0.00  0.00    +0.144 HD
ATOM     24  H   UNL     1      10.391  -3.357  22.794  0.00  0.00    +0.144 HD
ATOM     25  C   UNL     1       9.619  -0.269  23.562  0.00  0.00    +0.147 A 
ATOM     26  N   UNL     1      10.679   0.503  24.019  0.00  0.00    -0.231 NA
ATOM     27  C   UNL     1      10.195   1.726  24.109  0.00  0.00    +0.203 A 
ENDBRANCH  14  16
BRANCH  13  28
ATOM     28  O   UNL     1       7.971   4.276  25.745  0.00  0.00    -0.385 OA
ATOM     29  H   UNL     1       7.578   3.405  25.970  0.00  0.00    +0.210 HD
ENDBRANCH  13  28
BRANCH  12  30
ATOM     30  O   UNL     1       9.414   5.888  22.998  0.00  0.00    -0.386 OA
ATOM     31  H   UNL     1       9.223   6.755  22.597  0.00  0.00    +0.210 HD
ENDBRANCH  12  30
ENDBRANCH  10  11
ENDBRANCH   9  10
ENDBRANCH   5   9
ENDBRANCH   4   5
ENDBRANCH   1   4
BRANCH   1  32
ATOM     32  O   UNL     1       3.286   2.693  26.661  0.00  0.00    -0.324 OA
BRANCH  32  33
ATOM     33  C   UNL     1       3.224   1.376  27.250  0.00  0.00    +0.202 C 
BRANCH  33  37
ATOM     34  C   UNL     1       6.194  -0.731  27.194  0.00  0.00    +0.439 C 
ATOM     35  C   UNL     1       6.661   0.380  26.254  0.00  0.00    +0.244 C 
ATOM     36  C   UNL     1       5.376   1.147  25.912  0.00  0.00    +0.183 C 
ATOM     37  C   UNL     1       4.261   0.425  26.675  0.00  0.00    +0.182 C 
ATOM     38  O   UNL     1       4.918  -0.338  27.707  0.00  0.00    -0.309 OA
BRANCH  34  42
ATOM     39  C   UNL     1       5.836  -4.283  24.869  0.00  0.00    -0.017 A 
ATOM     40  C   UNL     1       7.007  -4.043  25.600  0.00  0.00    +0.104 A 
ATOM     41  C   UNL     1       7.058  -2.951  26.466  0.00  0.00    +0.325 A 
ATOM     42  N   UNL     1       6.025  -2.080  26.569  0.00  0.00    -0.173 N 
ATOM     43  C   UNL     1       4.862  -2.333  25.923  0.00  0.00    +0.312 A 
ATOM     44  C   UNL     1       4.742  -3.438  25.085  0.00  0.00    +0.074 A 
BRANCH  40  45
ATOM     45  C   UNL     1       8.210  -4.906  25.504  0.00  0.00    +0.248 C 
ATOM     46  O   UNL     1       8.964  -4.831  24.532  0.00  0.00    -0.270 OA
ATOM     47  N   UNL     1       8.469  -5.772  26.524  0.00  0.00    -0.325 N 
ATOM     48  H   UNL     1       9.348  -6.281  26.455  0.00  0.00    +0.145 HD
ATOM     49  H   UNL     1       8.063  -5.739  27.449  0.00  0.00    +0.145 HD
ENDBRANCH  40  45
BRANCH  39  50
ATOM     50  C   UNL     1       5.716  -5.397  23.851  0.00  0.00    +0.110 C 
BRANCH  50  52
ATOM     51  C   UNL     1       7.100  -5.610  21.700  0.00  0.00    +0.086 C 
ATOM     52  C   UNL     1       5.952  -4.952  22.423  0.00  0.00    +0.135 C 
ATOM     53  O   UNL     1       5.298  -4.042  21.912  0.00  0.00    -0.297 OA
ENDBRANCH  50  52
ENDBRANCH  39  50
ENDBRANCH  34  42
BRANCH  36  54
ATOM     54  O   UNL     1       5.120   1.052  24.511  0.00  0.00    -0.386 OA
ATOM     55  H   UNL     1       4.186   0.758  24.435  0.00  0.00    +0.210 HD
ENDBRANCH  36  54
BRANCH  35  56
ATOM     56  O   UNL     1       7.632   1.212  26.911  0.00  0.00    -0.380 OA
ATOM     57  H   UNL     1       8.512   0.790  26.892  0.00  0.00    +0.210 HD
ENDBRANCH  35  56
ENDBRANCH  33  37
ENDBRANCH  32  33
ENDBRANCH   1  32
TORSDOF 18
ENDMDL
MODEL 4
REMARK VINA RESULT:      -6.9      3.014      6.853
REMARK  Name = 
REMARK  19 active torsions:
REMARK  status: ('A' for Active; 'I' for Inactive)
REMARK    1  A    between atoms: C_1  and  C_2
REMARK    2  A    between atoms: C_2  and  C_4
REMARK    3  A    between atoms: C_4  and  C_5
REMARK    4  A    between atoms: N_8  and  C_14
REMARK    5  A    between atoms: C_10  and  C_11
REMARK    6  A    between atoms: C_17  and  C_19
REMARK    7  A    between atoms: C_19  and  O_20
REMARK    8  A    between atoms: O_20  and  P_21
REMARK    9  A    between atoms: P_21  and  O_24
REMARK   10  A    between atoms: O_24  and  P_25
REMARK   11  A    between atoms: P_25  and  O_26
REMARK   12  A    between atoms: P_25  and  O_28
REMARK   13  A    between atoms: O_28  and  C_29
REMARK   14  A    between atoms: C_29  and  C_30
REMARK   15  A    between atoms: C_33  and  N_41
REMARK   16  A    between atoms: C_35  and  O_37
REMARK   17  A    between atoms: C_38  and  O_40
REMARK   18  A    between atoms: C_51  and  O_53
REMARK   19  A    between atoms: C_54  and  O_56
REMARK                            x       y       z     vdW  Elec       q    Type
REMARK                         _______ _______ _______ _____ _____    ______ ____
ROOT
ATOM      1  P   UNL     1       3.855  -1.702  26.735  0.00  0.00    +0.222 P 
ATOM      2  O   UNL     1       4.705  -0.735  27.891  0.00  0.00    -0.437 OA
ATOM      3  O   UNL     1       4.435  -3.035  27.247  0.00  0.00    -0.517 OA
ENDROOT
BRANCH   1   4
ATOM      4  O   UNL     1       3.003  -2.669  25.580  0.00  0.00    -0.229 OA
BRANCH   4   5
ATOM      5  P   UNL     1       1.522  -3.284  25.612  0.00  0.00    +0.480 P 
ATOM      6  O   UNL     1       0.445  -2.249  25.441  0.00  0.00    -0.227 OA
BRANCH   5   7
ATOM      7  O   UNL     1       1.389  -3.804  27.130  0.00  0.00    -0.302 OA
ATOM      8  H   UNL     1       1.515  -3.022  27.700  0.00  0.00    +0.222 HD
ENDBRANCH   5   7
BRANCH   5   9
ATOM      9  O   UNL     1       1.228  -4.658  24.779  0.00  0.00    -0.284 OA
BRANCH   9  10
ATOM     10  C   UNL     1       0.820  -5.857  25.499  0.00  0.00    +0.206 C 
BRANCH  10  11
ATOM     11  C   UNL     1       1.919  -6.888  25.986  0.00  0.00    +0.178 C 
ATOM     12  C   UNL     1       2.420  -7.777  24.811  0.00  0.00    +0.178 C 
ATOM     13  C   UNL     1       3.687  -7.087  24.294  0.00  0.00    +0.195 C 
ATOM     14  C   UNL     1       3.925  -5.960  25.306  0.00  0.00    +0.253 C 
ATOM     15  O   UNL     1       3.131  -6.255  26.470  0.00  0.00    -0.346 OA
BRANCH  14  16
ATOM     16  N   UNL     1       5.333  -5.806  25.636  0.00  0.00    -0.286 N 
ATOM     17  C   UNL     1       6.250  -5.259  24.777  0.00  0.00    +0.167 A 
ATOM     18  N   UNL     1       6.030  -4.797  23.531  0.00  0.00    -0.216 NA
ATOM     19  C   UNL     1       7.170  -4.291  23.006  0.00  0.00    +0.225 A 
ATOM     20  N   UNL     1       8.399  -4.247  23.564  0.00  0.00    -0.219 NA
ATOM     21  C   UNL     1       8.569  -4.760  24.796  0.00  0.00    +0.147 A 
ATOM     22  N   UNL     1       9.843  -4.724  25.355  0.00  0.00    -0.341 N 
ATOM     23  H   UNL     1       9.843  -4.778  26.368  0.00  0.00    +0.144 HD
ATOM     24  H   UNL     1      10.424  -4.019  24.924  0.00  0.00    +0.144 HD
ATOM     25  C   UNL     1       7.452  -5.283  25.464  0.00  0.00    +0.147 A 
ATOM     26  N   UNL     1       7.276  -5.844  26.722  0.00  0.00    -0.231 NA
ATOM     27  C   UNL     1       5.991  -6.136  26.786  0.00  0.00    +0.203 A 
ENDBRANCH  14  16
BRANCH  13  28
ATOM     28  O   UNL     1       3.491  -6.564  22.978  0.00  0.00    -0.385 OA
ATOM     29  H   UNL     1       3.928  -7.187  22.358  0.00  0.00    +0.210 HD
ENDBRANCH  13  28
BRANCH  12  30
ATOM     30  O   UNL     1       2.748  -9.105  25.264  0.00  0.00    -0.386 OA
ATOM     31  H   UNL     1       2.691  -9.731  24.521  0.00  0.00    +0.210 HD
ENDBRANCH  12  30
ENDBRANCH  10  11
ENDBRANCH   9  10
ENDBRANCH   5   9
ENDBRANCH   4   5
ENDBRANCH   1   4
BRANCH   1  32
ATOM     32  O   UNL     1       4.913  -1.203  25.495  0.00  0.00    -0.324 OA
BRANCH  32  33
ATOM     33  C   UNL     1       6.288  -1.591  25.701  0.00  0.00    +0.202 C 
BRANCH  33  37
ATOM     34  C   UNL     1       8.488  -0.414  23.048  0.00  0.00    +0.439 C 
ATOM     35  C   UNL     1       9.538  -0.758  24.104  0.00  0.00    +0.244 C 
ATOM     36  C   UNL     1       8.727  -0.930  25.397  0.00  0.00    +0.183 C 
ATOM     37  C   UNL     1       7.271  -0.670  24.996  0.00  0.00    +0.182 C 
ATOM     38  O   UNL     1       7.221  -0.829  23.564  0.00  0.00    -0.309 OA
BRANCH  34  42
ATOM     39  C   UNL     1       7.775   3.758  22.554  0.00  0.00    -0.017 A 
ATOM     40  C   UNL     1       8.972   3.318  23.134  0.00  0.00    +0.104 A 
ATOM     41  C   UNL     1       9.256   1.953  23.162  0.00  0.00    +0.325 A 
ATOM     42  N   UNL     1       8.372   1.037  22.699  0.00  0.00    -0.173 N 
ATOM     43  C   UNL     1       7.241   1.445  22.074  0.00  0.00    +0.312 A 
ATOM     44  C   UNL     1       6.935   2.799  21.975  0.00  0.00    +0.074 A 
BRANCH  40  45
ATOM     45  C   UNL     1       9.970   4.245  23.723  0.00  0.00    +0.248 C 
ATOM     46  O   UNL     1       9.676   4.965  24.679  0.00  0.00    -0.270 OA
ATOM     47  N   UNL     1      11.225   4.268  23.191  0.00  0.00    -0.325 N 
ATOM     48  H   UNL     1      11.898   4.854  23.681  0.00  0.00    +0.145 HD
ATOM     49  H   UNL     1      11.627   3.565  22.587  0.00  0.00    +0.145 HD
ENDBRANCH  40  45
BRANCH  39  50
ATOM     50  C   UNL     1       7.348   5.210  22.546  0.00  0.00    +0.110 C 
BRANCH  50  52
ATOM     51  C   UNL     1       4.862   5.713  22.938  0.00  0.00    +0.086 C 
ATOM     52  C   UNL     1       6.238   5.530  23.525  0.00  0.00    +0.135 C 
ATOM     53  O   UNL     1       6.464   5.716  24.722  0.00  0.00    -0.297 OA
ENDBRANCH  50  52
ENDBRANCH  39  50
ENDBRANCH  34  42
BRANCH  36  54
ATOM     54  O   UNL     1       9.132   0.054  26.349  0.00  0.00    -0.386 OA
ATOM     55  H   UNL     1       8.651   0.873  26.098  0.00  0.00    +0.210 HD
ENDBRANCH  36  54
BRANCH  35  56
ATOM     56  O   UNL     1      10.236  -1.960  23.738  0.00  0.00    -0.380 OA
ATOM     57  H   UNL     1      10.716  -2.324  24.508  0.00  0.00    +0.210 HD
ENDBRANCH  35  56
ENDBRANCH  33  37
ENDBRANCH  32  33
ENDBRANCH   1  32
TORSDOF 18
ENDMDL
MODEL 5
REMARK VINA RESULT:      -6.9      3.614      8.246
REMARK  Name = 
REMARK  19 active torsions:
REMARK  status: ('A' for Active; 'I' for Inactive)
REMARK    1  A    between atoms: C_1  and  C_2
REMARK    2  A    between atoms: C_2  and  C_4
REMARK    3  A    between atoms: C_4  and  C_5
REMARK    4  A    between atoms: N_8  and  C_14
REMARK    5  A    between atoms: C_10  and  C_11
REMARK    6  A    between atoms: C_17  and  C_19
REMARK    7  A    between atoms: C_19  and  O_20
REMARK    8  A    between atoms: O_20  and  P_21
REMARK    9  A    between atoms: P_21  and  O_24
REMARK   10  A    between atoms: O_24  and  P_25
REMARK   11  A    between atoms: P_25  and  O_26
REMARK   12  A    between atoms: P_25  and  O_28
REMARK   13  A    between atoms: O_28  and  C_29
REMARK   14  A    between atoms: C_29  and  C_30
REMARK   15  A    between atoms: C_33  and  N_41
REMARK   16  A    between atoms: C_35  and  O_37
REMARK   17  A    between atoms: C_38  and  O_40
REMARK   18  A    between atoms: C_51  and  O_53
REMARK   19  A    between atoms: C_54  and  O_56
REMARK                            x       y       z     vdW  Elec       q    Type
REMARK                         _______ _______ _______ _____ _____    ______ ____
ROOT
ATOM      1  P   UNL     1       4.141  -3.056  26.743  0.00  0.00    +0.222 P 
ATOM      2  O   UNL     1       2.640  -2.203  26.861  0.00  0.00    -0.437 OA
ATOM      3  O   UNL     1       4.613  -2.660  28.156  0.00  0.00    -0.517 OA
ENDROOT
BRANCH   1   4
ATOM      4  O   UNL     1       5.642  -3.910  26.626  0.00  0.00    -0.229 OA
BRANCH   4   5
ATOM      5  P   UNL     1       6.061  -5.372  27.134  0.00  0.00    +0.480 P 
ATOM      6  O   UNL     1       4.981  -6.400  26.944  0.00  0.00    -0.227 OA
BRANCH   5   7
ATOM      7  O   UNL     1       6.195  -5.169  28.725  0.00  0.00    -0.302 OA
ATOM      8  H   UNL     1       7.019  -4.668  28.869  0.00  0.00    +0.222 HD
ENDBRANCH   5   7
BRANCH   5   9
ATOM      9  O   UNL     1       7.550  -5.932  26.760  0.00  0.00    -0.284 OA
BRANCH   9  10
ATOM     10  C   UNL     1       8.584  -4.991  26.348  0.00  0.00    +0.206 C 
BRANCH  10  11
ATOM     11  C   UNL     1       9.090  -4.993  24.848  0.00  0.00    +0.178 C 
ATOM     12  C   UNL     1       7.914  -5.223  23.855  0.00  0.00    +0.178 C 
ATOM     13  C   UNL     1       7.473  -3.821  23.419  0.00  0.00    +0.195 C 
ATOM     14  C   UNL     1       8.526  -2.898  24.045  0.00  0.00    +0.253 C 
ATOM     15  O   UNL     1       9.645  -3.722  24.423  0.00  0.00    -0.346 OA
BRANCH  14  16
ATOM     16  N   UNL     1       8.922  -1.827  23.145  0.00  0.00    -0.286 N 
ATOM     17  C   UNL     1       9.272  -0.575  23.575  0.00  0.00    +0.167 A 
ATOM     18  N   UNL     1       9.302  -0.125  24.845  0.00  0.00    -0.216 NA
ATOM     19  C   UNL     1       9.739   1.155  24.883  0.00  0.00    +0.225 A 
ATOM     20  N   UNL     1      10.083   1.952  23.848  0.00  0.00    -0.219 NA
ATOM     21  C   UNL     1       9.995   1.462  22.598  0.00  0.00    +0.147 A 
ATOM     22  N   UNL     1      10.336   2.296  21.538  0.00  0.00    -0.341 N 
ATOM     23  H   UNL     1      10.597   1.795  20.695  0.00  0.00    +0.144 HD
ATOM     24  H   UNL     1      10.932   3.057  21.834  0.00  0.00    +0.144 HD
ATOM     25  C   UNL     1       9.588   0.131  22.426  0.00  0.00    +0.147 A 
ATOM     26  N   UNL     1       9.427  -0.676  21.308  0.00  0.00    -0.231 NA
ATOM     27  C   UNL     1       9.034  -1.841  21.783  0.00  0.00    +0.203 A 
ENDBRANCH  14  16
BRANCH  13  28
ATOM     28  O   UNL     1       6.165  -3.514  23.908  0.00  0.00    -0.385 OA
ATOM     29  H   UNL     1       5.551  -4.164  23.502  0.00  0.00    +0.210 HD
ENDBRANCH  13  28
BRANCH  12  30
ATOM     30  O   UNL     1       8.342  -5.971  22.701  0.00  0.00    -0.386 OA
ATOM     31  H   UNL     1       7.591  -6.107  22.097  0.00  0.00    +0.210 HD
ENDBRANCH  12  30
ENDBRANCH  10  11
ENDBRANCH   9  10
ENDBRANCH   5   9
ENDBRANCH   4   5
ENDBRANCH   1   4
BRANCH   1  32
ATOM     32  O   UNL     1       4.776  -1.856  25.711  0.00  0.00    -0.324 OA
BRANCH  32  33
ATOM     33  C   UNL     1       5.872  -1.108  26.280  0.00  0.00    +0.202 C 
BRANCH  33  37
ATOM     34  C   UNL     1       6.205   2.335  27.422  0.00  0.00    +0.439 C 
ATOM     35  C   UNL     1       4.801   2.034  27.948  0.00  0.00    +0.244 C 
ATOM     36  C   UNL     1       4.400   0.739  27.228  0.00  0.00    +0.183 C 
ATOM     37  C   UNL     1       5.596   0.387  26.337  0.00  0.00    +0.182 C 
ATOM     38  O   UNL     1       6.717   1.118  26.874  0.00  0.00    -0.309 OA
BRANCH  34  42
ATOM     39  C   UNL     1       6.439   5.712  24.834  0.00  0.00    -0.017 A 
ATOM     40  C   UNL     1       7.588   4.955  25.099  0.00  0.00    +0.104 A 
ATOM     41  C   UNL     1       7.472   3.774  25.831  0.00  0.00    +0.325 A 
ATOM     42  N   UNL     1       6.285   3.374  26.347  0.00  0.00    -0.173 N 
ATOM     43  C   UNL     1       5.154   4.055  26.045  0.00  0.00    +0.312 A 
ATOM     44  C   UNL     1       5.208   5.214  25.276  0.00  0.00    +0.074 A 
BRANCH  40  45
ATOM     45  C   UNL     1       8.940   5.347  24.629  0.00  0.00    +0.248 C 
ATOM     46  O   UNL     1       9.701   5.986  25.358  0.00  0.00    -0.270 OA
ATOM     47  N   UNL     1       9.324   4.971  23.376  0.00  0.00    -0.325 N 
ATOM     48  H   UNL     1      10.288   5.188  23.130  0.00  0.00    +0.145 HD
ATOM     49  H   UNL     1       8.885   4.260  22.809  0.00  0.00    +0.145 HD
ENDBRANCH  40  45
BRANCH  39  50
ATOM     50  C   UNL     1       6.479   7.043  24.114  0.00  0.00    +0.110 C 
BRANCH  50  52
ATOM     51  C   UNL     1       4.813   7.105  22.163  0.00  0.00    +0.086 C 
ATOM     52  C   UNL     1       6.239   6.941  22.622  0.00  0.00    +0.135 C 
ATOM     53  O   UNL     1       7.145   6.653  21.839  0.00  0.00    -0.297 OA
ENDBRANCH  50  52
ENDBRANCH  39  50
ENDBRANCH  34  42
BRANCH  36  54
ATOM     54  O   UNL     1       3.260   0.984  26.404  0.00  0.00    -0.386 OA
ATOM     55  H   UNL     1       2.906   0.095  26.180  0.00  0.00    +0.210 HD
ENDBRANCH  36  54
BRANCH  35  56
ATOM     56  O   UNL     1       4.829   1.876  29.376  0.00  0.00    -0.380 OA
ATOM     57  H   UNL     1       4.161   1.223  29.660  0.00  0.00    +0.210 HD
ENDBRANCH  35  56
ENDBRANCH  33  37
ENDBRANCH  32  33
ENDBRANCH   1  32
TORSDOF 18
ENDMDL
MODEL 6
REMARK VINA RESULT:      -6.8      3.563      7.538
REMARK  Name = 
REMARK  19 active torsions:
REMARK  status: ('A' for Active; 'I' for Inactive)
REMARK    1  A    between atoms: C_1  and  C_2
REMARK    2  A    between atoms: C_2  and  C_4
REMARK    3  A    between atoms: C_4  and  C_5
REMARK    4  A    between atoms: N_8  and  C_14
REMARK    5  A    between atoms: C_10  and  C_11
REMARK    6  A    between atoms: C_17  and  C_19
REMARK    7  A    between atoms: C_19  and  O_20
REMARK    8  A    between atoms: O_20  and  P_21
REMARK    9  A    between atoms: P_21  and  O_24
REMARK   10  A    between atoms: O_24  and  P_25
REMARK   11  A    between atoms: P_25  and  O_26
REMARK   12  A    between atoms: P_25  and  O_28
REMARK   13  A    between atoms: O_28  and  C_29
REMARK   14  A    between atoms: C_29  and  C_30
REMARK   15  A    between atoms: C_33  and  N_41
REMARK   16  A    between atoms: C_35  and  O_37
REMARK   17  A    between atoms: C_38  and  O_40
REMARK   18  A    between atoms: C_51  and  O_53
REMARK   19  A    between atoms: C_54  and  O_56
REMARK                            x       y       z     vdW  Elec       q    Type
REMARK                         _______ _______ _______ _____ _____    ______ ____
ROOT
ATOM      1  P   UNL     1       6.055  -5.540  22.128  0.00  0.00    +0.222 P 
ATOM      2  O   UNL     1       6.068  -5.532  20.398  0.00  0.00    -0.437 OA
ATOM      3  O   UNL     1       4.589  -5.075  22.236  0.00  0.00    -0.517 OA
ENDROOT
BRANCH   1   4
ATOM      4  O   UNL     1       6.040  -5.549  23.858  0.00  0.00    -0.229 OA
BRANCH   4   5
ATOM      5  P   UNL     1       5.011  -6.208  24.898  0.00  0.00    +0.480 P 
ATOM      6  O   UNL     1       5.672  -6.716  26.148  0.00  0.00    -0.227 OA
BRANCH   5   7
ATOM      7  O   UNL     1       4.503  -7.517  24.110  0.00  0.00    -0.302 OA
ATOM      8  H   UNL     1       4.847  -7.440  23.200  0.00  0.00    +0.222 HD
ENDBRANCH   5   7
BRANCH   5   9
ATOM      9  O   UNL     1       3.596  -5.443  25.187  0.00  0.00    -0.284 OA
BRANCH   9  10
ATOM     10  C   UNL     1       2.820  -5.799  26.368  0.00  0.00    +0.206 C 
BRANCH  10  11
ATOM     11  C   UNL     1       2.489  -4.690  27.449  0.00  0.00    +0.178 C 
ATOM     12  C   UNL     1       3.522  -4.709  28.613  0.00  0.00    +0.178 C 
ATOM     13  C   UNL     1       4.567  -3.650  28.244  0.00  0.00    +0.195 C 
ATOM     14  C   UNL     1       3.977  -2.978  26.997  0.00  0.00    +0.253 C 
ATOM     15  O   UNL     1       2.584  -3.336  26.937  0.00  0.00    -0.346 OA
BRANCH  14  16
ATOM     16  N   UNL     1       4.165  -1.537  27.009  0.00  0.00    -0.286 N 
ATOM     17  C   UNL     1       5.394  -0.938  26.901  0.00  0.00    +0.167 A 
ATOM     18  N   UNL     1       6.591  -1.544  26.782  0.00  0.00    -0.216 NA
ATOM     19  C   UNL     1       7.575  -0.625  26.657  0.00  0.00    +0.225 A 
ATOM     20  N   UNL     1       7.469   0.721  26.676  0.00  0.00    -0.219 NA
ATOM     21  C   UNL     1       6.252   1.272  26.838  0.00  0.00    +0.147 A 
ATOM     22  N   UNL     1       6.156   2.660  26.873  0.00  0.00    -0.341 N 
ATOM     23  H   UNL     1       5.233   3.008  26.635  0.00  0.00    +0.144 HD
ATOM     24  H   UNL     1       6.951   3.103  26.434  0.00  0.00    +0.144 HD
ATOM     25  C   UNL     1       5.141   0.423  26.943  0.00  0.00    +0.147 A 
ATOM     26  N   UNL     1       3.779   0.655  27.081  0.00  0.00    -0.231 NA
ATOM     27  C   UNL     1       3.231  -0.545  27.110  0.00  0.00    +0.203 A 
ENDBRANCH  14  16
BRANCH  13  28
ATOM     28  O   UNL     1       5.832  -4.249  27.955  0.00  0.00    -0.385 OA
ATOM     29  H   UNL     1       6.372  -4.177  28.771  0.00  0.00    +0.210 HD
ENDBRANCH  13  28
BRANCH  12  30
ATOM     30  O   UNL     1       2.905  -4.356  29.866  0.00  0.00    -0.386 OA
ATOM     31  H   UNL     1       3.489  -3.759  30.366  0.00  0.00    +0.210 HD
ENDBRANCH  12  30
ENDBRANCH  10  11
ENDBRANCH   9  10
ENDBRANCH   5   9
ENDBRANCH   4   5
ENDBRANCH   1   4
BRANCH   1  32
ATOM     32  O   UNL     1       6.979  -4.108  22.172  0.00  0.00    -0.324 OA
BRANCH  32  33
ATOM     33  C   UNL     1       6.504  -3.128  23.119  0.00  0.00    +0.202 C 
BRANCH  33  37
ATOM     34  C   UNL     1       8.693  -0.355  22.233  0.00  0.00    +0.439 C 
ATOM     35  C   UNL     1       9.748  -1.381  22.646  0.00  0.00    +0.244 C 
ATOM     36  C   UNL     1       8.949  -2.469  23.376  0.00  0.00    +0.183 C 
ATOM     37  C   UNL     1       7.493  -1.993  23.337  0.00  0.00    +0.182 C 
ATOM     38  O   UNL     1       7.426  -1.014  22.280  0.00  0.00    -0.309 OA
BRANCH  34  42
ATOM     39  C   UNL     1       8.755   3.388  24.269  0.00  0.00    -0.017 A 
ATOM     40  C   UNL     1       7.614   3.001  23.554  0.00  0.00    +0.104 A 
ATOM     41  C   UNL     1       7.551   1.718  23.012  0.00  0.00    +0.325 A 
ATOM     42  N   UNL     1       8.595   0.858  23.104  0.00  0.00    -0.173 N 
ATOM     43  C   UNL     1       9.678   1.189  23.847  0.00  0.00    +0.312 A 
ATOM     44  C   UNL     1       9.769   2.440  24.452  0.00  0.00    +0.074 A 
BRANCH  40  45
ATOM     45  C   UNL     1       6.448   3.896  23.349  0.00  0.00    +0.248 C 
ATOM     46  O   UNL     1       5.536   3.944  24.176  0.00  0.00    -0.270 OA
ATOM     47  N   UNL     1       6.420   4.676  22.231  0.00  0.00    -0.325 N 
ATOM     48  H   UNL     1       5.646   5.334  22.175  0.00  0.00    +0.145 HD
ATOM     49  H   UNL     1       7.206   4.886  21.633  0.00  0.00    +0.145 HD
ENDBRANCH  40  45
BRANCH  39  50
ATOM     50  C   UNL     1       8.943   4.782  24.827  0.00  0.00    +0.110 C 
BRANCH  50  52
ATOM     51  C   UNL     1      11.088   5.983  24.086  0.00  0.00    +0.086 C 
ATOM     52  C   UNL     1       9.616   5.742  23.868  0.00  0.00    +0.135 C 
ATOM     53  O   UNL     1       8.976   6.358  23.013  0.00  0.00    -0.297 OA
ENDBRANCH  50  52
ENDBRANCH  39  50
ENDBRANCH  34  42
BRANCH  36  54
ATOM     54  O   UNL     1       9.378  -2.546  24.736  0.00  0.00    -0.386 OA
ATOM     55  H   UNL     1      10.240  -2.075  24.764  0.00  0.00    +0.210 HD
ENDBRANCH  36  54
BRANCH  35  56
ATOM     56  O   UNL     1      10.425  -1.892  21.485  0.00  0.00    -0.380 OA
ATOM     57  H   UNL     1      10.830  -1.163  20.977  0.00  0.00    +0.210 HD
ENDBRANCH  35  56
ENDBRANCH  33  37
ENDBRANCH  32  33
ENDBRANCH   1  32
TORSDOF 18
ENDMDL
MODEL 7
REMARK VINA RESULT:      -6.7      3.496      8.445
REMARK  Name = 
REMARK  19 active torsions:
REMARK  status: ('A' for Active; 'I' for Inactive)
REMARK    1  A    between atoms: C_1  and  C_2
REMARK    2  A    between atoms: C_2  and  C_4
REMARK    3  A    between atoms: C_4  and  C_5
REMARK    4  A    between atoms: N_8  and  C_14
REMARK    5  A    between atoms: C_10  and  C_11
REMARK    6  A    between atoms: C_17  and  C_19
REMARK    7  A    between atoms: C_19  and  O_20
REMARK    8  A    between atoms: O_20  and  P_21
REMARK    9  A    between atoms: P_21  and  O_24
REMARK   10  A    between atoms: O_24  and  P_25
REMARK   11  A    between atoms: P_25  and  O_26
REMARK   12  A    between atoms: P_25  and  O_28
REMARK   13  A    between atoms: O_28  and  C_29
REMARK   14  A    between atoms: C_29  and  C_30
REMARK   15  A    between atoms: C_33  and  N_41
REMARK   16  A    between atoms: C_35  and  O_37
REMARK   17  A    between atoms: C_38  and  O_40
REMARK   18  A    between atoms: C_51  and  O_53
REMARK   19  A    between atoms: C_54  and  O_56
REMARK                            x       y       z     vdW  Elec       q    Type
REMARK                         _______ _______ _______ _____ _____    ______ ____
ROOT
ATOM      1  P   UNL     1       6.928  -2.980  22.672  0.00  0.00    +0.222 P 
ATOM      2  O   UNL     1       5.689  -3.097  21.470  0.00  0.00    -0.437 OA
ATOM      3  O   UNL     1       7.696  -1.861  21.942  0.00  0.00    -0.517 OA
ENDROOT
BRANCH   1   4
ATOM      4  O   UNL     1       8.167  -2.863  23.875  0.00  0.00    -0.229 OA
BRANCH   4   5
ATOM      5  P   UNL     1       8.620  -1.634  24.801  0.00  0.00    +0.480 P 
ATOM      6  O   UNL     1       8.693  -1.986  26.261  0.00  0.00    -0.227 OA
BRANCH   5   7
ATOM      7  O   UNL     1       7.384  -0.612  24.661  0.00  0.00    -0.302 OA
ATOM      8  H   UNL     1       7.545   0.103  25.304  0.00  0.00    +0.222 HD
ENDBRANCH   5   7
BRANCH   5   9
ATOM      9  O   UNL     1       9.863  -0.698  24.304  0.00  0.00    -0.284 OA
BRANCH   9  10
ATOM     10  C   UNL     1      10.026   0.634  24.872  0.00  0.00    +0.206 C 
BRANCH  10  11
ATOM     11  C   UNL     1      10.212   1.876  23.908  0.00  0.00    +0.178 C 
ATOM     12  C   UNL     1       9.763   1.539  22.457  0.00  0.00    +0.178 C 
ATOM     13  C   UNL     1       8.313   2.027  22.360  0.00  0.00    +0.195 C 
ATOM     14  C   UNL     1       8.088   2.762  23.687  0.00  0.00    +0.253 C 
ATOM     15  O   UNL     1       9.383   3.013  24.262  0.00  0.00    -0.346 OA
BRANCH  14  16
ATOM     16  N   UNL     1       7.326   3.988  23.512  0.00  0.00    -0.286 N 
ATOM     17  C   UNL     1       5.983   4.007  23.243  0.00  0.00    +0.167 A 
ATOM     18  N   UNL     1       5.165   2.947  23.086  0.00  0.00    -0.216 NA
ATOM     19  C   UNL     1       3.894   3.358  22.871  0.00  0.00    +0.225 A 
ATOM     20  N   UNL     1       3.430   4.623  22.777  0.00  0.00    -0.219 NA
ATOM     21  C   UNL     1       4.299   5.642  22.902  0.00  0.00    +0.147 A 
ATOM     22  N   UNL     1       3.813   6.941  22.787  0.00  0.00    -0.341 N 
ATOM     23  H   UNL     1       4.401   7.635  23.234  0.00  0.00    +0.144 HD
ATOM     24  H   UNL     1       2.818   6.988  22.961  0.00  0.00    +0.144 HD
ATOM     25  C   UNL     1       5.645   5.347  23.164  0.00  0.00    +0.147 A 
ATOM     26  N   UNL     1       6.766   6.139  23.376  0.00  0.00    -0.231 NA
ATOM     27  C   UNL     1       7.749   5.285  23.587  0.00  0.00    +0.203 A 
ENDBRANCH  14  16
BRANCH  13  28
ATOM     28  O   UNL     1       7.406   0.931  22.219  0.00  0.00    -0.385 OA
ATOM     29  H   UNL     1       7.380   0.706  21.264  0.00  0.00    +0.210 HD
ENDBRANCH  13  28
BRANCH  12  30
ATOM     30  O   UNL     1      10.568   2.233  21.485  0.00  0.00    -0.386 OA
ATOM     31  H   UNL     1      11.512   2.115  21.692  0.00  0.00    +0.210 HD
ENDBRANCH  12  30
ENDBRANCH  10  11
ENDBRANCH   9  10
ENDBRANCH   5   9
ENDBRANCH   4   5
ENDBRANCH   1   4
BRANCH   1  32
ATOM     32  O   UNL     1       7.635  -4.433  22.127  0.00  0.00    -0.324 OA
BRANCH  32  33
ATOM     33  C   UNL     1       7.145  -5.616  22.795  0.00  0.00    +0.202 C 
BRANCH  33  37
ATOM     34  C   UNL     1       4.953  -6.012  25.676  0.00  0.00    +0.439 C 
ATOM     35  C   UNL     1       3.996  -6.466  24.574  0.00  0.00    +0.244 C 
ATOM     36  C   UNL     1       4.677  -6.011  23.276  0.00  0.00    +0.183 C 
ATOM     37  C   UNL     1       5.973  -5.325  23.720  0.00  0.00    +0.182 C 
ATOM     38  O   UNL     1       6.224  -5.787  25.063  0.00  0.00    -0.309 OA
BRANCH  34  42
ATOM     39  C   UNL     1       4.021  -2.127  27.158  0.00  0.00    -0.017 A 
ATOM     40  C   UNL     1       2.991  -2.983  26.746  0.00  0.00    +0.104 A 
ATOM     41  C   UNL     1       3.295  -4.298  26.397  0.00  0.00    +0.325 A 
ATOM     42  N   UNL     1       4.572  -4.750  26.385  0.00  0.00    -0.173 N 
ATOM     43  C   UNL     1       5.572  -3.960  26.844  0.00  0.00    +0.312 A 
ATOM     44  C   UNL     1       5.314  -2.654  27.252  0.00  0.00    +0.074 A 
BRANCH  40  45
ATOM     45  C   UNL     1       1.571  -2.557  26.668  0.00  0.00    +0.248 C 
ATOM     46  O   UNL     1       1.095  -2.140  25.610  0.00  0.00    -0.270 OA
ATOM     47  N   UNL     1       0.803  -2.653  27.790  0.00  0.00    -0.325 N 
ATOM     48  H   UNL     1      -0.183  -2.432  27.666  0.00  0.00    +0.145 HD
ATOM     49  H   UNL     1       1.022  -3.193  28.615  0.00  0.00    +0.145 HD
ENDBRANCH  40  45
BRANCH  39  50
ATOM     50  C   UNL     1       3.797  -0.666  27.483  0.00  0.00    +0.110 C 
BRANCH  50  52
ATOM     51  C   UNL     1       5.614   1.141  27.632  0.00  0.00    +0.086 C 
ATOM     52  C   UNL     1       4.740   0.275  26.761  0.00  0.00    +0.135 C 
ATOM     53  O   UNL     1       4.729   0.388  25.534  0.00  0.00    -0.297 OA
ENDBRANCH  50  52
ENDBRANCH  39  50
ENDBRANCH  34  42
BRANCH  36  54
ATOM     54  O   UNL     1       3.849  -5.057  22.610  0.00  0.00    -0.386 OA
ATOM     55  H   UNL     1       3.506  -5.519  21.815  0.00  0.00    +0.210 HD
ENDBRANCH  36  54
BRANCH  35  56
ATOM     56  O   UNL     1       3.821  -7.892  24.624  0.00  0.00    -0.380 OA
ATOM     57  H   UNL     1       4.095  -8.239  25.495  0.00  0.00    +0.210 HD
ENDBRANCH  35  56
ENDBRANCH  33  37
ENDBRANCH  32  33
ENDBRANCH   1  32
TORSDOF 18
ENDMDL
MODEL 8
REMARK VINA RESULT:      -6.7      3.190      7.124
REMARK  Name = 
REMARK  19 active torsions:
REMARK  status: ('A' for Active; 'I' for Inactive)
REMARK    1  A    between atoms: C_1  and  C_2
REMARK    2  A    between atoms: C_2  and  C_4
REMARK    3  A    between atoms: C_4  and  C_5
REMARK    4  A    between atoms: N_8  and  C_14
REMARK    5  A    between atoms: C_10  and  C_11
REMARK    6  A    between atoms: C_17  and  C_19
REMARK    7  A    between atoms: C_19  and  O_20
REMARK    8  A    between atoms: O_20  and  P_21
REMARK    9  A    between atoms: P_21  and  O_24
REMARK   10  A    between atoms: O_24  and  P_25
REMARK   11  A    between atoms: P_25  and  O_26
REMARK   12  A    between atoms: P_25  and  O_28
REMARK   13  A    between atoms: O_28  and  C_29
REMARK   14  A    between atoms: C_29  and  C_30
REMARK   15  A    between atoms: C_33  and  N_41
REMARK   16  A    between atoms: C_35  and  O_37
REMARK   17  A    between atoms: C_38  and  O_40
REMARK   18  A    between atoms: C_51  and  O_53
REMARK   19  A    between atoms: C_54  and  O_56
REMARK                            x       y       z     vdW  Elec       q    Type
REMARK                         _______ _______ _______ _____ _____    ______ ____
ROOT
ATOM      1  P   UNL     1       8.147  -4.014  24.116  0.00  0.00    +0.222 P 
ATOM      2  O   UNL     1       8.739  -3.655  25.702  0.00  0.00    -0.437 OA
ATOM      3  O   UNL     1       8.735  -5.439  24.091  0.00  0.00    -0.517 OA
ENDROOT
BRANCH   1   4
ATOM      4  O   UNL     1       7.555  -4.373  22.531  0.00  0.00    -0.229 OA
BRANCH   4   5
ATOM      5  P   UNL     1       6.099  -4.826  22.030  0.00  0.00    +0.480 P 
ATOM      6  O   UNL     1       6.039  -5.105  20.554  0.00  0.00    -0.227 OA
BRANCH   5   7
ATOM      7  O   UNL     1       5.218  -3.498  22.259  0.00  0.00    -0.302 OA
ATOM      8  H   UNL     1       5.803  -2.854  22.701  0.00  0.00    +0.222 HD
ENDBRANCH   5   7
BRANCH   5   9
ATOM      9  O   UNL     1       5.270  -5.915  22.922  0.00  0.00    -0.284 OA
BRANCH   9  10
ATOM     10  C   UNL     1       3.822  -5.792  23.033  0.00  0.00    +0.206 C 
BRANCH  10  11
ATOM     11  C   UNL     1       3.173  -5.439  24.433  0.00  0.00    +0.178 C 
ATOM     12  C   UNL     1       3.827  -6.258  25.583  0.00  0.00    +0.178 C 
ATOM     13  C   UNL     1       4.913  -5.344  26.163  0.00  0.00    +0.195 C 
ATOM     14  C   UNL     1       4.693  -4.012  25.434  0.00  0.00    +0.253 C 
ATOM     15  O   UNL     1       3.384  -4.062  24.838  0.00  0.00    -0.346 OA
BRANCH  14  16
ATOM     16  N   UNL     1       4.842  -2.870  26.321  0.00  0.00    -0.286 N 
ATOM     17  C   UNL     1       5.219  -1.626  25.887  0.00  0.00    +0.167 A 
ATOM     18  N   UNL     1       5.518  -1.255  24.627  0.00  0.00    -0.216 NA
ATOM     19  C   UNL     1       5.806   0.066  24.579  0.00  0.00    +0.225 A 
ATOM     20  N   UNL     1       5.848   0.950  25.600  0.00  0.00    -0.219 NA
ATOM     21  C   UNL     1       5.580   0.514  26.844  0.00  0.00    +0.147 A 
ATOM     22  N   UNL     1       5.643   1.429  27.890  0.00  0.00    -0.341 N 
ATOM     23  H   UNL     1       5.101   1.154  28.702  0.00  0.00    +0.144 HD
ATOM     24  H   UNL     1       5.548   2.381  27.565  0.00  0.00    +0.144 HD
ATOM     25  C   UNL     1       5.231  -0.833  27.022  0.00  0.00    +0.147 A 
ATOM     26  N   UNL     1       4.872  -1.581  28.135  0.00  0.00    -0.231 NA
ATOM     27  C   UNL     1       4.641  -2.793  27.670  0.00  0.00    +0.203 A 
ENDBRANCH  14  16
BRANCH  13  28
ATOM     28  O   UNL     1       6.219  -5.863  25.903  0.00  0.00    -0.385 OA
ATOM     29  H   UNL     1       6.583  -5.350  25.149  0.00  0.00    +0.210 HD
ENDBRANCH  13  28
BRANCH  12  30
ATOM     30  O   UNL     1       2.869  -6.574  26.611  0.00  0.00    -0.386 OA
ATOM     31  H   UNL     1       2.912  -7.524  26.823  0.00  0.00    +0.210 HD
ENDBRANCH  12  30
ENDBRANCH  10  11
ENDBRANCH   9  10
ENDBRANCH   5   9
ENDBRANCH   4   5
ENDBRANCH   1   4
BRANCH   1  32
ATOM     32  O   UNL     1       9.347  -3.027  23.413  0.00  0.00    -0.324 OA
BRANCH  32  33
ATOM     33  C   UNL     1       8.829  -2.003  22.535  0.00  0.00    +0.202 C 
BRANCH  33  37
ATOM     34  C   UNL     1       9.944   1.405  23.166  0.00  0.00    +0.439 C 
ATOM     35  C   UNL     1      10.338   0.766  24.498  0.00  0.00    +0.244 C 
ATOM     36  C   UNL     1       9.604  -0.582  24.499  0.00  0.00    +0.183 C 
ATOM     37  C   UNL     1       8.837  -0.623  23.172  0.00  0.00    +0.182 C 
ATOM     38  O   UNL     1       9.467   0.356  22.321  0.00  0.00    -0.309 OA
BRANCH  34  42
ATOM     39  C   UNL     1       6.500   3.884  23.551  0.00  0.00    -0.017 A 
ATOM     40  C   UNL     1       7.472   3.879  24.560  0.00  0.00    +0.104 A 
ATOM     41  C   UNL     1       8.659   3.174  24.360  0.00  0.00    +0.325 A 
ATOM     42  N   UNL     1       8.867   2.442  23.239  0.00  0.00    -0.173 N 
ATOM     43  C   UNL     1       7.970   2.489  22.226  0.00  0.00    +0.312 A 
ATOM     44  C   UNL     1       6.792   3.218  22.354  0.00  0.00    +0.074 A 
BRANCH  40  45
ATOM     45  C   UNL     1       7.305   4.600  25.845  0.00  0.00    +0.248 C 
ATOM     46  O   UNL     1       6.954   4.001  26.864  0.00  0.00    -0.270 OA
ATOM     47  N   UNL     1       7.562   5.939  25.876  0.00  0.00    -0.325 N 
ATOM     48  H   UNL     1       7.517   6.373  26.795  0.00  0.00    +0.145 HD
ATOM     49  H   UNL     1       8.074   6.461  25.179  0.00  0.00    +0.145 HD
ENDBRANCH  40  45
BRANCH  39  50
ATOM     50  C   UNL     1       5.153   4.557  23.709  0.00  0.00    +0.110 C 
BRANCH  50  52
ATOM     51  C   UNL     1       3.641   3.684  25.590  0.00  0.00    +0.086 C 
ATOM     52  C   UNL     1       4.045   3.619  24.140  0.00  0.00    +0.135 C 
ATOM     53  O   UNL     1       3.563   2.789  23.367  0.00  0.00    -0.297 OA
ENDBRANCH  50  52
ENDBRANCH  39  50
ENDBRANCH  34  42
BRANCH  36  54
ATOM     54  O   UNL     1       8.670  -0.617  25.578  0.00  0.00    -0.386 OA
ATOM     55  H   UNL     1       8.667  -1.549  25.890  0.00  0.00    +0.210 HD
ENDBRANCH  36  54
BRANCH  35  56
ATOM     56  O   UNL     1      11.765   0.606  24.570  0.00  0.00    -0.380 OA
ATOM     57  H   UNL     1      12.091   0.098  23.802  0.00  0.00    +0.210 HD
ENDBRANCH  35  56
ENDBRANCH  33  37
ENDBRANCH  32  33
ENDBRANCH   1  32
TORSDOF 18
ENDMDL
MODEL 9
REMARK VINA RESULT:      -6.6      1.486      2.590
REMARK  Name = 
REMARK  19 active torsions:
REMARK  status: ('A' for Active; 'I' for Inactive)
REMARK    1  A    between atoms: C_1  and  C_2
REMARK    2  A    between atoms: C_2  and  C_4
REMARK    3  A    between atoms: C_4  and  C_5
REMARK    4  A    between atoms: N_8  and  C_14
REMARK    5  A    between atoms: C_10  and  C_11
REMARK    6  A    between atoms: C_17  and  C_19
REMARK    7  A    between atoms: C_19  and  O_20
REMARK    8  A    between atoms: O_20  and  P_21
REMARK    9  A    between atoms: P_21  and  O_24
REMARK   10  A    between atoms: O_24  and  P_25
REMARK   11  A    between atoms: P_25  and  O_26
REMARK   12  A    between atoms: P_25  and  O_28
REMARK   13  A    between atoms: O_28  and  C_29
REMARK   14  A    between atoms: C_29  and  C_30
REMARK   15  A    between atoms: C_33  and  N_41
REMARK   16  A    between atoms: C_35  and  O_37
REMARK   17  A    between atoms: C_38  and  O_40
REMARK   18  A    between atoms: C_51  and  O_53
REMARK   19  A    between atoms: C_54  and  O_56
REMARK                            x       y       z     vdW  Elec       q    Type
REMARK                         _______ _______ _______ _____ _____    ______ ____
ROOT
ATOM      1  P   UNL     1       6.567   3.888  26.464  0.00  0.00    +0.222 P 
ATOM      2  O   UNL     1       7.589   4.922  27.402  0.00  0.00    -0.437 OA
ATOM      3  O   UNL     1       7.018   2.598  27.177  0.00  0.00    -0.517 OA
ENDROOT
BRANCH   1   4
ATOM      4  O   UNL     1       5.544   2.854  25.527  0.00  0.00    -0.229 OA
BRANCH   4   5
ATOM      5  P   UNL     1       4.352   1.875  25.967  0.00  0.00    +0.480 P 
ATOM      6  O   UNL     1       2.990   2.397  25.605  0.00  0.00    -0.227 OA
BRANCH   5   7
ATOM      7  O   UNL     1       4.426   1.930  27.575  0.00  0.00    -0.302 OA
ATOM      8  H   UNL     1       3.510   2.056  27.887  0.00  0.00    +0.222 HD
ENDBRANCH   5   7
BRANCH   5   9
ATOM      9  O   UNL     1       4.516   0.272  25.697  0.00  0.00    -0.284 OA
BRANCH   9  10
ATOM     10  C   UNL     1       5.690  -0.422  26.210  0.00  0.00    +0.206 C 
BRANCH  10  11
ATOM     11  C   UNL     1       5.521  -1.502  27.355  0.00  0.00    +0.178 C 
ATOM     12  C   UNL     1       4.099  -1.439  27.986  0.00  0.00    +0.178 C 
ATOM     13  C   UNL     1       3.280  -2.499  27.241  0.00  0.00    +0.195 C 
ATOM     14  C   UNL     1       4.318  -3.212  26.366  0.00  0.00    +0.253 C 
ATOM     15  O   UNL     1       5.618  -2.869  26.881  0.00  0.00    -0.346 OA
BRANCH  14  16
ATOM     16  N   UNL     1       4.111  -4.651  26.332  0.00  0.00    -0.286 N 
ATOM     17  C   UNL     1       3.146  -5.253  25.569  0.00  0.00    +0.167 A 
ATOM     18  N   UNL     1       2.249  -4.653  24.761  0.00  0.00    -0.216 NA
ATOM     19  C   UNL     1       1.483  -5.577  24.138  0.00  0.00    +0.225 A 
ATOM     20  N   UNL     1       1.517  -6.921  24.272  0.00  0.00    -0.219 NA
ATOM     21  C   UNL     1       2.407  -7.463  25.124  0.00  0.00    +0.147 A 
ATOM     22  N   UNL     1       2.423  -8.846  25.267  0.00  0.00    -0.341 N 
ATOM     23  H   UNL     1       3.305  -9.207  25.614  0.00  0.00    +0.144 HD
ATOM     24  H   UNL     1       2.006  -9.312  24.474  0.00  0.00    +0.144 HD
ATOM     25  C   UNL     1       3.287  -6.610  25.806  0.00  0.00    +0.147 A 
ATOM     26  N   UNL     1       4.319  -6.835  26.707  0.00  0.00    -0.231 NA
ATOM     27  C   UNL     1       4.790  -5.636  26.990  0.00  0.00    +0.203 A 
ENDBRANCH  14  16
BRANCH  13  28
ATOM     28  O   UNL     1       2.261  -1.895  26.440  0.00  0.00    -0.385 OA
ATOM     29  H   UNL     1       1.405  -2.277  26.736  0.00  0.00    +0.210 HD
ENDBRANCH  13  28
BRANCH  12  30
ATOM     30  O   UNL     1       4.135  -1.761  29.390  0.00  0.00    -0.386 OA
ATOM     31  H   UNL     1       4.449  -2.675  29.512  0.00  0.00    +0.210 HD
ENDBRANCH  12  30
ENDBRANCH  10  11
ENDBRANCH   9  10
ENDBRANCH   5   9
ENDBRANCH   4   5
ENDBRANCH   1   4
BRANCH   1  32
ATOM     32  O   UNL     1       7.602   4.036  25.117  0.00  0.00    -0.324 OA
BRANCH  32  33
ATOM     33  C   UNL     1       8.633   3.028  25.051  0.00  0.00    +0.202 C 
BRANCH  33  37
ATOM     34  C   UNL     1       8.997   0.054  22.982  0.00  0.00    +0.439 C 
ATOM     35  C   UNL     1       8.266   0.957  21.989  0.00  0.00    +0.244 C 
ATOM     36  C   UNL     1       7.739   2.113  22.852  0.00  0.00    +0.183 C 
ATOM     37  C   UNL     1       8.200   1.793  24.278  0.00  0.00    +0.182 C 
ATOM     38  O   UNL     1       9.275   0.842  24.142  0.00  0.00    -0.309 OA
BRANCH  34  42
ATOM     39  C   UNL     1       7.068  -3.666  23.758  0.00  0.00    -0.017 A 
ATOM     40  C   UNL     1       8.242  -3.331  24.447  0.00  0.00    +0.104 A 
ATOM     41  C   UNL     1       8.785  -2.056  24.290  0.00  0.00    +0.325 A 
ATOM     42  N   UNL     1       8.241  -1.155  23.437  0.00  0.00    -0.173 N 
ATOM     43  C   UNL     1       7.071  -1.436  22.815  0.00  0.00    +0.312 A 
ATOM     44  C   UNL     1       6.460  -2.676  22.978  0.00  0.00    +0.074 A 
BRANCH  40  45
ATOM     45  C   UNL     1       8.942  -4.274  25.354  0.00  0.00    +0.248 C 
ATOM     46  O   UNL     1       9.877  -4.965  24.945  0.00  0.00    -0.270 OA
ATOM     47  N   UNL     1       8.536  -4.346  26.653  0.00  0.00    -0.325 N 
ATOM     48  H   UNL     1       9.100  -4.941  27.256  0.00  0.00    +0.145 HD
ATOM     49  H   UNL     1       7.961  -3.669  27.134  0.00  0.00    +0.145 HD
ENDBRANCH  40  45
BRANCH  39  50
ATOM     50  C   UNL     1       6.450  -5.046  23.809  0.00  0.00    +0.110 C 
BRANCH  50  52
ATOM     51  C   UNL     1       6.761  -5.827  21.384  0.00  0.00    +0.086 C 
ATOM     52  C   UNL     1       5.814  -5.482  22.505  0.00  0.00    +0.135 C 
ATOM     53  O   UNL     1       4.592  -5.471  22.345  0.00  0.00    -0.297 OA
ENDBRANCH  50  52
ENDBRANCH  39  50
ENDBRANCH  34  42
BRANCH  36  54
ATOM     54  O   UNL     1       6.312   2.125  22.814  0.00  0.00    -0.386 OA
ATOM     55  H   UNL     1       6.027   2.164  23.754  0.00  0.00    +0.210 HD
ENDBRANCH  36  54
BRANCH  35  56
ATOM     56  O   UNL     1       9.171   1.410  20.969  0.00  0.00    -0.380 OA
ATOM     57  H   UNL     1       9.603   2.243  21.241  0.00  0.00    +0.210 HD
ENDBRANCH  35  56
ENDBRANCH  33  37
ENDBRANCH  32  33
ENDBRANCH   1  32
TORSDOF 18
ENDMDL
