MODEL 1
REMARK VINA RESULT:      -7.0      0.000      0.000
REMARK  Name = 
REMARK  3 active torsions:
REMARK  status: ('A' for Active; 'I' for Inactive)
REMARK    1  A    between atoms: C_2  and  O_3
REMARK    2  A    between atoms: N_9  and  C_14
REMARK    3  A    between atoms: C_17  and  C_18
REMARK                            x       y       z     vdW  Elec       q    Type
REMARK                         _______ _______ _______ _____ _____    ______ ____
ROOT
ATOM      1  C   UNL     1       7.303  -4.351  26.010  0.00  0.00    +0.145 C 
ATOM      2  C   UNL     1       6.981  -3.097  25.208  0.00  0.00    +0.193 C 
ATOM      3  N   UNL     1       7.404  -3.354  23.857  0.00  0.00    -0.271 N 
ATOM      4  C   UNL     1       8.037  -2.244  23.300  0.00  0.00    +0.316 C 
ATOM      5  N   UNL     1       8.061  -1.247  24.257  0.00  0.00    -0.192 N 
ATOM      6  O   UNL     1       8.596  -2.255  22.214  0.00  0.00    -0.252 OA
ATOM      7  C   UNL     1       7.908  -4.689  23.647  0.00  0.00    +0.113 C 
ATOM      8  C   UNL     1       7.692  -1.773  25.477  0.00  0.00    +0.251 C 
ATOM      9  O   UNL     1       7.823  -1.264  26.581  0.00  0.00    -0.273 OA
ATOM     10  C   UNL     1       7.835  -5.381  25.004  0.00  0.00    +0.053 C 
ENDROOT
BRANCH   5  11
ATOM     11  C   UNL     1       8.787  -0.042  24.075  0.00  0.00    +0.053 A 
ATOM     12  C   UNL     1       8.172   1.106  23.492  0.00  0.00    +0.005 A 
ATOM     13  C   UNL     1       8.950   2.280  23.274  0.00  0.00    +0.001 A 
ATOM     14  C   UNL     1       8.324   3.412  22.697  0.00  0.00    +0.010 A 
ATOM     15  C   UNL     1       6.970   3.414  22.360  0.00  0.00    +0.001 A 
ATOM     16  C   UNL     1       6.203   2.289  22.604  0.00  0.00    +0.001 A 
ATOM     17  C   UNL     1      10.317   2.278  23.652  0.00  0.00    +0.060 A 
ATOM     18  C   UNL     1      10.894   1.149  24.243  0.00  0.00    +0.021 A 
ATOM     19  C   UNL     1       6.794   1.157  23.165  0.00  0.00    +0.010 A 
ATOM     20  C   UNL     1      10.133   0.004  24.464  0.00  0.00    +0.026 A 
BRANCH  17  21
ATOM     21  C   UNL     1      11.158   3.430  23.458  0.00  0.00    +0.100 C 
ATOM     22  N   UNL     1      11.835   4.361  23.306  0.00  0.00    -0.191 NA
ENDBRANCH  17  21
ENDBRANCH   5  11
BRANCH   1  23
ATOM     23  O   UNL     1       8.223  -4.195  27.078  0.00  0.00    -0.389 OA
ATOM     24  H   UNL     1       8.595  -3.297  27.075  0.00  0.00    +0.210 HD
ENDBRANCH   1  23
TORSDOF 3
ENDMDL
MODEL 2
REMARK VINA RESULT:      -6.9      2.259      6.827
REMARK  Name = 
REMARK  3 active torsions:
REMARK  status: ('A' for Active; 'I' for Inactive)
REMARK    1  A    between atoms: C_2  and  O_3
REMARK    2  A    between atoms: N_9  and  C_14
REMARK    3  A    between atoms: C_17  and  C_18
REMARK                            x       y       z     vdW  Elec       q    Type
REMARK                         _______ _______ _______ _____ _____    ______ ____
ROOT
ATOM      1  C   UNL     1      10.381   1.132  23.458  0.00  0.00    +0.145 C 
ATOM      2  C   UNL     1       9.364   0.108  22.971  0.00  0.00    +0.193 C 
ATOM      3  N   UNL     1       8.064   0.645  23.274  0.00  0.00    -0.271 N 
ATOM      4  C   UNL     1       7.208  -0.337  23.770  0.00  0.00    +0.316 C 
ATOM      5  N   UNL     1       7.913  -1.526  23.820  0.00  0.00    -0.192 N 
ATOM      6  O   UNL     1       6.096  -0.105  24.218  0.00  0.00    -0.252 OA
ATOM      7  C   UNL     1       8.098   1.969  23.847  0.00  0.00    +0.113 C 
ATOM      8  C   UNL     1       9.253  -1.273  23.612  0.00  0.00    +0.251 C 
ATOM      9  O   UNL     1      10.195  -2.025  23.816  0.00  0.00    -0.273 OA
ATOM     10  C   UNL     1       9.574   2.338  23.957  0.00  0.00    +0.053 C 
ENDROOT
BRANCH   5  11
ATOM     11  C   UNL     1       7.389  -2.690  24.440  0.00  0.00    +0.053 A 
ATOM     12  C   UNL     1       6.808  -3.737  23.664  0.00  0.00    +0.005 A 
ATOM     13  C   UNL     1       6.242  -4.865  24.327  0.00  0.00    +0.001 A 
ATOM     14  C   UNL     1       5.672  -5.897  23.542  0.00  0.00    +0.010 A 
ATOM     15  C   UNL     1       5.670  -5.848  22.148  0.00  0.00    +0.001 A 
ATOM     16  C   UNL     1       6.251  -4.772  21.501  0.00  0.00    +0.001 A 
ATOM     17  C   UNL     1       6.280  -4.920  25.743  0.00  0.00    +0.060 A 
ATOM     18  C   UNL     1       6.876  -3.892  26.483  0.00  0.00    +0.021 A 
ATOM     19  C   UNL     1       6.814  -3.737  22.247  0.00  0.00    +0.010 A 
ATOM     20  C   UNL     1       7.436  -2.794  25.837  0.00  0.00    +0.026 A 
BRANCH  17  21
ATOM     21  C   UNL     1       5.726  -6.029  26.473  0.00  0.00    +0.100 C 
ATOM     22  N   UNL     1       5.280  -6.922  27.066  0.00  0.00    -0.191 NA
ENDBRANCH  17  21
ENDBRANCH   5  11
BRANCH   1  23
ATOM     23  O   UNL     1      11.278   0.696  24.466  0.00  0.00    -0.389 OA
ATOM     24  H   UNL     1      11.162   1.226  25.273  0.00  0.00    +0.210 HD
ENDBRANCH   1  23
TORSDOF 3
ENDMDL
MODEL 3
REMARK VINA RESULT:      -6.9      2.665      4.740
REMARK  Name = 
REMARK  3 active torsions:
REMARK  status: ('A' for Active; 'I' for Inactive)
REMARK    1  A    between atoms: C_2  and  O_3
REMARK    2  A    between atoms: N_9  and  C_14
REMARK    3  A    between atoms: C_17  and  C_18
REMARK                            x       y       z     vdW  Elec       q    Type
REMARK                         _______ _______ _______ _____ _____    ______ ____
ROOT
ATOM      1  C   UNL     1      10.424  -1.583  22.800  0.00  0.00    +0.145 C 
ATOM      2  C   UNL     1      10.395  -0.176  23.383  0.00  0.00    +0.193 C 
ATOM      3  N   UNL     1       9.617  -0.248  24.591  0.00  0.00    -0.271 N 
ATOM      4  C   UNL     1       8.761   0.846  24.713  0.00  0.00    +0.316 C 
ATOM      5  N   UNL     1       8.940   1.648  23.601  0.00  0.00    -0.192 N 
ATOM      6  O   UNL     1       7.911   0.949  25.584  0.00  0.00    -0.252 OA
ATOM      7  C   UNL     1       9.182  -1.582  24.926  0.00  0.00    +0.113 C 
ATOM      8  C   UNL     1       9.691   0.971  22.663  0.00  0.00    +0.251 C 
ATOM      9  O   UNL     1       9.849   1.257  21.486  0.00  0.00    -0.273 OA
ATOM     10  C   UNL     1       9.705  -2.484  23.813  0.00  0.00    +0.053 C 
ENDROOT
BRANCH   5  11
ATOM     11  C   UNL     1       8.098   2.756  23.326  0.00  0.00    +0.053 A 
ATOM     12  C   UNL     1       8.555   4.093  23.522  0.00  0.00    +0.005 A 
ATOM     13  C   UNL     1       7.661   5.179  23.289  0.00  0.00    +0.001 A 
ATOM     14  C   UNL     1       8.132   6.500  23.485  0.00  0.00    +0.010 A 
ATOM     15  C   UNL     1       9.444   6.764  23.878  0.00  0.00    +0.001 A 
ATOM     16  C   UNL     1      10.325   5.715  24.071  0.00  0.00    +0.001 A 
ATOM     17  C   UNL     1       6.340   4.899  22.857  0.00  0.00    +0.060 A 
ATOM     18  C   UNL     1       5.920   3.581  22.648  0.00  0.00    +0.021 A 
ATOM     19  C   UNL     1       9.888   4.403  23.891  0.00  0.00    +0.010 A 
ATOM     20  C   UNL     1       6.794   2.520  22.869  0.00  0.00    +0.026 A 
BRANCH  17  21
ATOM     21  C   UNL     1       5.388   5.948  22.604  0.00  0.00    +0.100 C 
ATOM     22  N   UNL     1       4.618   6.793  22.396  0.00  0.00    -0.191 NA
ENDBRANCH  17  21
ENDBRANCH   5  11
BRANCH   1  23
ATOM     23  O   UNL     1       9.849  -1.742  21.514  0.00  0.00    -0.389 OA
ATOM     24  H   UNL     1       9.830  -2.682  21.267  0.00  0.00    +0.210 HD
ENDBRANCH   1  23
TORSDOF 3
ENDMDL
MODEL 4
REMARK VINA RESULT:      -6.8      2.205      6.606
REMARK  Name = 
REMARK  3 active torsions:
REMARK  status: ('A' for Active; 'I' for Inactive)
REMARK    1  A    between atoms: C_2  and  O_3
REMARK    2  A    between atoms: N_9  and  C_14
REMARK    3  A    between atoms: C_17  and  C_18
REMARK                            x       y       z     vdW  Elec       q    Type
REMARK                         _______ _______ _______ _____ _____    ______ ____
ROOT
ATOM      1  C   UNL     1       9.928   2.396  22.749  0.00  0.00    +0.145 C 
ATOM      2  C   UNL     1       9.158   1.107  22.492  0.00  0.00    +0.193 C 
ATOM      3  N   UNL     1       7.792   1.364  22.863  0.00  0.00    -0.271 N 
ATOM      4  C   UNL     1       7.239   0.288  23.556  0.00  0.00    +0.316 C 
ATOM      5  N   UNL     1       8.214  -0.686  23.670  0.00  0.00    -0.192 N 
ATOM      6  O   UNL     1       6.139   0.315  24.086  0.00  0.00    -0.252 OA
ATOM      7  C   UNL     1       7.544   2.726  23.271  0.00  0.00    +0.113 C 
ATOM      8  C   UNL     1       9.433  -0.160  23.297  0.00  0.00    +0.251 C 
ATOM      9  O   UNL     1      10.542  -0.638  23.489  0.00  0.00    -0.273 OA
ATOM     10  C   UNL     1       8.890   3.438  23.185  0.00  0.00    +0.053 C 
ENDROOT
BRANCH   5  11
ATOM     11  C   UNL     1       8.036  -1.843  24.472  0.00  0.00    +0.053 A 
ATOM     12  C   UNL     1       7.533  -3.055  23.911  0.00  0.00    +0.005 A 
ATOM     13  C   UNL     1       7.315  -4.179  24.760  0.00  0.00    +0.001 A 
ATOM     14  C   UNL     1       6.819  -5.376  24.187  0.00  0.00    +0.010 A 
ATOM     15  C   UNL     1       6.561  -5.487  22.820  0.00  0.00    +0.001 A 
ATOM     16  C   UNL     1       6.807  -4.410  21.988  0.00  0.00    +0.001 A 
ATOM     17  C   UNL     1       7.612  -4.065  26.141  0.00  0.00    +0.060 A 
ATOM     18  C   UNL     1       8.125  -2.873  26.666  0.00  0.00    +0.021 A 
ATOM     19  C   UNL     1       7.289  -3.217  22.524  0.00  0.00    +0.010 A 
ATOM     20  C   UNL     1       8.347  -1.777  25.837  0.00  0.00    +0.026 A 
BRANCH  17  21
ATOM     21  C   UNL     1       7.413  -5.160  27.052  0.00  0.00    +0.100 C 
ATOM     22  N   UNL     1       7.251  -6.042  27.791  0.00  0.00    -0.191 NA
ENDBRANCH  17  21
ENDBRANCH   5  11
BRANCH   1  23
ATOM     23  O   UNL     1      10.975   2.323  23.703  0.00  0.00    -0.389 OA
ATOM     24  H   UNL     1      11.607   3.049  23.566  0.00  0.00    +0.210 HD
ENDBRANCH   1  23
TORSDOF 3
ENDMDL
MODEL 5
REMARK VINA RESULT:      -6.8      2.327      7.101
REMARK  Name = 
REMARK  3 active torsions:
REMARK  status: ('A' for Active; 'I' for Inactive)
REMARK    1  A    between atoms: C_2  and  O_3
REMARK    2  A    between atoms: N_9  and  C_14
REMARK    3  A    between atoms: C_17  and  C_18
REMARK                            x       y       z     vdW  Elec       q    Type
REMARK                         _______ _______ _______ _____ _____    ______ ____
ROOT
ATOM      1  C   UNL     1       9.904   0.818  22.908  0.00  0.00    +0.145 C 
ATOM      2  C   UNL     1       8.591   0.185  22.467  0.00  0.00    +0.193 C 
ATOM      3  N   UNL     1       7.570   0.715  23.332  0.00  0.00    -0.271 N 
ATOM      4  C   UNL     1       6.670  -0.274  23.725  0.00  0.00    +0.316 C 
ATOM      5  N   UNL     1       7.074  -1.466  23.153  0.00  0.00    -0.192 N 
ATOM      6  O   UNL     1       5.792  -0.101  24.557  0.00  0.00    -0.252 OA
ATOM      7  C   UNL     1       8.050   1.706  24.263  0.00  0.00    +0.113 C 
ATOM      8  C   UNL     1       8.337  -1.313  22.619  0.00  0.00    +0.251 C 
ATOM      9  O   UNL     1       9.104  -2.191  22.251  0.00  0.00    -0.273 OA
ATOM     10  C   UNL     1       9.548   1.828  24.007  0.00  0.00    +0.053 C 
ENDROOT
BRANCH   5  11
ATOM     11  C   UNL     1       6.477  -2.708  23.489  0.00  0.00    +0.053 A 
ATOM     12  C   UNL     1       6.946  -3.471  24.600  0.00  0.00    +0.005 A 
ATOM     13  C   UNL     1       6.357  -4.741  24.872  0.00  0.00    +0.001 A 
ATOM     14  C   UNL     1       6.832  -5.485  25.980  0.00  0.00    +0.010 A 
ATOM     15  C   UNL     1       7.837  -5.001  26.817  0.00  0.00    +0.001 A 
ATOM     16  C   UNL     1       8.385  -3.754  26.577  0.00  0.00    +0.001 A 
ATOM     17  C   UNL     1       5.313  -5.208  24.034  0.00  0.00    +0.060 A 
ATOM     18  C   UNL     1       4.853  -4.431  22.964  0.00  0.00    +0.021 A 
ATOM     19  C   UNL     1       7.943  -3.001  25.490  0.00  0.00    +0.010 A 
ATOM     20  C   UNL     1       5.421  -3.188  22.702  0.00  0.00    +0.026 A 
BRANCH  17  21
ATOM     21  C   UNL     1       4.677  -6.480  24.254  0.00  0.00    +0.100 C 
ATOM     22  N   UNL     1       4.162  -7.506  24.427  0.00  0.00    -0.191 NA
ENDBRANCH  17  21
ENDBRANCH   5  11
BRANCH   1  23
ATOM     23  O   UNL     1      10.907  -0.071  23.372  0.00  0.00    -0.389 OA
ATOM     24  H   UNL     1      11.337   0.289  24.165  0.00  0.00    +0.210 HD
ENDBRANCH   1  23
TORSDOF 3
ENDMDL
MODEL 6
REMARK VINA RESULT:      -6.7      2.389      6.249
REMARK  Name = 
REMARK  3 active torsions:
REMARK  status: ('A' for Active; 'I' for Inactive)
REMARK    1  A    between atoms: C_2  and  O_3
REMARK    2  A    between atoms: N_9  and  C_14
REMARK    3  A    between atoms: C_17  and  C_18
REMARK                            x       y       z     vdW  Elec       q    Type
REMARK                         _______ _______ _______ _____ _____    ______ ____
ROOT
ATOM      1  C   UNL     1      10.224   1.540  23.269  0.00  0.00    +0.145 C 
ATOM      2  C   UNL     1      10.514   0.080  23.593  0.00  0.00    +0.193 C 
ATOM      3  N   UNL     1       9.987  -0.695  22.501  0.00  0.00    -0.271 N 
ATOM      4  C   UNL     1       9.339  -1.843  22.957  0.00  0.00    +0.316 C 
ATOM      5  N   UNL     1       9.409  -1.848  24.337  0.00  0.00    -0.192 N 
ATOM      6  O   UNL     1       8.701  -2.593  22.235  0.00  0.00    -0.252 OA
ATOM      7  C   UNL     1       9.438   0.101  21.431  0.00  0.00    +0.113 C 
ATOM      8  C   UNL     1       9.855  -0.619  24.778  0.00  0.00    +0.251 C 
ATOM      9  O   UNL     1       9.818  -0.176  25.917  0.00  0.00    -0.273 OA
ATOM     10  C   UNL     1       9.596   1.553  21.868  0.00  0.00    +0.053 C 
ENDROOT
BRANCH   5  11
ATOM     11  C   UNL     1       8.698  -2.788  25.127  0.00  0.00    +0.053 A 
ATOM     12  C   UNL     1       7.358  -2.532  25.546  0.00  0.00    +0.005 A 
ATOM     13  C   UNL     1       6.697  -3.476  26.386  0.00  0.00    +0.001 A 
ATOM     14  C   UNL     1       5.367  -3.208  26.790  0.00  0.00    +0.010 A 
ATOM     15  C   UNL     1       4.685  -2.065  26.374  0.00  0.00    +0.001 A 
ATOM     16  C   UNL     1       5.311  -1.165  25.529  0.00  0.00    +0.001 A 
ATOM     17  C   UNL     1       7.388  -4.651  26.775  0.00  0.00    +0.060 A 
ATOM     18  C   UNL     1       8.694  -4.892  26.333  0.00  0.00    +0.021 A 
ATOM     19  C   UNL     1       6.623  -1.398  25.119  0.00  0.00    +0.010 A 
ATOM     20  C   UNL     1       9.338  -3.976  25.507  0.00  0.00    +0.026 A 
BRANCH  17  21
ATOM     21  C   UNL     1       6.779  -5.642  27.622  0.00  0.00    +0.100 C 
ATOM     22  N   UNL     1       6.291  -6.442  28.308  0.00  0.00    -0.191 NA
ENDBRANCH  17  21
ENDBRANCH   5  11
BRANCH   1  23
ATOM     23  O   UNL     1       9.391   2.233  24.182  0.00  0.00    -0.389 OA
ATOM     24  H   UNL     1       9.677   3.159  24.265  0.00  0.00    +0.210 HD
ENDBRANCH   1  23
TORSDOF 3
ENDMDL
MODEL 7
REMARK VINA RESULT:      -6.7      2.276      6.692
REMARK  Name = 
REMARK  3 active torsions:
REMARK  status: ('A' for Active; 'I' for Inactive)
REMARK    1  A    between atoms: C_2  and  O_3
REMARK    2  A    between atoms: N_9  and  C_14
REMARK    3  A    between atoms: C_17  and  C_18
REMARK                            x       y       z     vdW  Elec       q    Type
REMARK                         _______ _______ _______ _____ _____    ______ ____
ROOT
ATOM      1  C   UNL     1       8.382   1.426  22.621  0.00  0.00    +0.145 C 
ATOM      2  C   UNL     1       8.701   0.546  23.822  0.00  0.00    +0.193 C 
ATOM      3  N   UNL     1       9.709  -0.386  23.391  0.00  0.00    -0.271 N 
ATOM      4  C   UNL     1       9.460  -1.669  23.878  0.00  0.00    +0.316 C 
ATOM      5  N   UNL     1       8.294  -1.621  24.619  0.00  0.00    -0.192 N 
ATOM      6  O   UNL     1      10.099  -2.656  23.548  0.00  0.00    -0.252 OA
ATOM      7  C   UNL     1      10.162  -0.172  22.038  0.00  0.00    +0.113 C 
ATOM      8  C   UNL     1       7.665  -0.411  24.406  0.00  0.00    +0.251 C 
ATOM      9  O   UNL     1       6.518  -0.105  24.696  0.00  0.00    -0.273 OA
ATOM     10  C   UNL     1       9.354   1.007  21.509  0.00  0.00    +0.053 C 
ENDROOT
BRANCH   5  11
ATOM     11  C   UNL     1       7.663  -2.792  25.113  0.00  0.00    +0.053 A 
ATOM     12  C   UNL     1       6.860  -3.608  24.261  0.00  0.00    +0.005 A 
ATOM     13  C   UNL     1       6.197  -4.745  24.808  0.00  0.00    +0.001 A 
ATOM     14  C   UNL     1       5.406  -5.547  23.949  0.00  0.00    +0.010 A 
ATOM     15  C   UNL     1       5.278  -5.266  22.589  0.00  0.00    +0.001 A 
ATOM     16  C   UNL     1       5.950  -4.185  22.048  0.00  0.00    +0.001 A 
ATOM     17  C   UNL     1       6.361  -5.040  26.185  0.00  0.00    +0.060 A 
ATOM     18  C   UNL     1       7.172  -4.238  26.996  0.00  0.00    +0.021 A 
ATOM     19  C   UNL     1       6.731  -3.373  22.870  0.00  0.00    +0.010 A 
ATOM     20  C   UNL     1       7.827  -3.132  26.463  0.00  0.00    +0.026 A 
BRANCH  17  21
ATOM     21  C   UNL     1       5.718  -6.171  26.799  0.00  0.00    +0.100 C 
ATOM     22  N   UNL     1       5.200  -7.087  27.291  0.00  0.00    -0.191 NA
ENDBRANCH  17  21
ENDBRANCH   5  11
BRANCH   1  23
ATOM     23  O   UNL     1       7.048   1.378  22.143  0.00  0.00    -0.389 OA
ATOM     24  H   UNL     1       6.640   2.259  22.191  0.00  0.00    +0.210 HD
ENDBRANCH   1  23
TORSDOF 3
ENDMDL
MODEL 8
REMARK VINA RESULT:      -6.7      1.260      2.422
REMARK  Name = 
REMARK  3 active torsions:
REMARK  status: ('A' for Active; 'I' for Inactive)
REMARK    1  A    between atoms: C_2  and  O_3
REMARK    2  A    between atoms: N_9  and  C_14
REMARK    3  A    between atoms: C_17  and  C_18
REMARK                            x       y       z     vdW  Elec       q    Type
REMARK                         _______ _______ _______ _____ _____    ______ ____
ROOT
ATOM      1  C   UNL     1       5.890  -3.981  22.796  0.00  0.00    +0.145 C 
ATOM      2  C   UNL     1       7.095  -3.435  23.551  0.00  0.00    +0.193 C 
ATOM      3  N   UNL     1       6.587  -2.834  24.755  0.00  0.00    -0.271 N 
ATOM      4  C   UNL     1       7.223  -1.624  25.030  0.00  0.00    +0.316 C 
ATOM      5  N   UNL     1       8.142  -1.392  24.024  0.00  0.00    -0.192 N 
ATOM      6  O   UNL     1       6.881  -0.865  25.924  0.00  0.00    -0.252 OA
ATOM      7  C   UNL     1       5.163  -2.990  24.930  0.00  0.00    +0.113 C 
ATOM      8  C   UNL     1       7.930  -2.285  22.994  0.00  0.00    +0.251 C 
ATOM      9  O   UNL     1       8.379  -2.235  21.858  0.00  0.00    -0.273 OA
ATOM     10  C   UNL     1       4.673  -3.751  23.703  0.00  0.00    +0.053 C 
ENDROOT
BRANCH   5  11
ATOM     11  C   UNL     1       8.839  -0.162  23.906  0.00  0.00    +0.053 A 
ATOM     12  C   UNL     1       8.217   0.981  23.321  0.00  0.00    +0.005 A 
ATOM     13  C   UNL     1       8.969   2.183  23.168  0.00  0.00    +0.001 A 
ATOM     14  C   UNL     1       8.337   3.310  22.588  0.00  0.00    +0.010 A 
ATOM     15  C   UNL     1       7.001   3.280  22.186  0.00  0.00    +0.001 A 
ATOM     16  C   UNL     1       6.258   2.127  22.366  0.00  0.00    +0.001 A 
ATOM     17  C   UNL     1      10.316   2.212  23.611  0.00  0.00    +0.060 A 
ATOM     18  C   UNL     1      10.898   1.086  24.203  0.00  0.00    +0.021 A 
ATOM     19  C   UNL     1       6.856   0.999  22.928  0.00  0.00    +0.010 A 
ATOM     20  C   UNL     1      10.163  -0.086  24.360  0.00  0.00    +0.026 A 
BRANCH  17  21
ATOM     21  C   UNL     1      11.129   3.392  23.485  0.00  0.00    +0.100 C 
ATOM     22  N   UNL     1      11.789   4.343  23.387  0.00  0.00    -0.191 NA
ENDBRANCH  17  21
ENDBRANCH   5  11
BRANCH   1  23
ATOM     23  O   UNL     1       5.650  -3.431  21.512  0.00  0.00    -0.389 OA
ATOM     24  H   UNL     1       4.961  -2.747  21.561  0.00  0.00    +0.210 HD
ENDBRANCH   1  23
TORSDOF 3
ENDMDL
MODEL 9
REMARK VINA RESULT:      -6.6      3.911      5.720
REMARK  Name = 
REMARK  3 active torsions:
REMARK  status: ('A' for Active; 'I' for Inactive)
REMARK    1  A    between atoms: C_2  and  O_3
REMARK    2  A    between atoms: N_9  and  C_14
REMARK    3  A    between atoms: C_17  and  C_18
REMARK                            x       y       z     vdW  Elec       q    Type
REMARK                         _______ _______ _______ _____ _____    ______ ____
ROOT
ATOM      1  C   UNL     1       4.765  -6.707  29.066  0.00  0.00    +0.145 C 
ATOM      2  C   UNL     1       5.436  -5.356  28.855  0.00  0.00    +0.193 C 
ATOM      3  N   UNL     1       4.439  -4.485  28.291  0.00  0.00    -0.271 N 
ATOM      4  C   UNL     1       4.969  -3.697  27.270  0.00  0.00    +0.316 C 
ATOM      5  N   UNL     1       6.302  -4.031  27.127  0.00  0.00    -0.192 N 
ATOM      6  O   UNL     1       4.295  -2.973  26.553  0.00  0.00    -0.252 OA
ATOM      7  C   UNL     1       3.135  -5.091  28.172  0.00  0.00    +0.113 C 
ATOM      8  C   UNL     1       6.568  -5.177  27.847  0.00  0.00    +0.251 C 
ATOM      9  O   UNL     1       7.556  -5.892  27.773  0.00  0.00    -0.273 OA
ATOM     10  C   UNL     1       3.289  -6.518  28.688  0.00  0.00    +0.053 C 
ENDROOT
BRANCH   5  11
ATOM     11  C   UNL     1       7.094  -3.538  26.058  0.00  0.00    +0.053 A 
ATOM     12  C   UNL     1       7.027  -4.128  24.761  0.00  0.00    +0.005 A 
ATOM     13  C   UNL     1       7.880  -3.641  23.727  0.00  0.00    +0.001 A 
ATOM     14  C   UNL     1       7.799  -4.236  22.445  0.00  0.00    +0.010 A 
ATOM     15  C   UNL     1       6.898  -5.263  22.164  0.00  0.00    +0.001 A 
ATOM     16  C   UNL     1       6.043  -5.713  23.154  0.00  0.00    +0.001 A 
ATOM     17  C   UNL     1       8.768  -2.574  24.015  0.00  0.00    +0.060 A 
ATOM     18  C   UNL     1       8.801  -1.995  25.289  0.00  0.00    +0.021 A 
ATOM     19  C   UNL     1       6.105  -5.151  24.429  0.00  0.00    +0.010 A 
ATOM     20  C   UNL     1       7.963  -2.464  26.297  0.00  0.00    +0.026 A 
BRANCH  17  21
ATOM     21  C   UNL     1       9.656  -2.037  23.018  0.00  0.00    +0.100 C 
ATOM     22  N   UNL     1      10.376  -1.605  22.216  0.00  0.00    -0.191 NA
ENDBRANCH  17  21
ENDBRANCH   5  11
BRANCH   1  23
ATOM     23  O   UNL     1       5.314  -7.800  28.349  0.00  0.00    -0.389 OA
ATOM     24  H   UNL     1       6.192  -8.027  28.699  0.00  0.00    +0.210 HD
ENDBRANCH   1  23
TORSDOF 3
ENDMDL
