MODEL 1
REMARK VINA RESULT:      -4.6      0.000      0.000
REMARK  Name = 
REMARK  3 active torsions:
REMARK  status: ('A' for Active; 'I' for Inactive)
REMARK    1  A    between atoms: C_2  and  C_11
REMARK    2  A    between atoms: C_8  and  C_9
REMARK    3  A    between atoms: C_11  and  O_12
REMARK                            x       y       z     vdW  Elec       q    Type
REMARK                         _______ _______ _______ _____ _____    ______ ____
ROOT
ATOM      1  C   UNL     1       8.012  -5.202  24.465  0.00  0.00    +0.184 C 
ATOM      2  N   UNL     1       6.909  -5.110  25.460  0.00  0.00    -0.288 N 
ATOM      3  C   UNL     1       7.250  -5.065  26.811  0.00  0.00    +0.213 C 
ATOM      4  O   UNL     1       8.408  -4.878  27.184  0.00  0.00    -0.276 OA
ATOM      5  C   UNL     1       6.167  -5.252  27.848  0.00  0.00    +0.109 C 
ATOM      6  C   UNL     1       5.652  -5.746  25.049  0.00  0.00    +0.108 C 
ATOM      7  C   UNL     1       5.169  -5.294  23.678  0.00  0.00    +0.019 C 
ATOM      8  C   UNL     1       6.248  -5.479  22.627  0.00  0.00    +0.004 C 
ATOM      9  C   UNL     1       7.520  -4.767  23.063  0.00  0.00    +0.034 C 
ENDROOT
BRANCH   1  10
ATOM     10  C   UNL     1       9.331  -4.407  24.690  0.00  0.00    +0.325 C 
ATOM     11  O   UNL     1       9.482  -3.213  24.481  0.00  0.00    -0.249 OA
BRANCH  10  12
ATOM     12  O   UNL     1      10.369  -5.199  25.060  0.00  0.00    -0.479 OA
ATOM     13  H   UNL     1      11.113  -4.636  25.375  0.00  0.00    +0.295 HD
ENDBRANCH  10  12
ENDBRANCH   1  10
TORSDOF 2
ENDMDL
MODEL 2
REMARK VINA RESULT:      -4.6      2.192      3.118
REMARK  Name = 
REMARK  3 active torsions:
REMARK  status: ('A' for Active; 'I' for Inactive)
REMARK    1  A    between atoms: C_2  and  C_11
REMARK    2  A    between atoms: C_8  and  C_9
REMARK    3  A    between atoms: C_11  and  O_12
REMARK                            x       y       z     vdW  Elec       q    Type
REMARK                         _______ _______ _______ _____ _____    ______ ____
ROOT
ATOM      1  C   UNL     1       7.870  -3.035  22.617  0.00  0.00    +0.184 C 
ATOM      2  N   UNL     1       7.982  -3.798  23.890  0.00  0.00    -0.288 N 
ATOM      3  C   UNL     1       9.240  -3.904  24.480  0.00  0.00    +0.213 C 
ATOM      4  O   UNL     1      10.193  -3.218  24.110  0.00  0.00    -0.276 OA
ATOM      5  C   UNL     1       9.443  -4.892  25.605  0.00  0.00    +0.109 C 
ATOM      6  C   UNL     1       7.014  -4.891  24.042  0.00  0.00    +0.108 C 
ATOM      7  C   UNL     1       5.574  -4.456  23.808  0.00  0.00    +0.019 C 
ATOM      8  C   UNL     1       5.419  -3.767  22.465  0.00  0.00    +0.004 C 
ATOM      9  C   UNL     1       6.403  -2.611  22.362  0.00  0.00    +0.034 C 
ENDROOT
BRANCH   1  10
ATOM     10  C   UNL     1       8.702  -1.736  22.414  0.00  0.00    +0.325 C 
ATOM     11  O   UNL     1       8.450  -0.649  22.911  0.00  0.00    -0.249 OA
BRANCH  10  12
ATOM     12  O   UNL     1       9.718  -1.892  21.526  0.00  0.00    -0.479 OA
ATOM     13  H   UNL     1       9.703  -1.149  20.880  0.00  0.00    +0.295 HD
ENDBRANCH  10  12
ENDBRANCH   1  10
TORSDOF 2
ENDMDL
MODEL 3
REMARK VINA RESULT:      -4.5      1.943      3.456
REMARK  Name = 
REMARK  3 active torsions:
REMARK  status: ('A' for Active; 'I' for Inactive)
REMARK    1  A    between atoms: C_2  and  C_11
REMARK    2  A    between atoms: C_8  and  C_9
REMARK    3  A    between atoms: C_11  and  O_12
REMARK                            x       y       z     vdW  Elec       q    Type
REMARK                         _______ _______ _______ _____ _____    ______ ____
ROOT
ATOM      1  C   UNL     1       7.730  -4.079  24.375  0.00  0.00    +0.184 C 
ATOM      2  N   UNL     1       8.100  -3.308  23.158  0.00  0.00    -0.288 N 
ATOM      3  C   UNL     1       9.263  -2.541  23.199  0.00  0.00    +0.213 C 
ATOM      4  O   UNL     1      10.087  -2.656  24.105  0.00  0.00    -0.276 OA
ATOM      5  C   UNL     1       9.520  -1.537  22.099  0.00  0.00    +0.109 C 
ATOM      6  C   UNL     1       6.964  -2.862  22.341  0.00  0.00    +0.108 C 
ATOM      7  C   UNL     1       6.002  -3.986  21.985  0.00  0.00    +0.019 C 
ATOM      8  C   UNL     1       5.531  -4.720  23.226  0.00  0.00    +0.004 C 
ATOM      9  C   UNL     1       6.731  -5.209  24.023  0.00  0.00    +0.034 C 
ENDROOT
BRANCH   1  10
ATOM     10  C   UNL     1       8.836  -4.774  25.222  0.00  0.00    +0.325 C 
ATOM     11  O   UNL     1       9.075  -4.545  26.398  0.00  0.00    -0.249 OA
BRANCH  10  12
ATOM     12  O   UNL     1       9.607  -5.620  24.492  0.00  0.00    -0.479 OA
ATOM     13  H   UNL     1      10.525  -5.614  24.849  0.00  0.00    +0.295 HD
ENDBRANCH  10  12
ENDBRANCH   1  10
TORSDOF 2
ENDMDL
MODEL 4
REMARK VINA RESULT:      -4.5      1.820      2.664
REMARK  Name = 
REMARK  3 active torsions:
REMARK  status: ('A' for Active; 'I' for Inactive)
REMARK    1  A    between atoms: C_2  and  C_11
REMARK    2  A    between atoms: C_8  and  C_9
REMARK    3  A    between atoms: C_11  and  O_12
REMARK                            x       y       z     vdW  Elec       q    Type
REMARK                         _______ _______ _______ _____ _____    ______ ____
ROOT
ATOM      1  C   UNL     1       7.099  -5.276  25.277  0.00  0.00    +0.184 C 
ATOM      2  N   UNL     1       5.736  -5.717  24.873  0.00  0.00    -0.288 N 
ATOM      3  C   UNL     1       5.046  -6.575  25.728  0.00  0.00    +0.213 C 
ATOM      4  O   UNL     1       5.428  -6.793  26.878  0.00  0.00    -0.276 OA
ATOM      5  C   UNL     1       3.795  -7.259  25.230  0.00  0.00    +0.109 C 
ATOM      6  C   UNL     1       5.521  -5.809  23.424  0.00  0.00    +0.108 C 
ATOM      7  C   UNL     1       5.912  -4.542  22.676  0.00  0.00    +0.019 C 
ATOM      8  C   UNL     1       7.339  -4.134  22.995  0.00  0.00    +0.004 C 
ATOM      9  C   UNL     1       7.512  -4.001  24.501  0.00  0.00    +0.034 C 
ENDROOT
BRANCH   1  10
ATOM     10  C   UNL     1       7.401  -4.952  26.768  0.00  0.00    +0.325 C 
ATOM     11  O   UNL     1       7.114  -3.909  27.338  0.00  0.00    -0.249 OA
BRANCH  10  12
ATOM     12  O   UNL     1       8.124  -5.922  27.384  0.00  0.00    -0.479 OA
ATOM     13  H   UNL     1       7.510  -6.566  27.807  0.00  0.00    +0.295 HD
ENDBRANCH  10  12
ENDBRANCH   1  10
TORSDOF 2
ENDMDL
MODEL 5
REMARK VINA RESULT:      -4.5      4.849      5.907
REMARK  Name = 
REMARK  3 active torsions:
REMARK  status: ('A' for Active; 'I' for Inactive)
REMARK    1  A    between atoms: C_2  and  C_11
REMARK    2  A    between atoms: C_8  and  C_9
REMARK    3  A    between atoms: C_11  and  O_12
REMARK                            x       y       z     vdW  Elec       q    Type
REMARK                         _______ _______ _______ _____ _____    ______ ____
ROOT
ATOM      1  C   UNL     1       9.092  -0.197  22.995  0.00  0.00    +0.184 C 
ATOM      2  N   UNL     1       9.171   0.071  24.457  0.00  0.00    -0.288 N 
ATOM      3  C   UNL     1       8.861  -0.970  25.330  0.00  0.00    +0.213 C 
ATOM      4  O   UNL     1       8.745  -2.132  24.942  0.00  0.00    -0.276 OA
ATOM      5  C   UNL     1       8.658  -0.663  26.795  0.00  0.00    +0.109 C 
ATOM      6  C   UNL     1       8.882   1.457  24.846  0.00  0.00    +0.108 C 
ATOM      7  C   UNL     1       9.700   2.482  24.074  0.00  0.00    +0.019 C 
ATOM      8  C   UNL     1       9.548   2.290  22.576  0.00  0.00    +0.004 C 
ATOM      9  C   UNL     1       9.902   0.858  22.202  0.00  0.00    +0.034 C 
ENDROOT
BRANCH   1  10
ATOM     10  C   UNL     1       9.562  -1.568  22.429  0.00  0.00    +0.325 C 
ATOM     11  O   UNL     1      10.724  -1.901  22.255  0.00  0.00    -0.249 OA
BRANCH  10  12
ATOM     12  O   UNL     1       8.530  -2.361  22.041  0.00  0.00    -0.479 OA
ATOM     13  H   UNL     1       8.868  -3.063  21.438  0.00  0.00    +0.295 HD
ENDBRANCH  10  12
ENDBRANCH   1  10
TORSDOF 2
ENDMDL
MODEL 6
REMARK VINA RESULT:      -4.4      5.408      6.451
REMARK  Name = 
REMARK  3 active torsions:
REMARK  status: ('A' for Active; 'I' for Inactive)
REMARK    1  A    between atoms: C_2  and  C_11
REMARK    2  A    between atoms: C_8  and  C_9
REMARK    3  A    between atoms: C_11  and  O_12
REMARK                            x       y       z     vdW  Elec       q    Type
REMARK                         _______ _______ _______ _____ _____    ______ ____
ROOT
ATOM      1  C   UNL     1       9.760   0.398  22.998  0.00  0.00    +0.184 C 
ATOM      2  N   UNL     1       8.844   0.401  24.171  0.00  0.00    -0.288 N 
ATOM      3  C   UNL     1       8.326   1.625  24.591  0.00  0.00    +0.213 C 
ATOM      4  O   UNL     1       8.422   2.643  23.906  0.00  0.00    -0.276 OA
ATOM      5  C   UNL     1       7.628   1.706  25.929  0.00  0.00    +0.109 C 
ATOM      6  C   UNL     1       9.098  -0.657  25.155  0.00  0.00    +0.108 C 
ATOM      7  C   UNL     1       9.166  -2.047  24.539  0.00  0.00    +0.019 C 
ATOM      8  C   UNL     1      10.175  -2.098  23.407  0.00  0.00    +0.004 C 
ATOM      9  C   UNL     1       9.853  -1.020  22.382  0.00  0.00    +0.034 C 
ENDROOT
BRANCH   1  10
ATOM     10  C   UNL     1       9.482   1.340  21.791  0.00  0.00    +0.325 C 
ATOM     11  O   UNL     1       8.612   1.174  20.949  0.00  0.00    -0.249 OA
BRANCH  10  12
ATOM     12  O   UNL     1      10.382   2.350  21.690  0.00  0.00    -0.479 OA
ATOM     13  H   UNL     1      10.999   2.165  20.945  0.00  0.00    +0.295 HD
ENDBRANCH  10  12
ENDBRANCH   1  10
TORSDOF 2
ENDMDL
MODEL 7
REMARK VINA RESULT:      -4.4      1.828      3.386
REMARK  Name = 
REMARK  3 active torsions:
REMARK  status: ('A' for Active; 'I' for Inactive)
REMARK    1  A    between atoms: C_2  and  C_11
REMARK    2  A    between atoms: C_8  and  C_9
REMARK    3  A    between atoms: C_11  and  O_12
REMARK                            x       y       z     vdW  Elec       q    Type
REMARK                         _______ _______ _______ _____ _____    ______ ____
ROOT
ATOM      1  C   UNL     1       8.013  -4.633  25.239  0.00  0.00    +0.184 C 
ATOM      2  N   UNL     1       6.980  -4.537  24.173  0.00  0.00    -0.288 N 
ATOM      3  C   UNL     1       5.899  -5.415  24.229  0.00  0.00    +0.213 C 
ATOM      4  O   UNL     1       5.664  -6.096  25.227  0.00  0.00    -0.276 OA
ATOM      5  C   UNL     1       4.989  -5.538  23.029  0.00  0.00    +0.109 C 
ATOM      6  C   UNL     1       7.479  -4.083  22.869  0.00  0.00    +0.108 C 
ATOM      7  C   UNL     1       8.281  -2.791  22.950  0.00  0.00    +0.019 C 
ATOM      8  C   UNL     1       9.407  -2.905  23.960  0.00  0.00    +0.004 C 
ATOM      9  C   UNL     1       8.848  -3.331  25.309  0.00  0.00    +0.034 C 
ENDROOT
BRANCH   1  10
ATOM     10  C   UNL     1       7.588  -4.914  26.710  0.00  0.00    +0.325 C 
ATOM     11  O   UNL     1       7.009  -4.126  27.443  0.00  0.00    -0.249 OA
BRANCH  10  12
ATOM     12  O   UNL     1       8.015  -6.121  27.162  0.00  0.00    -0.479 OA
ATOM     13  H   UNL     1       7.826  -6.193  28.126  0.00  0.00    +0.295 HD
ENDBRANCH  10  12
ENDBRANCH   1  10
TORSDOF 2
ENDMDL
MODEL 8
REMARK VINA RESULT:      -4.2      3.694      4.920
REMARK  Name = 
REMARK  3 active torsions:
REMARK  status: ('A' for Active; 'I' for Inactive)
REMARK    1  A    between atoms: C_2  and  C_11
REMARK    2  A    between atoms: C_8  and  C_9
REMARK    3  A    between atoms: C_11  and  O_12
REMARK                            x       y       z     vdW  Elec       q    Type
REMARK                         _______ _______ _______ _____ _____    ______ ____
ROOT
ATOM      1  C   UNL     1       8.731  -0.982  23.443  0.00  0.00    +0.184 C 
ATOM      2  N   UNL     1       7.390  -1.549  23.748  0.00  0.00    -0.288 N 
ATOM      3  C   UNL     1       6.907  -2.564  22.924  0.00  0.00    +0.213 C 
ATOM      4  O   UNL     1       7.628  -3.142  22.112  0.00  0.00    -0.276 OA
ATOM      5  C   UNL     1       5.453  -2.965  23.027  0.00  0.00    +0.109 C 
ATOM      6  C   UNL     1       6.450  -0.610  24.371  0.00  0.00    +0.108 C 
ATOM      7  C   UNL     1       7.022   0.089  25.597  0.00  0.00    +0.019 C 
ATOM      8  C   UNL     1       8.343   0.764  25.277  0.00  0.00    +0.004 C 
ATOM      9  C   UNL     1       9.308  -0.248  24.679  0.00  0.00    +0.034 C 
ENDROOT
BRANCH   1  10
ATOM     10  C   UNL     1       9.880  -1.916  22.962  0.00  0.00    +0.325 C 
ATOM     11  O   UNL     1      10.444  -2.755  23.648  0.00  0.00    -0.249 OA
BRANCH  10  12
ATOM     12  O   UNL     1      10.285  -1.646  21.695  0.00  0.00    -0.479 OA
ATOM     13  H   UNL     1      10.717  -2.446  21.314  0.00  0.00    +0.295 HD
ENDBRANCH  10  12
ENDBRANCH   1  10
TORSDOF 2
ENDMDL
MODEL 9
REMARK VINA RESULT:      -4.2      1.588      3.440
REMARK  Name = 
REMARK  3 active torsions:
REMARK  status: ('A' for Active; 'I' for Inactive)
REMARK    1  A    between atoms: C_2  and  C_11
REMARK    2  A    between atoms: C_8  and  C_9
REMARK    3  A    between atoms: C_11  and  O_12
REMARK                            x       y       z     vdW  Elec       q    Type
REMARK                         _______ _______ _______ _____ _____    ______ ____
ROOT
ATOM      1  C   UNL     1       7.635  -3.630  24.805  0.00  0.00    +0.184 C 
ATOM      2  N   UNL     1       6.954  -4.814  24.214  0.00  0.00    -0.288 N 
ATOM      3  C   UNL     1       6.862  -4.889  22.826  0.00  0.00    +0.213 C 
ATOM      4  O   UNL     1       7.503  -4.141  22.089  0.00  0.00    -0.276 OA
ATOM      5  C   UNL     1       5.945  -5.918  22.206  0.00  0.00    +0.109 C 
ATOM      6  C   UNL     1       5.893  -5.394  25.046  0.00  0.00    +0.108 C 
ATOM      7  C   UNL     1       6.340  -5.694  26.470  0.00  0.00    +0.019 C 
ATOM      8  C   UNL     1       6.943  -4.466  27.126  0.00  0.00    +0.004 C 
ATOM      9  C   UNL     1       8.071  -3.921  26.262  0.00  0.00    +0.034 C 
ENDROOT
BRANCH   1  10
ATOM     10  C   UNL     1       8.902  -3.040  24.120  0.00  0.00    +0.325 C 
ATOM     11  O   UNL     1      10.028  -3.507  24.192  0.00  0.00    -0.249 OA
BRANCH  10  12
ATOM     12  O   UNL     1       8.661  -1.862  23.490  0.00  0.00    -0.479 OA
ATOM     13  H   UNL     1       9.514  -1.477  23.182  0.00  0.00    +0.295 HD
ENDBRANCH  10  12
ENDBRANCH   1  10
TORSDOF 2
ENDMDL
