MODEL 1
REMARK VINA RESULT:      -5.7      0.000      0.000
REMARK  Name = 
REMARK  13 active torsions:
REMARK  status: ('A' for Active; 'I' for Inactive)
REMARK    1  A    between atoms: C_1  and  C_2
REMARK    2  A    between atoms: C_2  and  O_3
REMARK    3  A    between atoms: O_3  and  C_4
REMARK    4  A    between atoms: C_4  and  C_6
REMARK    5  A    between atoms: C_8  and  O_10
REMARK    6  A    between atoms: O_10  and  C_11
REMARK    7  A    between atoms: C_11  and  C_12
REMARK    8  A    between atoms: C_11  and  C_14
REMARK    9  A    between atoms: C_12  and  C_13
REMARK   10  A    between atoms: C_14  and  C_15
REMARK   11  A    between atoms: C_16  and  N_18
REMARK   12  A    between atoms: C_19  and  C_20
REMARK   13  A    between atoms: C_22  and  N_24
REMARK                            x       y       z     vdW  Elec       q    Type
REMARK                         _______ _______ _______ _____ _____    ______ ____
ROOT
ATOM      1  C   UNL     1       9.444  -0.156  22.814  0.00  0.00    +0.037 C 
ATOM      2  C   UNL     1       9.989   0.244  24.149  0.00  0.00    +0.062 C 
ATOM      3  C   UNL     1       9.848   1.724  24.527  0.00  0.00    +0.078 C 
ATOM      4  C   UNL     1       9.771   2.722  23.341  0.00  0.00    +0.122 C 
ATOM      5  C   UNL     1       9.071   2.212  22.037  0.00  0.00    +0.164 C 
ATOM      6  C   UNL     1       8.990   0.716  21.898  0.00  0.00    +0.016 C 
ENDROOT
BRANCH   4   7
ATOM      7  N   UNL     1      11.055   3.409  23.103  0.00  0.00    -0.308 N 
ATOM      8  H   UNL     1      11.723   2.931  22.512  0.00  0.00    +0.149 HD
ATOM      9  C   UNL     1      11.331   4.703  23.467  0.00  0.00    +0.210 C 
ATOM     10  O   UNL     1      10.521   5.453  23.995  0.00  0.00    -0.276 OA
ATOM     11  C   UNL     1      12.753   5.122  23.179  0.00  0.00    +0.109 C 
ENDBRANCH   4   7
BRANCH   3  12
ATOM     12  N   UNL     1       8.690   1.891  25.435  0.00  0.00    -0.325 NA
ATOM     13  H   UNL     1       8.756   2.800  25.897  0.00  0.00    +0.119 HD
ATOM     14  H   UNL     1       7.819   1.906  24.907  0.00  0.00    +0.119 HD
ENDBRANCH   3  12
BRANCH   1  15
ATOM     15  C   UNL     1       9.599  -1.615  22.534  0.00  0.00    +0.335 C 
ATOM     16  O   UNL     1      10.656  -2.218  22.641  0.00  0.00    -0.245 OA
BRANCH  15  17
ATOM     17  O   UNL     1       8.487  -2.071  21.898  0.00  0.00    -0.462 OA
BRANCH  17  19
ATOM     18  C   UNL     1       7.547  -4.072  22.819  0.00  0.00    +0.048 C 
ATOM     19  C   UNL     1       7.455  -2.555  22.769  0.00  0.00    +0.229 C 
ENDBRANCH  17  19
ENDBRANCH  15  17
ENDBRANCH   1  15
BRANCH   5  20
ATOM     20  O   UNL     1       7.743   2.735  21.832  0.00  0.00    -0.367 OA
BRANCH  20  21
ATOM     21  C   UNL     1       7.277   3.763  22.726  0.00  0.00    +0.119 C 
BRANCH  21  22
ATOM     22  C   UNL     1       5.840   3.411  23.158  0.00  0.00    +0.028 C 
ATOM     23  C   UNL     1       5.713   2.008  23.737  0.00  0.00    +0.006 C 
ENDBRANCH  21  22
BRANCH  21  24
ATOM     24  C   UNL     1       7.343   5.175  22.110  0.00  0.00    +0.028 C 
ATOM     25  C   UNL     1       6.254   6.117  22.602  0.00  0.00    +0.006 C 
ENDBRANCH  21  24
ENDBRANCH  20  21
ENDBRANCH   5  20
TORSDOF 9
ENDMDL
MODEL 2
REMARK VINA RESULT:      -5.6      4.683      8.659
REMARK  Name = 
REMARK  13 active torsions:
REMARK  status: ('A' for Active; 'I' for Inactive)
REMARK    1  A    between atoms: C_1  and  C_2
REMARK    2  A    between atoms: C_2  and  O_3
REMARK    3  A    between atoms: O_3  and  C_4
REMARK    4  A    between atoms: C_4  and  C_6
REMARK    5  A    between atoms: C_8  and  O_10
REMARK    6  A    between atoms: O_10  and  C_11
REMARK    7  A    between atoms: C_11  and  C_12
REMARK    8  A    between atoms: C_11  and  C_14
REMARK    9  A    between atoms: C_12  and  C_13
REMARK   10  A    between atoms: C_14  and  C_15
REMARK   11  A    between atoms: C_16  and  N_18
REMARK   12  A    between atoms: C_19  and  C_20
REMARK   13  A    between atoms: C_22  and  N_24
REMARK                            x       y       z     vdW  Elec       q    Type
REMARK                         _______ _______ _______ _____ _____    ______ ____
ROOT
ATOM      1  C   UNL     1       8.057  -2.955  24.558  0.00  0.00    +0.037 C 
ATOM      2  C   UNL     1       9.110  -3.467  25.488  0.00  0.00    +0.062 C 
ATOM      3  C   UNL     1       8.878  -4.864  26.079  0.00  0.00    +0.078 C 
ATOM      4  C   UNL     1       7.397  -5.314  26.192  0.00  0.00    +0.122 C 
ATOM      5  C   UNL     1       6.419  -4.796  25.085  0.00  0.00    +0.164 C 
ATOM      6  C   UNL     1       6.883  -3.573  24.342  0.00  0.00    +0.016 C 
ENDROOT
BRANCH   4   7
ATOM      7  N   UNL     1       6.874  -5.180  27.565  0.00  0.00    -0.308 N 
ATOM      8  H   UNL     1       7.057  -4.303  28.037  0.00  0.00    +0.149 HD
ATOM      9  C   UNL     1       6.018  -6.067  28.169  0.00  0.00    +0.210 C 
ATOM     10  O   UNL     1       5.555  -7.055  27.615  0.00  0.00    -0.276 OA
ATOM     11  C   UNL     1       5.713  -5.729  29.608  0.00  0.00    +0.109 C 
ENDBRANCH   4   7
BRANCH   3  12
ATOM     12  N   UNL     1       9.676  -5.857  25.324  0.00  0.00    -0.325 NA
ATOM     13  H   UNL     1       9.047  -6.546  24.909  0.00  0.00    +0.119 HD
ATOM     14  H   UNL     1      10.160  -5.411  24.546  0.00  0.00    +0.119 HD
ENDBRANCH   3  12
BRANCH   1  15
ATOM     15  C   UNL     1       8.371  -1.602  24.009  0.00  0.00    +0.335 C 
ATOM     16  O   UNL     1       7.521  -0.807  23.638  0.00  0.00    -0.245 OA
BRANCH  15  17
ATOM     17  O   UNL     1       9.702  -1.524  23.742  0.00  0.00    -0.462 OA
BRANCH  17  19
ATOM     18  C   UNL     1      10.625   0.375  24.872  0.00  0.00    +0.048 C 
ATOM     19  C   UNL     1      10.193  -0.194  23.530  0.00  0.00    +0.229 C 
ENDBRANCH  17  19
ENDBRANCH  15  17
ENDBRANCH   1  15
BRANCH   5  20
ATOM     20  O   UNL     1       6.059  -5.787  24.100  0.00  0.00    -0.367 OA
BRANCH  20  21
ATOM     21  C   UNL     1       5.184  -5.386  23.030  0.00  0.00    +0.119 C 
BRANCH  21  22
ATOM     22  C   UNL     1       3.812  -6.051  23.256  0.00  0.00    +0.028 C 
ATOM     23  C   UNL     1       2.690  -5.049  23.495  0.00  0.00    +0.006 C 
ENDBRANCH  21  22
BRANCH  21  24
ATOM     24  C   UNL     1       5.743  -5.724  21.633  0.00  0.00    +0.028 C 
ATOM     25  C   UNL     1       7.246  -5.963  21.609  0.00  0.00    +0.006 C 
ENDBRANCH  21  24
ENDBRANCH  20  21
ENDBRANCH   5  20
TORSDOF 9
ENDMDL
MODEL 3
REMARK VINA RESULT:      -5.6      4.087      8.305
REMARK  Name = 
REMARK  13 active torsions:
REMARK  status: ('A' for Active; 'I' for Inactive)
REMARK    1  A    between atoms: C_1  and  C_2
REMARK    2  A    between atoms: C_2  and  O_3
REMARK    3  A    between atoms: O_3  and  C_4
REMARK    4  A    between atoms: C_4  and  C_6
REMARK    5  A    between atoms: C_8  and  O_10
REMARK    6  A    between atoms: O_10  and  C_11
REMARK    7  A    between atoms: C_11  and  C_12
REMARK    8  A    between atoms: C_11  and  C_14
REMARK    9  A    between atoms: C_12  and  C_13
REMARK   10  A    between atoms: C_14  and  C_15
REMARK   11  A    between atoms: C_16  and  N_18
REMARK   12  A    between atoms: C_19  and  C_20
REMARK   13  A    between atoms: C_22  and  N_24
REMARK                            x       y       z     vdW  Elec       q    Type
REMARK                         _______ _______ _______ _____ _____    ______ ____
ROOT
ATOM      1  C   UNL     1       8.702  -2.355  24.250  0.00  0.00    +0.037 C 
ATOM      2  C   UNL     1       9.532  -3.328  25.024  0.00  0.00    +0.062 C 
ATOM      3  C   UNL     1       8.877  -4.679  25.345  0.00  0.00    +0.078 C 
ATOM      4  C   UNL     1       7.327  -4.678  25.424  0.00  0.00    +0.122 C 
ATOM      5  C   UNL     1       6.575  -3.688  24.474  0.00  0.00    +0.164 C 
ATOM      6  C   UNL     1       7.402  -2.540  23.962  0.00  0.00    +0.016 C 
ENDROOT
BRANCH   4   7
ATOM      7  N   UNL     1       6.837  -4.663  26.816  0.00  0.00    -0.308 N 
ATOM      8  H   UNL     1       6.949  -3.796  27.326  0.00  0.00    +0.149 HD
ATOM      9  C   UNL     1       6.093  -5.659  27.396  0.00  0.00    +0.210 C 
ATOM     10  O   UNL     1       5.711  -6.660  26.805  0.00  0.00    -0.276 OA
ATOM     11  C   UNL     1       5.801  -5.423  28.859  0.00  0.00    +0.109 C 
ENDBRANCH   4   7
BRANCH   3  12
ATOM     12  N   UNL     1       9.358  -5.698  24.385  0.00  0.00    -0.325 NA
ATOM     13  H   UNL     1       9.315  -6.619  24.825  0.00  0.00    +0.119 HD
ATOM     14  H   UNL     1       8.744  -5.745  23.573  0.00  0.00    +0.119 HD
ENDBRANCH   3  12
BRANCH   1  15
ATOM     15  C   UNL     1       9.420  -1.078  23.959  0.00  0.00    +0.335 C 
ATOM     16  O   UNL     1      10.233  -0.570  24.715  0.00  0.00    -0.245 OA
BRANCH  15  17
ATOM     17  O   UNL     1       8.832  -0.464  22.897  0.00  0.00    -0.462 OA
BRANCH  17  19
ATOM     18  C   UNL     1       9.867   1.463  21.922  0.00  0.00    +0.048 C 
ATOM     19  C   UNL     1       9.738  -0.051  21.866  0.00  0.00    +0.229 C 
ENDBRANCH  17  19
ENDBRANCH  15  17
ENDBRANCH   1  15
BRANCH   5  20
ATOM     20  O   UNL     1       5.957  -4.315  23.331  0.00  0.00    -0.367 OA
BRANCH  20  21
ATOM     21  C   UNL     1       5.802  -5.746  23.348  0.00  0.00    +0.119 C 
BRANCH  21  22
ATOM     22  C   UNL     1       6.572  -6.328  22.146  0.00  0.00    +0.028 C 
ATOM     23  C   UNL     1       6.190  -5.686  20.819  0.00  0.00    +0.006 C 
ENDBRANCH  21  22
BRANCH  21  24
ATOM     24  C   UNL     1       4.327  -6.195  23.335  0.00  0.00    +0.028 C 
ATOM     25  C   UNL     1       3.330  -5.049  23.443  0.00  0.00    +0.006 C 
ENDBRANCH  21  24
ENDBRANCH  20  21
ENDBRANCH   5  20
TORSDOF 9
ENDMDL
MODEL 4
REMARK VINA RESULT:      -5.5      2.617      7.045
REMARK  Name = 
REMARK  13 active torsions:
REMARK  status: ('A' for Active; 'I' for Inactive)
REMARK    1  A    between atoms: C_1  and  C_2
REMARK    2  A    between atoms: C_2  and  O_3
REMARK    3  A    between atoms: O_3  and  C_4
REMARK    4  A    between atoms: C_4  and  C_6
REMARK    5  A    between atoms: C_8  and  O_10
REMARK    6  A    between atoms: O_10  and  C_11
REMARK    7  A    between atoms: C_11  and  C_12
REMARK    8  A    between atoms: C_11  and  C_14
REMARK    9  A    between atoms: C_12  and  C_13
REMARK   10  A    between atoms: C_14  and  C_15
REMARK   11  A    between atoms: C_16  and  N_18
REMARK   12  A    between atoms: C_19  and  C_20
REMARK   13  A    between atoms: C_22  and  N_24
REMARK                            x       y       z     vdW  Elec       q    Type
REMARK                         _______ _______ _______ _____ _____    ______ ____
ROOT
ATOM      1  C   UNL     1       8.152   0.466  23.195  0.00  0.00    +0.037 C 
ATOM      2  C   UNL     1       9.575   0.050  23.388  0.00  0.00    +0.062 C 
ATOM      3  C   UNL     1       9.874  -1.449  23.245  0.00  0.00    +0.078 C 
ATOM      4  C   UNL     1       8.692  -2.407  23.550  0.00  0.00    +0.122 C 
ATOM      5  C   UNL     1       7.259  -1.891  23.193  0.00  0.00    +0.164 C 
ATOM      6  C   UNL     1       7.131  -0.398  23.057  0.00  0.00    +0.016 C 
ENDROOT
BRANCH   4   7
ATOM      7  N   UNL     1       8.794  -3.013  24.891  0.00  0.00    -0.308 N 
ATOM      8  H   UNL     1       8.562  -2.419  25.677  0.00  0.00    +0.149 HD
ATOM      9  C   UNL     1       9.001  -4.348  25.135  0.00  0.00    +0.210 C 
ATOM     10  O   UNL     1       9.079  -5.199  24.259  0.00  0.00    -0.276 OA
ATOM     11  C   UNL     1       9.151  -4.679  26.600  0.00  0.00    +0.109 C 
ENDBRANCH   4   7
BRANCH   3  12
ATOM     12  N   UNL     1      10.435  -1.711  21.900  0.00  0.00    -0.325 NA
ATOM     13  H   UNL     1       9.696  -1.605  21.203  0.00  0.00    +0.119 HD
ATOM     14  H   UNL     1      11.145  -1.020  21.666  0.00  0.00    +0.119 HD
ENDBRANCH   3  12
BRANCH   1  15
ATOM     15  C   UNL     1       7.951   1.939  23.327  0.00  0.00    +0.335 C 
ATOM     16  O   UNL     1       6.890   2.454  23.645  0.00  0.00    -0.245 OA
BRANCH  15  17
ATOM     17  O   UNL     1       9.016   2.588  22.786  0.00  0.00    -0.462 OA
BRANCH  17  19
ATOM     18  C   UNL     1      11.109   3.564  23.421  0.00  0.00    +0.048 C 
ATOM     19  C   UNL     1       9.604   3.586  23.631  0.00  0.00    +0.229 C 
ENDBRANCH  17  19
ENDBRANCH  15  17
ENDBRANCH   1  15
BRANCH   5  20
ATOM     20  O   UNL     1       6.695  -2.480  22.002  0.00  0.00    -0.367 OA
BRANCH  20  21
ATOM     21  C   UNL     1       5.826  -3.617  22.158  0.00  0.00    +0.119 C 
BRANCH  21  22
ATOM     22  C   UNL     1       5.108  -3.491  23.516  0.00  0.00    +0.028 C 
ATOM     23  C   UNL     1       5.300  -4.706  24.414  0.00  0.00    +0.006 C 
ENDBRANCH  21  22
BRANCH  21  24
ATOM     24  C   UNL     1       6.568  -4.964  22.043  0.00  0.00    +0.028 C 
ATOM     25  C   UNL     1       6.173  -5.786  20.824  0.00  0.00    +0.006 C 
ENDBRANCH  21  24
ENDBRANCH  20  21
ENDBRANCH   5  20
TORSDOF 9
ENDMDL
MODEL 5
REMARK VINA RESULT:      -5.5      3.132      6.209
REMARK  Name = 
REMARK  13 active torsions:
REMARK  status: ('A' for Active; 'I' for Inactive)
REMARK    1  A    between atoms: C_1  and  C_2
REMARK    2  A    between atoms: C_2  and  O_3
REMARK    3  A    between atoms: O_3  and  C_4
REMARK    4  A    between atoms: C_4  and  C_6
REMARK    5  A    between atoms: C_8  and  O_10
REMARK    6  A    between atoms: O_10  and  C_11
REMARK    7  A    between atoms: C_11  and  C_12
REMARK    8  A    between atoms: C_11  and  C_14
REMARK    9  A    between atoms: C_12  and  C_13
REMARK   10  A    between atoms: C_14  and  C_15
REMARK   11  A    between atoms: C_16  and  N_18
REMARK   12  A    between atoms: C_19  and  C_20
REMARK   13  A    between atoms: C_22  and  N_24
REMARK                            x       y       z     vdW  Elec       q    Type
REMARK                         _______ _______ _______ _____ _____    ______ ____
ROOT
ATOM      1  C   UNL     1       6.844  -2.910  23.078  0.00  0.00    +0.037 C 
ATOM      2  C   UNL     1       8.102  -2.437  22.423  0.00  0.00    +0.062 C 
ATOM      3  C   UNL     1       9.143  -1.780  23.340  0.00  0.00    +0.078 C 
ATOM      4  C   UNL     1       8.588  -1.113  24.626  0.00  0.00    +0.122 C 
ATOM      5  C   UNL     1       7.330  -1.778  25.276  0.00  0.00    +0.164 C 
ATOM      6  C   UNL     1       6.526  -2.660  24.360  0.00  0.00    +0.016 C 
ENDROOT
BRANCH   4   7
ATOM      7  N   UNL     1       8.491   0.355  24.498  0.00  0.00    -0.308 N 
ATOM      8  H   UNL     1       7.559   0.747  24.468  0.00  0.00    +0.149 HD
ATOM      9  C   UNL     1       9.551   1.221  24.599  0.00  0.00    +0.210 C 
ATOM     10  O   UNL     1      10.696   0.875  24.853  0.00  0.00    -0.276 OA
ATOM     11  C   UNL     1       9.180   2.662  24.341  0.00  0.00    +0.109 C 
ENDBRANCH   4   7
BRANCH   3  12
ATOM     12  N   UNL     1      10.199  -2.765  23.668  0.00  0.00    -0.325 NA
ATOM     13  H   UNL     1       9.908  -3.688  23.344  0.00  0.00    +0.119 HD
ATOM     14  H   UNL     1      11.060  -2.548  23.168  0.00  0.00    +0.119 HD
ENDBRANCH   3  12
BRANCH   1  15
ATOM     15  C   UNL     1       5.896  -3.557  22.122  0.00  0.00    +0.335 C 
ATOM     16  O   UNL     1       5.465  -3.011  21.119  0.00  0.00    -0.245 OA
BRANCH  15  17
ATOM     17  O   UNL     1       5.399  -4.693  22.682  0.00  0.00    -0.462 OA
BRANCH  17  19
ATOM     18  C   UNL     1       7.131  -6.175  21.947  0.00  0.00    +0.048 C 
ATOM     19  C   UNL     1       5.638  -5.888  21.927  0.00  0.00    +0.229 C 
ENDBRANCH  17  19
ENDBRANCH  15  17
ENDBRANCH   1  15
BRANCH   5  20
ATOM     20  O   UNL     1       7.611  -2.541  26.469  0.00  0.00    -0.367 OA
BRANCH  20  21
ATOM     21  C   UNL     1       7.538  -3.975  26.384  0.00  0.00    +0.119 C 
BRANCH  21  22
ATOM     22  C   UNL     1       6.570  -4.473  27.476  0.00  0.00    +0.028 C 
ATOM     23  C   UNL     1       5.875  -5.779  27.115  0.00  0.00    +0.006 C 
ENDBRANCH  21  22
BRANCH  21  24
ATOM     24  C   UNL     1       8.914  -4.660  26.506  0.00  0.00    +0.028 C 
ATOM     25  C   UNL     1       9.284  -5.526  25.310  0.00  0.00    +0.006 C 
ENDBRANCH  21  24
ENDBRANCH  20  21
ENDBRANCH   5  20
TORSDOF 9
ENDMDL
MODEL 6
REMARK VINA RESULT:      -5.4      2.796      4.164
REMARK  Name = 
REMARK  13 active torsions:
REMARK  status: ('A' for Active; 'I' for Inactive)
REMARK    1  A    between atoms: C_1  and  C_2
REMARK    2  A    between atoms: C_2  and  O_3
REMARK    3  A    between atoms: O_3  and  C_4
REMARK    4  A    between atoms: C_4  and  C_6
REMARK    5  A    between atoms: C_8  and  O_10
REMARK    6  A    between atoms: O_10  and  C_11
REMARK    7  A    between atoms: C_11  and  C_12
REMARK    8  A    between atoms: C_11  and  C_14
REMARK    9  A    between atoms: C_12  and  C_13
REMARK   10  A    between atoms: C_14  and  C_15
REMARK   11  A    between atoms: C_16  and  N_18
REMARK   12  A    between atoms: C_19  and  C_20
REMARK   13  A    between atoms: C_22  and  N_24
REMARK                            x       y       z     vdW  Elec       q    Type
REMARK                         _______ _______ _______ _____ _____    ______ ____
ROOT
ATOM      1  C   UNL     1       8.609  -2.119  24.636  0.00  0.00    +0.037 C 
ATOM      2  C   UNL     1       7.162  -1.739  24.651  0.00  0.00    +0.062 C 
ATOM      3  C   UNL     1       6.851  -0.236  24.647  0.00  0.00    +0.078 C 
ATOM      4  C   UNL     1       7.945   0.683  25.252  0.00  0.00    +0.122 C 
ATOM      5  C   UNL     1       9.429   0.225  25.066  0.00  0.00    +0.164 C 
ATOM      6  C   UNL     1       9.615  -1.239  24.770  0.00  0.00    +0.016 C 
ENDROOT
BRANCH   4   7
ATOM      7  N   UNL     1       7.618   1.115  26.624  0.00  0.00    -0.308 N 
ATOM      8  H   UNL     1       7.852   0.473  27.370  0.00  0.00    +0.149 HD
ATOM      9  C   UNL     1       7.196   2.374  26.970  0.00  0.00    +0.210 C 
ATOM     10  O   UNL     1       7.085   3.300  26.178  0.00  0.00    -0.276 OA
ATOM     11  C   UNL     1       6.849   2.516  28.433  0.00  0.00    +0.109 C 
ENDBRANCH   4   7
BRANCH   3  12
ATOM     12  N   UNL     1       6.501   0.190  23.273  0.00  0.00    -0.325 NA
ATOM     13  H   UNL     1       5.647  -0.289  22.982  0.00  0.00    +0.119 HD
ATOM     14  H   UNL     1       6.288   1.186  23.249  0.00  0.00    +0.119 HD
ENDBRANCH   3  12
BRANCH   1  15
ATOM     15  C   UNL     1       8.824  -3.596  24.617  0.00  0.00    +0.335 C 
ATOM     16  O   UNL     1       9.925  -4.120  24.542  0.00  0.00    -0.245 OA
BRANCH  15  17
ATOM     17  O   UNL     1       7.633  -4.221  24.417  0.00  0.00    -0.462 OA
BRANCH  17  19
ATOM     18  C   UNL     1       7.120  -4.611  22.111  0.00  0.00    +0.048 C 
ATOM     19  C   UNL     1       7.648  -5.228  23.396  0.00  0.00    +0.229 C 
ENDBRANCH  17  19
ENDBRANCH  15  17
ENDBRANCH   1  15
BRANCH   5  20
ATOM     20  O   UNL     1      10.158   0.962  24.062  0.00  0.00    -0.367 OA
BRANCH  20  21
ATOM     21  C   UNL     1       9.451   1.977  23.325  0.00  0.00    +0.119 C 
BRANCH  21  22
ATOM     22  C   UNL     1       9.672   1.721  21.821  0.00  0.00    +0.028 C 
ATOM     23  C   UNL     1       9.446   0.269  21.418  0.00  0.00    +0.006 C 
ENDBRANCH  21  22
BRANCH  21  24
ATOM     24  C   UNL     1       9.870   3.409  23.714  0.00  0.00    +0.028 C 
ATOM     25  C   UNL     1      11.309   3.752  23.356  0.00  0.00    +0.006 C 
ENDBRANCH  21  24
ENDBRANCH  20  21
ENDBRANCH   5  20
TORSDOF 9
ENDMDL
MODEL 7
REMARK VINA RESULT:      -5.3      3.162      5.866
REMARK  Name = 
REMARK  13 active torsions:
REMARK  status: ('A' for Active; 'I' for Inactive)
REMARK    1  A    between atoms: C_1  and  C_2
REMARK    2  A    between atoms: C_2  and  O_3
REMARK    3  A    between atoms: O_3  and  C_4
REMARK    4  A    between atoms: C_4  and  C_6
REMARK    5  A    between atoms: C_8  and  O_10
REMARK    6  A    between atoms: O_10  and  C_11
REMARK    7  A    between atoms: C_11  and  C_12
REMARK    8  A    between atoms: C_11  and  C_14
REMARK    9  A    between atoms: C_12  and  C_13
REMARK   10  A    between atoms: C_14  and  C_15
REMARK   11  A    between atoms: C_16  and  N_18
REMARK   12  A    between atoms: C_19  and  C_20
REMARK   13  A    between atoms: C_22  and  N_24
REMARK                            x       y       z     vdW  Elec       q    Type
REMARK                         _______ _______ _______ _____ _____    ______ ____
ROOT
ATOM      1  C   UNL     1       8.542  -3.384  25.234  0.00  0.00    +0.037 C 
ATOM      2  C   UNL     1       8.529  -2.059  25.928  0.00  0.00    +0.062 C 
ATOM      3  C   UNL     1       7.870  -0.898  25.170  0.00  0.00    +0.078 C 
ATOM      4  C   UNL     1       7.870  -1.013  23.623  0.00  0.00    +0.122 C 
ATOM      5  C   UNL     1       7.764  -2.454  23.024  0.00  0.00    +0.164 C 
ATOM      6  C   UNL     1       8.154  -3.566  23.960  0.00  0.00    +0.016 C 
ENDROOT
BRANCH   4   7
ATOM      7  N   UNL     1       8.918  -0.180  23.000  0.00  0.00    -0.308 N 
ATOM      8  H   UNL     1       9.807  -0.629  22.821  0.00  0.00    +0.149 HD
ATOM      9  C   UNL     1       8.719   1.078  22.490  0.00  0.00    +0.210 C 
ATOM     10  O   UNL     1       7.632   1.638  22.455  0.00  0.00    -0.276 OA
ATOM     11  C   UNL     1       9.984   1.735  21.991  0.00  0.00    +0.109 C 
ENDBRANCH   4   7
BRANCH   3  12
ATOM     12  N   UNL     1       6.497  -0.692  25.686  0.00  0.00    -0.325 NA
ATOM     13  H   UNL     1       5.966  -0.138  25.012  0.00  0.00    +0.119 HD
ATOM     14  H   UNL     1       6.007  -1.582  25.767  0.00  0.00    +0.119 HD
ENDBRANCH   3  12
BRANCH   1  15
ATOM     15  C   UNL     1       9.179  -4.462  26.047  0.00  0.00    +0.335 C 
ATOM     16  O   UNL     1      10.068  -5.189  25.632  0.00  0.00    -0.245 OA
BRANCH  15  17
ATOM     17  O   UNL     1       8.442  -4.673  27.170  0.00  0.00    -0.462 OA
BRANCH  17  19
ATOM     18  C   UNL     1       6.107  -4.640  27.703  0.00  0.00    +0.048 C 
ATOM     19  C   UNL     1       7.210  -5.374  26.956  0.00  0.00    +0.229 C 
ENDBRANCH  17  19
ENDBRANCH  15  17
ENDBRANCH   1  15
BRANCH   5  20
ATOM     20  O   UNL     1       6.465  -2.781  22.488  0.00  0.00    -0.367 OA
BRANCH  20  21
ATOM     21  C   UNL     1       5.955  -4.107  22.715  0.00  0.00    +0.119 C 
BRANCH  21  22
ATOM     22  C   UNL     1       6.031  -4.886  21.387  0.00  0.00    +0.028 C 
ATOM     23  C   UNL     1       7.062  -6.007  21.405  0.00  0.00    +0.006 C 
ENDBRANCH  21  22
BRANCH  21  24
ATOM     24  C   UNL     1       4.522  -4.115  23.284  0.00  0.00    +0.028 C 
ATOM     25  C   UNL     1       4.364  -3.324  24.576  0.00  0.00    +0.006 C 
ENDBRANCH  21  24
ENDBRANCH  20  21
ENDBRANCH   5  20
TORSDOF 9
ENDMDL
MODEL 8
REMARK VINA RESULT:      -5.2      4.279      7.362
REMARK  Name = 
REMARK  13 active torsions:
REMARK  status: ('A' for Active; 'I' for Inactive)
REMARK    1  A    between atoms: C_1  and  C_2
REMARK    2  A    between atoms: C_2  and  O_3
REMARK    3  A    between atoms: O_3  and  C_4
REMARK    4  A    between atoms: C_4  and  C_6
REMARK    5  A    between atoms: C_8  and  O_10
REMARK    6  A    between atoms: O_10  and  C_11
REMARK    7  A    between atoms: C_11  and  C_12
REMARK    8  A    between atoms: C_11  and  C_14
REMARK    9  A    between atoms: C_12  and  C_13
REMARK   10  A    between atoms: C_14  and  C_15
REMARK   11  A    between atoms: C_16  and  N_18
REMARK   12  A    between atoms: C_19  and  C_20
REMARK   13  A    between atoms: C_22  and  N_24
REMARK                            x       y       z     vdW  Elec       q    Type
REMARK                         _______ _______ _______ _____ _____    ______ ____
ROOT
ATOM      1  C   UNL     1       7.222  -4.351  26.736  0.00  0.00    +0.037 C 
ATOM      2  C   UNL     1       7.889  -5.551  26.142  0.00  0.00    +0.062 C 
ATOM      3  C   UNL     1       8.874  -5.286  24.995  0.00  0.00    +0.078 C 
ATOM      4  C   UNL     1       8.622  -3.996  24.170  0.00  0.00    +0.122 C 
ATOM      5  C   UNL     1       8.024  -2.774  24.941  0.00  0.00    +0.164 C 
ATOM      6  C   UNL     1       7.324  -3.110  26.230  0.00  0.00    +0.016 C 
ENDROOT
BRANCH   4   7
ATOM      7  N   UNL     1       7.956  -4.278  22.882  0.00  0.00    -0.308 N 
ATOM      8  H   UNL     1       8.544  -4.277  22.059  0.00  0.00    +0.149 HD
ATOM      9  C   UNL     1       6.661  -4.710  22.748  0.00  0.00    +0.210 C 
ATOM     10  O   UNL     1       5.920  -4.956  23.690  0.00  0.00    -0.276 OA
ATOM     11  C   UNL     1       6.212  -4.835  21.312  0.00  0.00    +0.109 C 
ENDBRANCH   4   7
BRANCH   3  12
ATOM     12  N   UNL     1      10.259  -5.315  25.520  0.00  0.00    -0.325 NA
ATOM     13  H   UNL     1      10.747  -4.468  25.225  0.00  0.00    +0.119 HD
ATOM     14  H   UNL     1      10.257  -5.299  26.539  0.00  0.00    +0.119 HD
ENDBRANCH   3  12
BRANCH   1  15
ATOM     15  C   UNL     1       6.299  -4.693  27.859  0.00  0.00    +0.335 C 
ATOM     16  O   UNL     1       6.532  -5.558  28.689  0.00  0.00    -0.245 OA
BRANCH  15  17
ATOM     17  O   UNL     1       5.092  -4.104  27.643  0.00  0.00    -0.462 OA
BRANCH  17  19
ATOM     18  C   UNL     1       3.352  -4.031  25.999  0.00  0.00    +0.048 C 
ATOM     19  C   UNL     1       4.143  -4.921  26.945  0.00  0.00    +0.229 C 
ENDBRANCH  17  19
ENDBRANCH  15  17
ENDBRANCH   1  15
BRANCH   5  20
ATOM     20  O   UNL     1       8.976  -1.729  25.229  0.00  0.00    -0.367 OA
BRANCH  20  21
ATOM     21  C   UNL     1       9.661  -1.116  24.121  0.00  0.00    +0.119 C 
BRANCH  21  22
ATOM     22  C   UNL     1      10.466   0.084  24.658  0.00  0.00    +0.028 C 
ATOM     23  C   UNL     1       9.706   1.402  24.579  0.00  0.00    +0.006 C 
ENDBRANCH  21  22
BRANCH  21  24
ATOM     24  C   UNL     1       8.710  -0.686  22.986  0.00  0.00    +0.028 C 
ATOM     25  C   UNL     1       9.307  -0.823  21.593  0.00  0.00    +0.006 C 
ENDBRANCH  21  24
ENDBRANCH  20  21
ENDBRANCH   5  20
TORSDOF 9
ENDMDL
MODEL 9
REMARK VINA RESULT:      -5.2      2.949      4.362
REMARK  Name = 
REMARK  13 active torsions:
REMARK  status: ('A' for Active; 'I' for Inactive)
REMARK    1  A    between atoms: C_1  and  C_2
REMARK    2  A    between atoms: C_2  and  O_3
REMARK    3  A    between atoms: O_3  and  C_4
REMARK    4  A    between atoms: C_4  and  C_6
REMARK    5  A    between atoms: C_8  and  O_10
REMARK    6  A    between atoms: O_10  and  C_11
REMARK    7  A    between atoms: C_11  and  C_12
REMARK    8  A    between atoms: C_11  and  C_14
REMARK    9  A    between atoms: C_12  and  C_13
REMARK   10  A    between atoms: C_14  and  C_15
REMARK   11  A    between atoms: C_16  and  N_18
REMARK   12  A    between atoms: C_19  and  C_20
REMARK   13  A    between atoms: C_22  and  N_24
REMARK                            x       y       z     vdW  Elec       q    Type
REMARK                         _______ _______ _______ _____ _____    ______ ____
ROOT
ATOM      1  C   UNL     1       8.720  -2.183  25.040  0.00  0.00    +0.037 C 
ATOM      2  C   UNL     1       7.263  -1.851  25.110  0.00  0.00    +0.062 C 
ATOM      3  C   UNL     1       6.886  -0.382  24.874  0.00  0.00    +0.078 C 
ATOM      4  C   UNL     1       7.981   0.662  25.219  0.00  0.00    +0.122 C 
ATOM      5  C   UNL     1       9.466   0.224  24.991  0.00  0.00    +0.164 C 
ATOM      6  C   UNL     1       9.694  -1.262  24.936  0.00  0.00    +0.016 C 
ENDROOT
BRANCH   4   7
ATOM      7  N   UNL     1       7.741   1.317  26.519  0.00  0.00    -0.308 N 
ATOM      8  H   UNL     1       8.251   0.950  27.313  0.00  0.00    +0.149 HD
ATOM      9  C   UNL     1       7.032   2.479  26.693  0.00  0.00    +0.210 C 
ATOM     10  O   UNL     1       6.553   3.131  25.775  0.00  0.00    -0.276 OA
ATOM     11  C   UNL     1       6.869   2.877  28.140  0.00  0.00    +0.109 C 
ENDBRANCH   4   7
BRANCH   3  12
ATOM     12  N   UNL     1       6.413  -0.213  23.481  0.00  0.00    -0.325 NA
ATOM     13  H   UNL     1       6.864  -0.912  22.888  0.00  0.00    +0.119 HD
ATOM     14  H   UNL     1       5.412  -0.394  23.418  0.00  0.00    +0.119 HD
ENDBRANCH   3  12
BRANCH   1  15
ATOM     15  C   UNL     1       8.999  -3.634  25.256  0.00  0.00    +0.335 C 
ATOM     16  O   UNL     1       9.329  -4.401  24.365  0.00  0.00    -0.245 OA
BRANCH  15  17
ATOM     17  O   UNL     1       8.569  -3.994  26.495  0.00  0.00    -0.462 OA
BRANCH  17  19
ATOM     18  C   UNL     1       6.726  -5.201  27.434  0.00  0.00    +0.048 C 
ATOM     19  C   UNL     1       7.971  -5.295  26.566  0.00  0.00    +0.229 C 
ENDBRANCH  17  19
ENDBRANCH  15  17
ENDBRANCH   1  15
BRANCH   5  20
ATOM     20  O   UNL     1      10.081   0.797  23.818  0.00  0.00    -0.367 OA
BRANCH  20  21
ATOM     21  C   UNL     1       9.403   1.884  23.164  0.00  0.00    +0.119 C 
BRANCH  21  22
ATOM     22  C   UNL     1       9.210   1.508  21.681  0.00  0.00    +0.028 C 
ATOM     23  C   UNL     1       9.421   0.025  21.405  0.00  0.00    +0.006 C 
ENDBRANCH  21  22
BRANCH  21  24
ATOM     24  C   UNL     1      10.142   3.230  23.305  0.00  0.00    +0.028 C 
ATOM     25  C   UNL     1       9.437   4.231  24.210  0.00  0.00    +0.006 C 
ENDBRANCH  21  24
ENDBRANCH  20  21
ENDBRANCH   5  20
TORSDOF 9
ENDMDL
