MODEL 1
REMARK VINA RESULT:      -6.9      0.000      0.000
REMARK  Name = 
REMARK  9 active torsions:
REMARK  status: ('A' for Active; 'I' for Inactive)
REMARK    1  A    between atoms: C_2  and  C_3
REMARK    2  A    between atoms: C_3  and  C_4
REMARK    3  A    between atoms: C_4  and  C_5
REMARK    4  A    between atoms: N_11  and  C_12
REMARK    5  A    between atoms: C_12  and  C_13
REMARK    6  A    between atoms: C_13  and  C_14
REMARK    7  A    between atoms: C_14  and  C_15
REMARK    8  A    between atoms: C_15  and  C_16
REMARK    9  A    between atoms: C_22  and  C_24
REMARK                            x       y       z     vdW  Elec       q    Type
REMARK                         _______ _______ _______ _____ _____    ______ ____
ROOT
ATOM      1  C   UNL     1       6.733  -5.576  26.791  0.00  0.00    +0.002 C 
ENDROOT
BRANCH   1   2
ATOM      2  C   UNL     1       6.152  -5.888  28.180  0.00  0.00    +0.019 C 
BRANCH   2   3
ATOM      3  C   UNL     1       4.914  -6.789  28.115  0.00  0.00    +0.104 C 
BRANCH   3   6
ATOM      4  O   UNL     1       2.712  -5.524  26.885  0.00  0.00    -0.276 OA
ATOM      5  C   UNL     1       3.401  -6.300  26.234  0.00  0.00    +0.213 C 
ATOM      6  N   UNL     1       4.466  -7.001  26.757  0.00  0.00    -0.315 N 
ATOM      7  H   UNL     1       4.981  -7.646  26.173  0.00  0.00    +0.149 HD
BRANCH   5   8
ATOM      8  C   UNL     1       3.152  -6.602  24.772  0.00  0.00    +0.100 C 
BRANCH   8   9
ATOM      9  C   UNL     1       4.465  -6.899  24.050  0.00  0.00    +0.046 C 
BRANCH   9  10
ATOM     10  C   UNL     1       4.984  -5.694  23.316  0.00  0.00    -0.029 A 
ATOM     11  C   UNL     1       5.761  -5.835  22.169  0.00  0.00    +0.114 A 
ATOM     12  N   UNL     1       6.262  -4.801  21.459  0.00  0.00    -0.263 NA
ATOM     13  C   UNL     1       5.979  -3.563  21.912  0.00  0.00    +0.111 A 
ATOM     14  C   UNL     1       5.224  -3.312  23.048  0.00  0.00    +0.020 A 
ATOM     15  C   UNL     1       4.726  -4.397  23.762  0.00  0.00    +0.006 A 
ENDBRANCH   9  10
ENDBRANCH   8   9
ENDBRANCH   5   8
ENDBRANCH   3   6
ENDBRANCH   2   3
ENDBRANCH   1   2
BRANCH   1  16
ATOM     16  C   UNL     1       7.047  -4.089  26.652  0.00  0.00    +0.004 C 
BRANCH  16  17
ATOM     17  C   UNL     1       8.532  -3.686  26.605  0.00  0.00    -0.008 C 
ATOM     18  C   UNL     1       8.613  -2.145  26.476  0.00  0.00    +0.022 C 
ATOM     19  C   UNL     1       8.152  -1.685  25.086  0.00  0.00    +0.108 C 
ATOM     20  N   UNL     1       9.025  -2.296  24.087  0.00  0.00    -0.298 N 
ATOM     21  C   UNL     1       9.918  -1.662  23.218  0.00  0.00    +0.247 C 
ATOM     22  O   UNL     1      10.655  -2.301  22.466  0.00  0.00    -0.270 OA
ATOM     23  C   UNL     1       8.955  -3.758  24.077  0.00  0.00    +0.108 C 
ATOM     24  C   UNL     1       9.329  -4.326  25.446  0.00  0.00    +0.022 C 
BRANCH  21  25
ATOM     25  C   UNL     1       9.970  -0.174  23.090  0.00  0.00    +0.037 A 
ATOM     26  C   UNL     1       9.318   0.400  21.988  0.00  0.00    +0.013 A 
ATOM     27  C   UNL     1       9.223   1.785  21.858  0.00  0.00    +0.001 A 
ATOM     28  C   UNL     1       9.764   2.614  22.840  0.00  0.00    +0.000 A 
ATOM     29  C   UNL     1      10.480   2.057  23.895  0.00  0.00    +0.001 A 
ATOM     30  C   UNL     1      10.637   0.671  23.981  0.00  0.00    +0.013 A 
ENDBRANCH  21  25
ENDBRANCH  16  17
ENDBRANCH   1  16
TORSDOF 9
ENDMDL
MODEL 2
REMARK VINA RESULT:      -6.9      1.959      3.135
REMARK  Name = 
REMARK  9 active torsions:
REMARK  status: ('A' for Active; 'I' for Inactive)
REMARK    1  A    between atoms: C_2  and  C_3
REMARK    2  A    between atoms: C_3  and  C_4
REMARK    3  A    between atoms: C_4  and  C_5
REMARK    4  A    between atoms: N_11  and  C_12
REMARK    5  A    between atoms: C_12  and  C_13
REMARK    6  A    between atoms: C_13  and  C_14
REMARK    7  A    between atoms: C_14  and  C_15
REMARK    8  A    between atoms: C_15  and  C_16
REMARK    9  A    between atoms: C_22  and  C_24
REMARK                            x       y       z     vdW  Elec       q    Type
REMARK                         _______ _______ _______ _____ _____    ______ ____
ROOT
ATOM      1  C   UNL     1       8.725  -4.269  24.553  0.00  0.00    +0.002 C 
ENDROOT
BRANCH   1   2
ATOM      2  C   UNL     1       9.104  -4.962  25.872  0.00  0.00    +0.019 C 
BRANCH   2   3
ATOM      3  C   UNL     1       7.898  -5.182  26.792  0.00  0.00    +0.104 C 
BRANCH   3   6
ATOM      4  O   UNL     1       5.726  -6.854  27.461  0.00  0.00    -0.276 OA
ATOM      5  C   UNL     1       5.640  -6.119  26.485  0.00  0.00    +0.213 C 
ATOM      6  N   UNL     1       6.663  -5.303  26.051  0.00  0.00    -0.315 N 
ATOM      7  H   UNL     1       6.539  -4.737  25.222  0.00  0.00    +0.149 HD
BRANCH   5   8
ATOM      8  C   UNL     1       4.404  -6.033  25.618  0.00  0.00    +0.100 C 
BRANCH   8   9
ATOM      9  C   UNL     1       4.627  -6.740  24.284  0.00  0.00    +0.046 C 
BRANCH   9  10
ATOM     10  C   UNL     1       5.194  -5.812  23.246  0.00  0.00    -0.029 A 
ATOM     11  C   UNL     1       4.687  -4.525  23.084  0.00  0.00    +0.114 A 
ATOM     12  N   UNL     1       5.145  -3.638  22.173  0.00  0.00    -0.263 NA
ATOM     13  C   UNL     1       6.157  -4.051  21.383  0.00  0.00    +0.111 A 
ATOM     14  C   UNL     1       6.726  -5.313  21.455  0.00  0.00    +0.020 A 
ATOM     15  C   UNL     1       6.230  -6.207  22.398  0.00  0.00    +0.006 A 
ENDBRANCH   9  10
ENDBRANCH   8   9
ENDBRANCH   5   8
ENDBRANCH   3   6
ENDBRANCH   2   3
ENDBRANCH   1   2
BRANCH   1  16
ATOM     16  C   UNL     1       8.915  -2.758  24.655  0.00  0.00    +0.004 C 
BRANCH  16  17
ATOM     17  C   UNL     1       9.643  -2.061  23.492  0.00  0.00    -0.008 C 
ATOM     18  C   UNL     1      10.382  -0.822  24.054  0.00  0.00    +0.022 C 
ATOM     19  C   UNL     1       9.387   0.273  24.461  0.00  0.00    +0.108 C 
ATOM     20  N   UNL     1       8.627   0.666  23.276  0.00  0.00    -0.298 N 
ATOM     21  C   UNL     1       8.626   1.900  22.621  0.00  0.00    +0.247 C 
ATOM     22  O   UNL     1       7.990   2.083  21.583  0.00  0.00    -0.270 OA
ATOM     23  C   UNL     1       7.827  -0.426  22.717  0.00  0.00    +0.108 C 
ATOM     24  C   UNL     1       8.716  -1.609  22.340  0.00  0.00    +0.022 C 
BRANCH  21  25
ATOM     25  C   UNL     1       9.328   3.092  23.187  0.00  0.00    +0.037 A 
ATOM     26  C   UNL     1      10.725   3.136  23.062  0.00  0.00    +0.013 A 
ATOM     27  C   UNL     1      11.441   4.265  23.461  0.00  0.00    +0.001 A 
ATOM     28  C   UNL     1      10.765   5.371  23.973  0.00  0.00    +0.000 A 
ATOM     29  C   UNL     1       9.390   5.307  24.176  0.00  0.00    +0.001 A 
ATOM     30  C   UNL     1       8.687   4.146  23.844  0.00  0.00    +0.013 A 
ENDBRANCH  21  25
ENDBRANCH  16  17
ENDBRANCH   1  16
TORSDOF 9
ENDMDL
MODEL 3
REMARK VINA RESULT:      -6.8      1.824      2.856
REMARK  Name = 
REMARK  9 active torsions:
REMARK  status: ('A' for Active; 'I' for Inactive)
REMARK    1  A    between atoms: C_2  and  C_3
REMARK    2  A    between atoms: C_3  and  C_4
REMARK    3  A    between atoms: C_4  and  C_5
REMARK    4  A    between atoms: N_11  and  C_12
REMARK    5  A    between atoms: C_12  and  C_13
REMARK    6  A    between atoms: C_13  and  C_14
REMARK    7  A    between atoms: C_14  and  C_15
REMARK    8  A    between atoms: C_15  and  C_16
REMARK    9  A    between atoms: C_22  and  C_24
REMARK                            x       y       z     vdW  Elec       q    Type
REMARK                         _______ _______ _______ _____ _____    ______ ____
ROOT
ATOM      1  C   UNL     1       8.524  -4.789  24.720  0.00  0.00    +0.002 C 
ENDROOT
BRANCH   1   2
ATOM      2  C   UNL     1       8.817  -4.722  26.228  0.00  0.00    +0.019 C 
BRANCH   2   3
ATOM      3  C   UNL     1       7.655  -5.243  27.080  0.00  0.00    +0.104 C 
BRANCH   3   6
ATOM      4  O   UNL     1       4.869  -5.361  27.514  0.00  0.00    -0.276 OA
ATOM      5  C   UNL     1       5.356  -5.965  26.567  0.00  0.00    +0.213 C 
ATOM      6  N   UNL     1       6.708  -6.008  26.300  0.00  0.00    -0.315 N 
ATOM      7  H   UNL     1       7.051  -6.545  25.515  0.00  0.00    +0.149 HD
BRANCH   5   8
ATOM      8  C   UNL     1       4.532  -6.763  25.580  0.00  0.00    +0.100 C 
BRANCH   8   9
ATOM      9  C   UNL     1       3.803  -5.836  24.610  0.00  0.00    +0.046 C 
BRANCH   9  10
ATOM     10  C   UNL     1       4.686  -5.414  23.468  0.00  0.00    -0.029 A 
ATOM     11  C   UNL     1       4.642  -4.114  22.972  0.00  0.00    +0.114 A 
ATOM     12  N   UNL     1       5.403  -3.665  21.950  0.00  0.00    -0.263 NA
ATOM     13  C   UNL     1       6.251  -4.553  21.391  0.00  0.00    +0.111 A 
ATOM     14  C   UNL     1       6.365  -5.873  21.802  0.00  0.00    +0.020 A 
ATOM     15  C   UNL     1       5.564  -6.308  22.853  0.00  0.00    +0.006 A 
ENDBRANCH   9  10
ENDBRANCH   8   9
ENDBRANCH   5   8
ENDBRANCH   3   6
ENDBRANCH   2   3
ENDBRANCH   1   2
BRANCH   1  16
ATOM     16  C   UNL     1       8.356  -3.390  24.133  0.00  0.00    +0.004 C 
BRANCH  16  17
ATOM     17  C   UNL     1       9.468  -2.367  24.427  0.00  0.00    -0.008 C 
ATOM     18  C   UNL     1       8.815  -1.100  25.031  0.00  0.00    +0.022 C 
ATOM     19  C   UNL     1       8.004  -0.341  23.972  0.00  0.00    +0.108 C 
ATOM     20  N   UNL     1       8.912   0.055  22.897  0.00  0.00    -0.298 N 
ATOM     21  C   UNL     1       9.284   1.346  22.513  0.00  0.00    +0.247 C 
ATOM     22  O   UNL     1      10.118   1.545  21.629  0.00  0.00    -0.270 OA
ATOM     23  C   UNL     1       9.520  -1.085  22.207  0.00  0.00    +0.108 C 
ATOM     24  C   UNL     1      10.299  -1.957  23.189  0.00  0.00    +0.022 C 
BRANCH  21  25
ATOM     25  C   UNL     1       8.629   2.559  23.091  0.00  0.00    +0.037 A 
ATOM     26  C   UNL     1       9.200   3.107  24.250  0.00  0.00    +0.013 A 
ATOM     27  C   UNL     1       8.718   4.302  24.785  0.00  0.00    +0.001 A 
ATOM     28  C   UNL     1       7.671   4.973  24.156  0.00  0.00    +0.000 A 
ATOM     29  C   UNL     1       7.047   4.398  23.053  0.00  0.00    +0.001 A 
ATOM     30  C   UNL     1       7.484   3.164  22.565  0.00  0.00    +0.013 A 
ENDBRANCH  21  25
ENDBRANCH  16  17
ENDBRANCH   1  16
TORSDOF 9
ENDMDL
MODEL 4
REMARK VINA RESULT:      -6.8      2.872      7.852
REMARK  Name = 
REMARK  9 active torsions:
REMARK  status: ('A' for Active; 'I' for Inactive)
REMARK    1  A    between atoms: C_2  and  C_3
REMARK    2  A    between atoms: C_3  and  C_4
REMARK    3  A    between atoms: C_4  and  C_5
REMARK    4  A    between atoms: N_11  and  C_12
REMARK    5  A    between atoms: C_12  and  C_13
REMARK    6  A    between atoms: C_13  and  C_14
REMARK    7  A    between atoms: C_14  and  C_15
REMARK    8  A    between atoms: C_15  and  C_16
REMARK    9  A    between atoms: C_22  and  C_24
REMARK                            x       y       z     vdW  Elec       q    Type
REMARK                         _______ _______ _______ _____ _____    ______ ____
ROOT
ATOM      1  C   UNL     1       5.414   2.780  24.714  0.00  0.00    +0.002 C 
ENDROOT
BRANCH   1   2
ATOM      2  C   UNL     1       5.595   3.018  23.206  0.00  0.00    +0.019 C 
BRANCH   2   3
ATOM      3  C   UNL     1       6.648   4.088  22.899  0.00  0.00    +0.104 C 
BRANCH   3   6
ATOM      4  O   UNL     1       8.736   4.451  24.762  0.00  0.00    -0.276 OA
ATOM      5  C   UNL     1       8.918   3.731  23.788  0.00  0.00    +0.213 C 
ATOM      6  N   UNL     1       7.978   3.531  22.799  0.00  0.00    -0.315 N 
ATOM      7  H   UNL     1       8.198   2.944  22.006  0.00  0.00    +0.149 HD
BRANCH   5   8
ATOM      8  C   UNL     1      10.212   2.989  23.535  0.00  0.00    +0.100 C 
BRANCH   8   9
ATOM      9  C   UNL     1      10.140   2.205  22.226  0.00  0.00    +0.046 C 
BRANCH   9  10
ATOM     10  C   UNL     1      10.024   0.726  22.465  0.00  0.00    -0.029 A 
ATOM     11  C   UNL     1      10.471   0.155  23.654  0.00  0.00    +0.114 A 
ATOM     12  N   UNL     1      10.401  -1.164  23.938  0.00  0.00    -0.263 NA
ATOM     13  C   UNL     1       9.858  -1.958  22.991  0.00  0.00    +0.111 A 
ATOM     14  C   UNL     1       9.392  -1.493  21.771  0.00  0.00    +0.020 A 
ATOM     15  C   UNL     1       9.483  -0.131  21.505  0.00  0.00    +0.006 A 
ENDBRANCH   9  10
ENDBRANCH   8   9
ENDBRANCH   5   8
ENDBRANCH   3   6
ENDBRANCH   2   3
ENDBRANCH   1   2
BRANCH   1  16
ATOM     16  C   UNL     1       5.573   1.301  25.056  0.00  0.00    +0.004 C 
BRANCH  16  17
ATOM     17  C   UNL     1       6.890   0.621  24.639  0.00  0.00    -0.008 C 
ATOM     18  C   UNL     1       6.566  -0.448  23.566  0.00  0.00    +0.022 C 
ATOM     19  C   UNL     1       5.818  -1.636  24.184  0.00  0.00    +0.108 C 
ATOM     20  N   UNL     1       6.670  -2.232  25.212  0.00  0.00    -0.298 N 
ATOM     21  C   UNL     1       7.249  -3.504  25.222  0.00  0.00    +0.247 C 
ATOM     22  O   UNL     1       8.011  -3.862  26.121  0.00  0.00    -0.270 OA
ATOM     23  C   UNL     1       6.967  -1.317  26.316  0.00  0.00    +0.108 C 
ATOM     24  C   UNL     1       7.655  -0.053  25.801  0.00  0.00    +0.022 C 
BRANCH  21  25
ATOM     25  C   UNL     1       6.910  -4.532  24.191  0.00  0.00    +0.037 A 
ATOM     26  C   UNL     1       5.754  -5.298  24.403  0.00  0.00    +0.013 A 
ATOM     27  C   UNL     1       5.308  -6.197  23.434  0.00  0.00    +0.001 A 
ATOM     28  C   UNL     1       6.003  -6.326  22.233  0.00  0.00    +0.000 A 
ATOM     29  C   UNL     1       7.193  -5.629  22.047  0.00  0.00    +0.001 A 
ATOM     30  C   UNL     1       7.676  -4.787  23.051  0.00  0.00    +0.013 A 
ENDBRANCH  21  25
ENDBRANCH  16  17
ENDBRANCH   1  16
TORSDOF 9
ENDMDL
MODEL 5
REMARK VINA RESULT:      -6.7      3.725      9.080
REMARK  Name = 
REMARK  9 active torsions:
REMARK  status: ('A' for Active; 'I' for Inactive)
REMARK    1  A    between atoms: C_2  and  C_3
REMARK    2  A    between atoms: C_3  and  C_4
REMARK    3  A    between atoms: C_4  and  C_5
REMARK    4  A    between atoms: N_11  and  C_12
REMARK    5  A    between atoms: C_12  and  C_13
REMARK    6  A    between atoms: C_13  and  C_14
REMARK    7  A    between atoms: C_14  and  C_15
REMARK    8  A    between atoms: C_15  and  C_16
REMARK    9  A    between atoms: C_22  and  C_24
REMARK                            x       y       z     vdW  Elec       q    Type
REMARK                         _______ _______ _______ _____ _____    ______ ____
ROOT
ATOM      1  C   UNL     1      10.302   3.212  23.652  0.00  0.00    +0.002 C 
ENDROOT
BRANCH   1   2
ATOM      2  C   UNL     1      11.555   4.032  23.306  0.00  0.00    +0.019 C 
BRANCH   2   3
ATOM      3  C   UNL     1      11.342   5.540  23.479  0.00  0.00    +0.104 C 
BRANCH   3   6
ATOM      4  O   UNL     1       9.211   6.473  25.075  0.00  0.00    -0.276 OA
ATOM      5  C   UNL     1       9.084   6.447  23.857  0.00  0.00    +0.213 C 
ATOM      6  N   UNL     1      10.048   5.966  22.998  0.00  0.00    -0.315 N 
ATOM      7  H   UNL     1       9.873   5.949  22.002  0.00  0.00    +0.149 HD
BRANCH   5   8
ATOM      8  C   UNL     1       7.837   6.924  23.144  0.00  0.00    +0.100 C 
BRANCH   8   9
ATOM      9  C   UNL     1       7.453   5.960  22.024  0.00  0.00    +0.046 C 
BRANCH   9  10
ATOM     10  C   UNL     1       6.693   4.771  22.544  0.00  0.00    -0.029 A 
ATOM     11  C   UNL     1       5.700   4.924  23.509  0.00  0.00    +0.114 A 
ATOM     12  N   UNL     1       4.978   3.904  24.023  0.00  0.00    -0.263 NA
ATOM     13  C   UNL     1       5.257   2.670  23.556  0.00  0.00    +0.111 A 
ATOM     14  C   UNL     1       6.232   2.407  22.605  0.00  0.00    +0.020 A 
ATOM     15  C   UNL     1       6.963   3.477  22.098  0.00  0.00    +0.006 A 
ENDBRANCH   9  10
ENDBRANCH   8   9
ENDBRANCH   5   8
ENDBRANCH   3   6
ENDBRANCH   2   3
ENDBRANCH   1   2
BRANCH   1  16
ATOM     16  C   UNL     1      10.181   1.990  22.746  0.00  0.00    +0.004 C 
BRANCH  16  17
ATOM     17  C   UNL     1      10.605   0.633  23.337  0.00  0.00    -0.008 C 
ATOM     18  C   UNL     1       9.990  -0.490  22.465  0.00  0.00    +0.022 C 
ATOM     19  C   UNL     1       8.469  -0.561  22.655  0.00  0.00    +0.108 C 
ATOM     20  N   UNL     1       8.194  -0.843  24.063  0.00  0.00    -0.298 N 
ATOM     21  C   UNL     1       7.603  -1.982  24.616  0.00  0.00    +0.247 C 
ATOM     22  O   UNL     1       7.491  -2.129  25.833  0.00  0.00    -0.270 OA
ATOM     23  C   UNL     1       8.670   0.208  24.964  0.00  0.00    +0.108 C 
ATOM     24  C   UNL     1      10.175   0.416  24.806  0.00  0.00    +0.022 C 
BRANCH  21  25
ATOM     25  C   UNL     1       6.995  -3.048  23.761  0.00  0.00    +0.037 A 
ATOM     26  C   UNL     1       7.807  -4.142  23.424  0.00  0.00    +0.013 A 
ATOM     27  C   UNL     1       7.281  -5.230  22.727  0.00  0.00    +0.001 A 
ATOM     28  C   UNL     1       5.932  -5.244  22.376  0.00  0.00    +0.000 A 
ATOM     29  C   UNL     1       5.139  -4.131  22.636  0.00  0.00    +0.001 A 
ATOM     30  C   UNL     1       5.689  -3.012  23.267  0.00  0.00    +0.013 A 
ENDBRANCH  21  25
ENDBRANCH  16  17
ENDBRANCH   1  16
TORSDOF 9
ENDMDL
MODEL 6
REMARK VINA RESULT:      -6.7      2.188      3.901
REMARK  Name = 
REMARK  9 active torsions:
REMARK  status: ('A' for Active; 'I' for Inactive)
REMARK    1  A    between atoms: C_2  and  C_3
REMARK    2  A    between atoms: C_3  and  C_4
REMARK    3  A    between atoms: C_4  and  C_5
REMARK    4  A    between atoms: N_11  and  C_12
REMARK    5  A    between atoms: C_12  and  C_13
REMARK    6  A    between atoms: C_13  and  C_14
REMARK    7  A    between atoms: C_14  and  C_15
REMARK    8  A    between atoms: C_15  and  C_16
REMARK    9  A    between atoms: C_22  and  C_24
REMARK                            x       y       z     vdW  Elec       q    Type
REMARK                         _______ _______ _______ _____ _____    ______ ____
ROOT
ATOM      1  C   UNL     1       7.489  -4.681  23.082  0.00  0.00    +0.002 C 
ENDROOT
BRANCH   1   2
ATOM      2  C   UNL     1       7.298  -5.499  21.795  0.00  0.00    +0.019 C 
BRANCH   2   3
ATOM      3  C   UNL     1       5.867  -6.021  21.633  0.00  0.00    +0.104 C 
BRANCH   3   6
ATOM      4  O   UNL     1       3.558  -4.868  22.776  0.00  0.00    -0.276 OA
ATOM      5  C   UNL     1       4.117  -5.793  23.352  0.00  0.00    +0.213 C 
ATOM      6  N   UNL     1       5.275  -6.389  22.899  0.00  0.00    -0.315 N 
ATOM      7  H   UNL     1       5.702  -7.133  23.434  0.00  0.00    +0.149 HD
BRANCH   5   8
ATOM      8  C   UNL     1       3.615  -6.385  24.651  0.00  0.00    +0.100 C 
BRANCH   8   9
ATOM      9  C   UNL     1       3.664  -5.349  25.772  0.00  0.00    +0.046 C 
BRANCH   9  10
ATOM     10  C   UNL     1       5.076  -5.022  26.171  0.00  0.00    -0.029 A 
ATOM     11  C   UNL     1       6.008  -6.032  26.400  0.00  0.00    +0.114 A 
ATOM     12  N   UNL     1       7.291  -5.813  26.761  0.00  0.00    -0.263 NA
ATOM     13  C   UNL     1       7.669  -4.526  26.902  0.00  0.00    +0.111 A 
ATOM     14  C   UNL     1       6.819  -3.448  26.708  0.00  0.00    +0.020 A 
ATOM     15  C   UNL     1       5.502  -3.703  26.342  0.00  0.00    +0.006 A 
ENDBRANCH   9  10
ENDBRANCH   8   9
ENDBRANCH   5   8
ENDBRANCH   3   6
ENDBRANCH   2   3
ENDBRANCH   1   2
BRANCH   1  16
ATOM     16  C   UNL     1       7.586  -3.189  22.772  0.00  0.00    +0.004 C 
BRANCH  16  17
ATOM     17  C   UNL     1       8.652  -2.381  23.535  0.00  0.00    -0.008 C 
ATOM     18  C   UNL     1       7.956  -1.173  24.209  0.00  0.00    +0.022 C 
ATOM     19  C   UNL     1       7.513  -0.141  23.163  0.00  0.00    +0.108 C 
ATOM     20  N   UNL     1       8.699   0.327  22.449  0.00  0.00    -0.298 N 
ATOM     21  C   UNL     1       9.253   1.610  22.443  0.00  0.00    +0.247 C 
ATOM     22  O   UNL     1      10.304   1.861  21.852  0.00  0.00    -0.270 OA
ATOM     23  C   UNL     1       9.384  -0.736  21.710  0.00  0.00    +0.108 C 
ATOM     24  C   UNL     1       9.810  -1.861  22.652  0.00  0.00    +0.022 C 
BRANCH  21  25
ATOM     25  C   UNL     1       8.558   2.771  23.080  0.00  0.00    +0.037 A 
ATOM     26  C   UNL     1       7.627   3.471  22.298  0.00  0.00    +0.013 A 
ATOM     27  C   UNL     1       6.855   4.492  22.853  0.00  0.00    +0.001 A 
ATOM     28  C   UNL     1       6.992   4.811  24.202  0.00  0.00    +0.000 A 
ATOM     29  C   UNL     1       7.968   4.177  24.966  0.00  0.00    +0.001 A 
ATOM     30  C   UNL     1       8.790   3.208  24.387  0.00  0.00    +0.013 A 
ENDBRANCH  21  25
ENDBRANCH  16  17
ENDBRANCH   1  16
TORSDOF 9
ENDMDL
MODEL 7
REMARK VINA RESULT:      -6.5      2.307      5.934
REMARK  Name = 
REMARK  9 active torsions:
REMARK  status: ('A' for Active; 'I' for Inactive)
REMARK    1  A    between atoms: C_2  and  C_3
REMARK    2  A    between atoms: C_3  and  C_4
REMARK    3  A    between atoms: C_4  and  C_5
REMARK    4  A    between atoms: N_11  and  C_12
REMARK    5  A    between atoms: C_12  and  C_13
REMARK    6  A    between atoms: C_13  and  C_14
REMARK    7  A    between atoms: C_14  and  C_15
REMARK    8  A    between atoms: C_15  and  C_16
REMARK    9  A    between atoms: C_22  and  C_24
REMARK                            x       y       z     vdW  Elec       q    Type
REMARK                         _______ _______ _______ _____ _____    ______ ____
ROOT
ATOM      1  C   UNL     1       9.234   2.204  24.415  0.00  0.00    +0.002 C 
ENDROOT
BRANCH   1   2
ATOM      2  C   UNL     1       7.779   2.538  24.783  0.00  0.00    +0.019 C 
BRANCH   2   3
ATOM      3  C   UNL     1       7.320   1.847  26.071  0.00  0.00    +0.104 C 
BRANCH   3   6
ATOM      4  O   UNL     1       4.757   0.968  25.286  0.00  0.00    -0.276 OA
ATOM      5  C   UNL     1       5.659   0.149  25.418  0.00  0.00    +0.213 C 
ATOM      6  N   UNL     1       6.929   0.474  25.843  0.00  0.00    -0.315 N 
ATOM      7  H   UNL     1       7.624  -0.252  25.956  0.00  0.00    +0.149 HD
BRANCH   5   8
ATOM      8  C   UNL     1       5.482  -1.329  25.151  0.00  0.00    +0.100 C 
BRANCH   8   9
ATOM      9  C   UNL     1       6.113  -2.160  26.267  0.00  0.00    +0.046 C 
BRANCH   9  10
ATOM     10  C   UNL     1       5.837  -3.627  26.097  0.00  0.00    -0.029 A 
ATOM     11  C   UNL     1       6.637  -4.583  26.719  0.00  0.00    +0.114 A 
ATOM     12  N   UNL     1       6.450  -5.916  26.612  0.00  0.00    -0.263 NA
ATOM     13  C   UNL     1       5.416  -6.323  25.846  0.00  0.00    +0.111 A 
ATOM     14  C   UNL     1       4.567  -5.456  25.176  0.00  0.00    +0.020 A 
ATOM     15  C   UNL     1       4.787  -4.088  25.301  0.00  0.00    +0.006 A 
ENDBRANCH   9  10
ENDBRANCH   8   9
ENDBRANCH   5   8
ENDBRANCH   3   6
ENDBRANCH   2   3
ENDBRANCH   1   2
BRANCH   1  16
ATOM     16  C   UNL     1       9.375   1.953  22.916  0.00  0.00    +0.004 C 
BRANCH  16  17
ATOM     17  C   UNL     1      10.144   0.692  22.484  0.00  0.00    -0.008 C 
ATOM     18  C   UNL     1       9.173  -0.225  21.700  0.00  0.00    +0.022 C 
ATOM     19  C   UNL     1       8.123  -0.840  22.634  0.00  0.00    +0.108 C 
ATOM     20  N   UNL     1       8.818  -1.634  23.646  0.00  0.00    -0.298 N 
ATOM     21  C   UNL     1       8.769  -3.017  23.842  0.00  0.00    +0.247 C 
ATOM     22  O   UNL     1       9.462  -3.576  24.692  0.00  0.00    -0.270 OA
ATOM     23  C   UNL     1       9.704  -0.835  24.496  0.00  0.00    +0.108 C 
ATOM     24  C   UNL     1      10.755  -0.114  23.654  0.00  0.00    +0.022 C 
BRANCH  21  25
ATOM     25  C   UNL     1       7.811  -3.885  23.091  0.00  0.00    +0.037 A 
ATOM     26  C   UNL     1       6.863  -3.244  22.280  0.00  0.00    +0.013 A 
ATOM     27  C   UNL     1       6.010  -3.984  21.460  0.00  0.00    +0.001 A 
ATOM     28  C   UNL     1       6.109  -5.374  21.430  0.00  0.00    +0.000 A 
ATOM     29  C   UNL     1       6.991  -6.022  22.289  0.00  0.00    +0.001 A 
ATOM     30  C   UNL     1       7.790  -5.280  23.162  0.00  0.00    +0.013 A 
ENDBRANCH  21  25
ENDBRANCH  16  17
ENDBRANCH   1  16
TORSDOF 9
ENDMDL
MODEL 8
REMARK VINA RESULT:      -6.4      2.361      4.009
REMARK  Name = 
REMARK  9 active torsions:
REMARK  status: ('A' for Active; 'I' for Inactive)
REMARK    1  A    between atoms: C_2  and  C_3
REMARK    2  A    between atoms: C_3  and  C_4
REMARK    3  A    between atoms: C_4  and  C_5
REMARK    4  A    between atoms: N_11  and  C_12
REMARK    5  A    between atoms: C_12  and  C_13
REMARK    6  A    between atoms: C_13  and  C_14
REMARK    7  A    between atoms: C_14  and  C_15
REMARK    8  A    between atoms: C_15  and  C_16
REMARK    9  A    between atoms: C_22  and  C_24
REMARK                            x       y       z     vdW  Elec       q    Type
REMARK                         _______ _______ _______ _____ _____    ______ ____
ROOT
ATOM      1  C   UNL     1       8.607  -3.385  23.672  0.00  0.00    +0.002 C 
ENDROOT
BRANCH   1   2
ATOM      2  C   UNL     1       9.446  -3.536  24.952  0.00  0.00    +0.019 C 
BRANCH   2   3
ATOM      3  C   UNL     1       8.607  -3.404  26.228  0.00  0.00    +0.104 C 
BRANCH   3   6
ATOM      4  O   UNL     1       6.217  -1.979  26.691  0.00  0.00    -0.276 OA
ATOM      5  C   UNL     1       6.160  -3.127  26.267  0.00  0.00    +0.213 C 
ATOM      6  N   UNL     1       7.268  -3.919  26.055  0.00  0.00    -0.315 N 
ATOM      7  H   UNL     1       7.154  -4.869  25.726  0.00  0.00    +0.149 HD
BRANCH   5   8
ATOM      8  C   UNL     1       4.859  -3.828  25.943  0.00  0.00    +0.100 C 
BRANCH   8   9
ATOM      9  C   UNL     1       4.313  -3.361  24.595  0.00  0.00    +0.046 C 
BRANCH   9  10
ATOM     10  C   UNL     1       4.980  -4.065  23.447  0.00  0.00    -0.029 A 
ATOM     11  C   UNL     1       5.339  -3.371  22.293  0.00  0.00    +0.114 A 
ATOM     12  N   UNL     1       5.939  -3.936  21.223  0.00  0.00    -0.263 NA
ATOM     13  C   UNL     1       6.196  -5.259  21.301  0.00  0.00    +0.111 A 
ATOM     14  C   UNL     1       5.870  -6.043  22.398  0.00  0.00    +0.020 A 
ATOM     15  C   UNL     1       5.248  -5.434  23.483  0.00  0.00    +0.006 A 
ENDBRANCH   9  10
ENDBRANCH   8   9
ENDBRANCH   5   8
ENDBRANCH   3   6
ENDBRANCH   2   3
ENDBRANCH   1   2
BRANCH   1  16
ATOM     16  C   UNL     1       9.192  -2.311  22.760  0.00  0.00    +0.004 C 
BRANCH  16  17
ATOM     17  C   UNL     1       8.298  -1.099  22.438  0.00  0.00    -0.008 C 
ATOM     18  C   UNL     1       9.201   0.049  21.926  0.00  0.00    +0.022 C 
ATOM     19  C   UNL     1      10.057   0.623  23.063  0.00  0.00    +0.108 C 
ATOM     20  N   UNL     1       9.162   1.143  24.094  0.00  0.00    -0.298 N 
ATOM     21  C   UNL     1       8.995   2.468  24.505  0.00  0.00    +0.247 C 
ATOM     22  O   UNL     1       8.150   2.786  25.343  0.00  0.00    -0.270 OA
ATOM     23  C   UNL     1       8.319   0.109  24.699  0.00  0.00    +0.108 C 
ATOM     24  C   UNL     1       7.468  -0.584  23.637  0.00  0.00    +0.022 C 
BRANCH  21  25
ATOM     25  C   UNL     1       9.889   3.562  24.017  0.00  0.00    +0.037 A 
ATOM     26  C   UNL     1       9.381   4.870  24.050  0.00  0.00    +0.013 A 
ATOM     27  C   UNL     1      10.191   5.958  23.720  0.00  0.00    +0.001 A 
ATOM     28  C   UNL     1      11.524   5.750  23.371  0.00  0.00    +0.000 A 
ATOM     29  C   UNL     1      12.014   4.452  23.258  0.00  0.00    +0.001 A 
ATOM     30  C   UNL     1      11.178   3.363  23.517  0.00  0.00    +0.013 A 
ENDBRANCH  21  25
ENDBRANCH  16  17
ENDBRANCH   1  16
TORSDOF 9
ENDMDL
MODEL 9
REMARK VINA RESULT:      -6.2      2.775      7.684
REMARK  Name = 
REMARK  9 active torsions:
REMARK  status: ('A' for Active; 'I' for Inactive)
REMARK    1  A    between atoms: C_2  and  C_3
REMARK    2  A    between atoms: C_3  and  C_4
REMARK    3  A    between atoms: C_4  and  C_5
REMARK    4  A    between atoms: N_11  and  C_12
REMARK    5  A    between atoms: C_12  and  C_13
REMARK    6  A    between atoms: C_13  and  C_14
REMARK    7  A    between atoms: C_14  and  C_15
REMARK    8  A    between atoms: C_15  and  C_16
REMARK    9  A    between atoms: C_22  and  C_24
REMARK                            x       y       z     vdW  Elec       q    Type
REMARK                         _______ _______ _______ _____ _____    ______ ____
ROOT
ATOM      1  C   UNL     1       7.952   3.410  25.582  0.00  0.00    +0.002 C 
ENDROOT
BRANCH   1   2
ATOM      2  C   UNL     1       7.389   4.058  24.307  0.00  0.00    +0.019 C 
BRANCH   2   3
ATOM      3  C   UNL     1       8.464   4.299  23.242  0.00  0.00    +0.104 C 
BRANCH   3   6
ATOM      4  O   UNL     1       7.774   2.167  21.527  0.00  0.00    -0.276 OA
ATOM      5  C   UNL     1       8.854   2.149  22.104  0.00  0.00    +0.213 C 
ATOM      6  N   UNL     1       9.261   3.119  22.996  0.00  0.00    -0.315 N 
ATOM      7  H   UNL     1      10.156   3.035  23.460  0.00  0.00    +0.149 HD
BRANCH   5   8
ATOM      8  C   UNL     1       9.872   1.044  21.925  0.00  0.00    +0.100 C 
BRANCH   8   9
ATOM      9  C   UNL     1       9.240  -0.171  21.250  0.00  0.00    +0.046 C 
BRANCH   9  10
ATOM     10  C   UNL     1       9.117  -1.334  22.194  0.00  0.00    -0.029 A 
ATOM     11  C   UNL     1      10.173  -1.693  23.029  0.00  0.00    +0.114 A 
ATOM     12  N   UNL     1      10.136  -2.725  23.900  0.00  0.00    -0.263 NA
ATOM     13  C   UNL     1       8.992  -3.439  23.943  0.00  0.00    +0.111 A 
ATOM     14  C   UNL     1       7.887  -3.173  23.148  0.00  0.00    +0.020 A 
ATOM     15  C   UNL     1       7.957  -2.107  22.257  0.00  0.00    +0.006 A 
ENDBRANCH   9  10
ENDBRANCH   8   9
ENDBRANCH   5   8
ENDBRANCH   3   6
ENDBRANCH   2   3
ENDBRANCH   1   2
BRANCH   1  16
ATOM     16  C   UNL     1       7.207   2.118  25.912  0.00  0.00    +0.004 C 
BRANCH  16  17
ATOM     17  C   UNL     1       7.581   0.865  25.100  0.00  0.00    -0.008 C 
ATOM     18  C   UNL     1       6.286   0.280  24.486  0.00  0.00    +0.022 C 
ATOM     19  C   UNL     1       5.395  -0.341  25.571  0.00  0.00    +0.108 C 
ATOM     20  N   UNL     1       6.145  -1.415  26.220  0.00  0.00    -0.298 N 
ATOM     21  C   UNL     1       5.872  -2.786  26.212  0.00  0.00    +0.247 C 
ATOM     22  O   UNL     1       6.627  -3.601  26.744  0.00  0.00    -0.270 OA
ATOM     23  C   UNL     1       7.352  -0.944  26.902  0.00  0.00    +0.108 C 
ATOM     24  C   UNL     1       8.287  -0.239  25.921  0.00  0.00    +0.022 C 
BRANCH  21  25
ATOM     25  C   UNL     1       4.607  -3.333  25.633  0.00  0.00    +0.037 A 
ATOM     26  C   UNL     1       4.649  -3.781  24.304  0.00  0.00    +0.013 A 
ATOM     27  C   UNL     1       3.544  -4.409  23.729  0.00  0.00    +0.001 A 
ATOM     28  C   UNL     1       2.390  -4.613  24.483  0.00  0.00    +0.000 A 
ATOM     29  C   UNL     1       2.311  -4.102  25.775  0.00  0.00    +0.001 A 
ATOM     30  C   UNL     1       3.393  -3.408  26.321  0.00  0.00    +0.013 A 
ENDBRANCH  21  25
ENDBRANCH  16  17
ENDBRANCH   1  16
TORSDOF 9
ENDMDL
