MODEL 1
REMARK VINA RESULT:      -7.0      0.000      0.000
REMARK  Name = 
REMARK  18 active torsions:
REMARK  status: ('A' for Active; 'I' for Inactive)
REMARK    1  A    between atoms: O_1  and  C_2
REMARK    2  A    between atoms: C_2  and  CA_3
REMARK    3  A    between atoms: N_7  and  O_8
REMARK    4  A    between atoms: C_9  and  O_11
REMARK    5  A    between atoms: C_12  and  O_14
REMARK    6  A    between atoms: C_15  and  O_17
REMARK    7  A    between atoms: O_17  and  C_18
REMARK    8  A    between atoms: C_21  and  C_23
REMARK    9  A    between atoms: C_23  and  O_24
REMARK   10  A    between atoms: C_25  and  O_27
REMARK   11  A    between atoms: O_27  and  C_28
REMARK   12  A    between atoms: C_31  and  C_33
REMARK   13  A    between atoms: C_33  and  O_34
REMARK   14  A    between atoms: C_35  and  O_37
REMARK   15  A    between atoms: C_38  and  O_40
REMARK   16  A    between atoms: C_41  and  O_43
REMARK   17  A    between atoms: C_44  and  O_46
REMARK   18  A    between atoms: C_47  and  O_49
REMARK                            x       y       z     vdW  Elec       q    Type
REMARK                         _______ _______ _______ _____ _____    ______ ____
ROOT
ATOM      1  C   UNL     1       6.254  -5.619  23.633  0.00  0.00    +0.282 C 
ATOM      2  C   UNL     1       5.647  -4.282  23.167  0.00  0.00    +0.201 C 
ATOM      3  C   UNL     1       6.718  -3.204  22.958  0.00  0.00    +0.179 C 
ATOM      4  C   UNL     1       7.845  -3.145  24.027  0.00  0.00    +0.183 C 
ATOM      5  C   UNL     1       8.344  -4.597  24.258  0.00  0.00    +0.178 C 
ATOM      6  O   UNL     1       7.210  -5.388  24.646  0.00  0.00    -0.341 OA
ENDROOT
BRANCH   3   7
ATOM      7  O   UNL     1       6.061  -1.923  22.898  0.00  0.00    -0.386 OA
ATOM      8  H   UNL     1       6.582  -1.323  23.459  0.00  0.00    +0.210 HD
ENDBRANCH   3   7
BRANCH   2   9
ATOM      9  O   UNL     1       4.883  -4.484  21.957  0.00  0.00    -0.384 OA
ATOM     10  H   UNL     1       5.322  -4.027  21.220  0.00  0.00    +0.210 HD
ENDBRANCH   2   9
BRANCH   4  11
ATOM     11  O   UNL     1       8.730  -2.148  23.467  0.00  0.00    -0.340 OA
BRANCH  11  12
ATOM     12  C   UNL     1       9.503  -1.313  24.321  0.00  0.00    +0.282 C 
ATOM     13  C   UNL     1       8.659  -0.343  25.192  0.00  0.00    +0.201 C 
ATOM     14  C   UNL     1       8.189   0.878  24.379  0.00  0.00    +0.179 C 
ATOM     15  C   UNL     1       9.376   1.508  23.638  0.00  0.00    +0.177 C 
ATOM     16  C   UNL     1      10.119   0.479  22.768  0.00  0.00    +0.178 C 
ATOM     17  O   UNL     1      10.523  -0.643  23.555  0.00  0.00    -0.341 OA
BRANCH  13  18
ATOM     18  O   UNL     1       9.400   0.055  26.359  0.00  0.00    -0.384 OA
ATOM     19  H   UNL     1       9.188  -0.593  27.068  0.00  0.00    +0.210 HD
ENDBRANCH  13  18
BRANCH  15  20
ATOM     20  O   UNL     1      10.274   2.006  24.662  0.00  0.00    -0.386 OA
ATOM     21  H   UNL     1      10.957   2.550  24.227  0.00  0.00    +0.210 HD
ENDBRANCH  15  20
BRANCH  14  22
ATOM     22  O   UNL     1       7.114   0.571  23.492  0.00  0.00    -0.386 OA
ATOM     23  H   UNL     1       7.401  -0.082  22.833  0.00  0.00    +0.210 HD
ENDBRANCH  14  22
BRANCH  16  24
ATOM     24  C   UNL     1       9.419   0.052  21.474  0.00  0.00    +0.190 C 
BRANCH  24  25
ATOM     25  O   UNL     1       8.746   1.147  20.868  0.00  0.00    -0.392 OA
ATOM     26  H   UNL     1       8.523   1.776  21.578  0.00  0.00    +0.210 HD
ENDBRANCH  24  25
ENDBRANCH  16  24
ENDBRANCH  11  12
ENDBRANCH   4  11
BRANCH   5  27
ATOM     27  C   UNL     1       9.295  -4.880  25.435  0.00  0.00    +0.190 C 
BRANCH  27  28
ATOM     28  O   UNL     1      10.597  -5.273  25.076  0.00  0.00    -0.392 OA
ATOM     29  H   UNL     1      10.861  -4.772  24.277  0.00  0.00    +0.210 HD
ENDBRANCH  27  28
ENDBRANCH   5  27
BRANCH   1  30
ATOM     30  O   UNL     1       5.197  -6.405  24.197  0.00  0.00    -0.339 OA
BRANCH  30  32
ATOM     31  CA  UNL     1       2.850  -6.075  24.692  0.00  0.00    +0.221 C 
ATOM     32  C   UNL     1       4.305  -5.708  25.083  0.00  0.00    +0.198 C 
ATOM     33  C   UNL     1       4.674  -5.917  26.579  0.00  0.00    +0.188 C 
ATOM     34  C   UNL     1       3.553  -5.483  27.543  0.00  0.00    +0.265 C 
ATOM     35  C   UNL     1       2.268  -6.141  27.042  0.00  0.00    +0.365 C 
ATOM     36  N   UNL     1       1.657  -7.030  27.783  0.00  0.00    +0.149 NA
ATOM     37  N   UNL     1       1.885  -5.802  25.767  0.00  0.00    -0.224 N 
ATOM     38  H   UNL     1       1.004  -6.277  25.540  0.00  0.00    +0.292 HD
BRANCH  36  39
ATOM     39  O   UNL     1       0.562  -7.562  27.085  0.00  0.00    -0.311 OA
ATOM     40  H   UNL     1       0.608  -8.509  27.313  0.00  0.00    +0.361 HD
ENDBRANCH  36  39
BRANCH  34  41
ATOM     41  O   UNL     1       3.890  -5.777  28.888  0.00  0.00    -0.378 OA
ATOM     42  H   UNL     1       3.155  -5.435  29.430  0.00  0.00    +0.211 HD
ENDBRANCH  34  41
BRANCH  33  43
ATOM     43  O   UNL     1       5.098  -7.266  26.848  0.00  0.00    -0.386 OA
ATOM     44  H   UNL     1       5.839  -7.485  26.256  0.00  0.00    +0.210 HD
ENDBRANCH  33  43
BRANCH  31  45
ATOM     45  C   UNL     1       2.649  -7.521  24.197  0.00  0.00    +0.205 C 
BRANCH  45  46
ATOM     46  O   UNL     1       3.048  -8.414  25.244  0.00  0.00    -0.391 OA
ATOM     47  H   UNL     1       3.934  -8.745  25.015  0.00  0.00    +0.210 HD
ENDBRANCH  45  46
ENDBRANCH  31  45
ENDBRANCH  30  32
ENDBRANCH   1  30
TORSDOF 18
ENDMDL
MODEL 2
REMARK VINA RESULT:      -6.8      1.885      2.946
REMARK  Name = 
REMARK  18 active torsions:
REMARK  status: ('A' for Active; 'I' for Inactive)
REMARK    1  A    between atoms: O_1  and  C_2
REMARK    2  A    between atoms: C_2  and  CA_3
REMARK    3  A    between atoms: N_7  and  O_8
REMARK    4  A    between atoms: C_9  and  O_11
REMARK    5  A    between atoms: C_12  and  O_14
REMARK    6  A    between atoms: C_15  and  O_17
REMARK    7  A    between atoms: O_17  and  C_18
REMARK    8  A    between atoms: C_21  and  C_23
REMARK    9  A    between atoms: C_23  and  O_24
REMARK   10  A    between atoms: C_25  and  O_27
REMARK   11  A    between atoms: O_27  and  C_28
REMARK   12  A    between atoms: C_31  and  C_33
REMARK   13  A    between atoms: C_33  and  O_34
REMARK   14  A    between atoms: C_35  and  O_37
REMARK   15  A    between atoms: C_38  and  O_40
REMARK   16  A    between atoms: C_41  and  O_43
REMARK   17  A    between atoms: C_44  and  O_46
REMARK   18  A    between atoms: C_47  and  O_49
REMARK                            x       y       z     vdW  Elec       q    Type
REMARK                         _______ _______ _______ _____ _____    ______ ____
ROOT
ATOM      1  C   UNL     1       7.475  -4.363  25.005  0.00  0.00    +0.282 C 
ATOM      2  C   UNL     1       6.632  -3.846  23.824  0.00  0.00    +0.201 C 
ATOM      3  C   UNL     1       7.085  -2.455  23.359  0.00  0.00    +0.179 C 
ATOM      4  C   UNL     1       7.443  -1.442  24.482  0.00  0.00    +0.183 C 
ATOM      5  C   UNL     1       8.359  -2.177  25.498  0.00  0.00    +0.178 C 
ATOM      6  O   UNL     1       7.650  -3.338  25.960  0.00  0.00    -0.341 OA
ENDROOT
BRANCH   3   7
ATOM      7  O   UNL     1       6.043  -1.895  22.536  0.00  0.00    -0.386 OA
ATOM      8  H   UNL     1       5.346  -1.596  23.144  0.00  0.00    +0.210 HD
ENDBRANCH   3   7
BRANCH   2   9
ATOM      9  O   UNL     1       6.684  -4.791  22.732  0.00  0.00    -0.384 OA
ATOM     10  H   UNL     1       6.718  -5.694  23.091  0.00  0.00    +0.210 HD
ENDBRANCH   2   9
BRANCH   4  11
ATOM     11  O   UNL     1       7.947  -0.322  23.720  0.00  0.00    -0.340 OA
BRANCH  11  12
ATOM     12  C   UNL     1       7.363   0.967  23.865  0.00  0.00    +0.282 C 
ATOM     13  C   UNL     1       7.016   1.661  22.520  0.00  0.00    +0.201 C 
ATOM     14  C   UNL     1       8.268   2.273  21.864  0.00  0.00    +0.179 C 
ATOM     15  C   UNL     1       9.030   3.133  22.881  0.00  0.00    +0.177 C 
ATOM     16  C   UNL     1       9.368   2.344  24.158  0.00  0.00    +0.178 C 
ATOM     17  O   UNL     1       8.183   1.780  24.726  0.00  0.00    -0.341 OA
BRANCH  13  18
ATOM     18  O   UNL     1       5.989   2.649  22.716  0.00  0.00    -0.384 OA
ATOM     19  H   UNL     1       6.192   3.396  22.111  0.00  0.00    +0.210 HD
ENDBRANCH  13  18
BRANCH  15  20
ATOM     20  O   UNL     1       8.152   4.236  23.217  0.00  0.00    -0.386 OA
ATOM     21  H   UNL     1       7.529   4.363  22.476  0.00  0.00    +0.210 HD
ENDBRANCH  15  20
BRANCH  14  22
ATOM     22  O   UNL     1       9.113   1.292  21.262  0.00  0.00    -0.386 OA
ATOM     23  H   UNL     1       8.733   0.997  20.418  0.00  0.00    +0.210 HD
ENDBRANCH  14  22
BRANCH  16  24
ATOM     24  C   UNL     1      10.498   1.315  24.043  0.00  0.00    +0.190 C 
BRANCH  24  25
ATOM     25  O   UNL     1      10.656   0.588  25.252  0.00  0.00    -0.392 OA
ATOM     26  H   UNL     1      10.982  -0.299  25.014  0.00  0.00    +0.210 HD
ENDBRANCH  24  25
ENDBRANCH  16  24
ENDBRANCH  11  12
ENDBRANCH   4  11
BRANCH   5  27
ATOM     27  C   UNL     1       8.680  -1.496  26.840  0.00  0.00    +0.190 C 
BRANCH  27  28
ATOM     28  O   UNL     1       8.388  -0.121  26.903  0.00  0.00    -0.392 OA
ATOM     29  H   UNL     1       8.909   0.271  27.634  0.00  0.00    +0.210 HD
ENDBRANCH  27  28
ENDBRANCH   5  27
BRANCH   1  30
ATOM     30  O   UNL     1       6.743  -5.424  25.631  0.00  0.00    -0.339 OA
BRANCH  30  32
ATOM     31  CA  UNL     1       4.485  -5.744  26.445  0.00  0.00    +0.221 C 
ATOM     32  C   UNL     1       5.841  -5.029  26.677  0.00  0.00    +0.198 C 
ATOM     33  C   UNL     1       6.462  -5.207  28.092  0.00  0.00    +0.188 C 
ATOM     34  C   UNL     1       5.419  -5.128  29.223  0.00  0.00    +0.265 C 
ATOM     35  C   UNL     1       4.283  -6.074  28.835  0.00  0.00    +0.365 C 
ATOM     36  N   UNL     1       4.029  -7.126  29.570  0.00  0.00    +0.149 NA
ATOM     37  N   UNL     1       3.648  -5.785  27.652  0.00  0.00    -0.224 N 
ATOM     38  H   UNL     1       2.891  -6.462  27.499  0.00  0.00    +0.292 HD
BRANCH  36  39
ATOM     39  O   UNL     1       3.015  -7.892  28.974  0.00  0.00    -0.311 OA
ATOM     40  H   UNL     1       2.321  -7.891  29.659  0.00  0.00    +0.361 HD
ENDBRANCH  36  39
BRANCH  34  41
ATOM     41  O   UNL     1       6.009  -5.389  30.485  0.00  0.00    -0.378 OA
ATOM     42  H   UNL     1       6.721  -4.731  30.589  0.00  0.00    +0.211 HD
ENDBRANCH  34  41
BRANCH  33  43
ATOM     43  O   UNL     1       7.246  -6.410  28.191  0.00  0.00    -0.386 OA
ATOM     44  H   UNL     1       8.018  -6.329  27.602  0.00  0.00    +0.210 HD
ENDBRANCH  33  43
BRANCH  31  45
ATOM     45  C   UNL     1       4.585  -7.167  25.859  0.00  0.00    +0.205 C 
BRANCH  45  46
ATOM     46  O   UNL     1       3.297  -7.786  25.960  0.00  0.00    -0.391 OA
ATOM     47  H   UNL     1       3.202  -8.099  26.877  0.00  0.00    +0.210 HD
ENDBRANCH  45  46
ENDBRANCH  31  45
ENDBRANCH  30  32
ENDBRANCH   1  30
TORSDOF 18
ENDMDL
MODEL 3
REMARK VINA RESULT:      -6.6      1.192      2.013
REMARK  Name = 
REMARK  18 active torsions:
REMARK  status: ('A' for Active; 'I' for Inactive)
REMARK    1  A    between atoms: O_1  and  C_2
REMARK    2  A    between atoms: C_2  and  CA_3
REMARK    3  A    between atoms: N_7  and  O_8
REMARK    4  A    between atoms: C_9  and  O_11
REMARK    5  A    between atoms: C_12  and  O_14
REMARK    6  A    between atoms: C_15  and  O_17
REMARK    7  A    between atoms: O_17  and  C_18
REMARK    8  A    between atoms: C_21  and  C_23
REMARK    9  A    between atoms: C_23  and  O_24
REMARK   10  A    between atoms: C_25  and  O_27
REMARK   11  A    between atoms: O_27  and  C_28
REMARK   12  A    between atoms: C_31  and  C_33
REMARK   13  A    between atoms: C_33  and  O_34
REMARK   14  A    between atoms: C_35  and  O_37
REMARK   15  A    between atoms: C_38  and  O_40
REMARK   16  A    between atoms: C_41  and  O_43
REMARK   17  A    between atoms: C_44  and  O_46
REMARK   18  A    between atoms: C_47  and  O_49
REMARK                            x       y       z     vdW  Elec       q    Type
REMARK                         _______ _______ _______ _____ _____    ______ ____
ROOT
ATOM      1  C   UNL     1       6.011  -5.236  24.187  0.00  0.00    +0.282 C 
ATOM      2  C   UNL     1       5.265  -3.919  23.899  0.00  0.00    +0.201 C 
ATOM      3  C   UNL     1       6.206  -2.707  23.919  0.00  0.00    +0.179 C 
ATOM      4  C   UNL     1       7.277  -2.693  25.045  0.00  0.00    +0.183 C 
ATOM      5  C   UNL     1       7.938  -4.097  25.078  0.00  0.00    +0.178 C 
ATOM      6  O   UNL     1       6.893  -5.063  25.275  0.00  0.00    -0.341 OA
ENDROOT
BRANCH   3   7
ATOM      7  O   UNL     1       5.403  -1.515  24.020  0.00  0.00    -0.386 OA
ATOM      8  H   UNL     1       5.949  -0.857  24.482  0.00  0.00    +0.210 HD
ENDBRANCH   3   7
BRANCH   2   9
ATOM      9  O   UNL     1       4.578  -4.010  22.631  0.00  0.00    -0.384 OA
ATOM     10  H   UNL     1       4.619  -4.926  22.309  0.00  0.00    +0.210 HD
ENDBRANCH   2   9
BRANCH   4  11
ATOM     11  O   UNL     1       8.057  -1.526  24.696  0.00  0.00    -0.340 OA
BRANCH  11  12
ATOM     12  C   UNL     1       8.420  -1.283  23.342  0.00  0.00    +0.282 C 
ATOM     13  C   UNL     1       9.952  -1.250  23.092  0.00  0.00    +0.201 C 
ATOM     14  C   UNL     1      10.563   0.097  23.525  0.00  0.00    +0.179 C 
ATOM     15  C   UNL     1       9.762   1.257  22.919  0.00  0.00    +0.177 C 
ATOM     16  C   UNL     1       8.265   1.160  23.261  0.00  0.00    +0.178 C 
ATOM     17  O   UNL     1       7.742  -0.108  22.858  0.00  0.00    -0.341 OA
BRANCH  13  18
ATOM     18  O   UNL     1      10.242  -1.541  21.713  0.00  0.00    -0.384 OA
ATOM     19  H   UNL     1       9.388  -1.779  21.286  0.00  0.00    +0.210 HD
ENDBRANCH  13  18
BRANCH  15  20
ATOM     20  O   UNL     1       9.934   1.162  21.483  0.00  0.00    -0.386 OA
ATOM     21  H   UNL     1       9.844   0.224  21.230  0.00  0.00    +0.210 HD
ENDBRANCH  15  20
BRANCH  14  22
ATOM     22  O   UNL     1      10.684   0.219  24.942  0.00  0.00    -0.386 OA
ATOM     23  H   UNL     1      11.408   0.826  25.164  0.00  0.00    +0.210 HD
ENDBRANCH  14  22
BRANCH  16  24
ATOM     24  C   UNL     1       7.871   1.516  24.698  0.00  0.00    +0.190 C 
BRANCH  24  25
ATOM     25  O   UNL     1       8.775   2.456  25.260  0.00  0.00    -0.392 OA
ATOM     26  H   UNL     1       9.498   2.580  24.619  0.00  0.00    +0.210 HD
ENDBRANCH  24  25
ENDBRANCH  16  24
ENDBRANCH  11  12
ENDBRANCH   4  11
BRANCH   5  27
ATOM     27  C   UNL     1       8.871  -4.455  26.249  0.00  0.00    +0.190 C 
BRANCH  27  28
ATOM     28  O   UNL     1       8.349  -5.373  27.177  0.00  0.00    -0.392 OA
ATOM     29  H   UNL     1       9.069  -5.977  27.452  0.00  0.00    +0.210 HD
ENDBRANCH  27  28
ENDBRANCH   5  27
BRANCH   1  30
ATOM     30  O   UNL     1       5.036  -6.215  24.563  0.00  0.00    -0.339 OA
BRANCH  30  32
ATOM     31  CA  UNL     1       2.639  -6.269  24.905  0.00  0.00    +0.221 C 
ATOM     32  C   UNL     1       3.999  -5.758  25.447  0.00  0.00    +0.198 C 
ATOM     33  C   UNL     1       4.300  -6.093  26.936  0.00  0.00    +0.188 C 
ATOM     34  C   UNL     1       3.070  -5.934  27.850  0.00  0.00    +0.265 C 
ATOM     35  C   UNL     1       1.927  -6.695  27.180  0.00  0.00    +0.365 C 
ATOM     36  N   UNL     1       1.405  -7.741  27.768  0.00  0.00    +0.149 NA
ATOM     37  N   UNL     1       1.580  -6.260  25.924  0.00  0.00    -0.224 N 
ATOM     38  H   UNL     1       0.792  -6.818  25.577  0.00  0.00    +0.292 HD
BRANCH  36  39
ATOM     39  O   UNL     1       0.443  -8.329  26.931  0.00  0.00    -0.311 OA
ATOM     40  H   UNL     1      -0.365  -8.283  27.476  0.00  0.00    +0.361 HD
ENDBRANCH  36  39
BRANCH  34  41
ATOM     41  O   UNL     1       3.362  -6.339  29.177  0.00  0.00    -0.378 OA
ATOM     42  H   UNL     1       3.146  -5.576  29.744  0.00  0.00    +0.211 HD
ENDBRANCH  34  41
BRANCH  33  43
ATOM     43  O   UNL     1       4.895  -7.395  27.086  0.00  0.00    -0.386 OA
ATOM     44  H   UNL     1       4.289  -7.959  27.599  0.00  0.00    +0.210 HD
ENDBRANCH  33  43
BRANCH  31  45
ATOM     45  C   UNL     1       2.679  -7.658  24.239  0.00  0.00    +0.205 C 
BRANCH  45  46
ATOM     46  O   UNL     1       3.061  -8.620  25.230  0.00  0.00    -0.391 OA
ATOM     47  H   UNL     1       4.017  -8.515  25.377  0.00  0.00    +0.210 HD
ENDBRANCH  45  46
ENDBRANCH  31  45
ENDBRANCH  30  32
ENDBRANCH   1  30
TORSDOF 18
ENDMDL
MODEL 4
REMARK VINA RESULT:      -6.6      3.818      8.883
REMARK  Name = 
REMARK  18 active torsions:
REMARK  status: ('A' for Active; 'I' for Inactive)
REMARK    1  A    between atoms: O_1  and  C_2
REMARK    2  A    between atoms: C_2  and  CA_3
REMARK    3  A    between atoms: N_7  and  O_8
REMARK    4  A    between atoms: C_9  and  O_11
REMARK    5  A    between atoms: C_12  and  O_14
REMARK    6  A    between atoms: C_15  and  O_17
REMARK    7  A    between atoms: O_17  and  C_18
REMARK    8  A    between atoms: C_21  and  C_23
REMARK    9  A    between atoms: C_23  and  O_24
REMARK   10  A    between atoms: C_25  and  O_27
REMARK   11  A    between atoms: O_27  and  C_28
REMARK   12  A    between atoms: C_31  and  C_33
REMARK   13  A    between atoms: C_33  and  O_34
REMARK   14  A    between atoms: C_35  and  O_37
REMARK   15  A    between atoms: C_38  and  O_40
REMARK   16  A    between atoms: C_41  and  O_43
REMARK   17  A    between atoms: C_44  and  O_46
REMARK   18  A    between atoms: C_47  and  O_49
REMARK                            x       y       z     vdW  Elec       q    Type
REMARK                         _______ _______ _______ _____ _____    ______ ____
ROOT
ATOM      1  C   UNL     1       8.992   0.752  24.989  0.00  0.00    +0.282 C 
ATOM      2  C   UNL     1       7.861   0.168  25.857  0.00  0.00    +0.201 C 
ATOM      3  C   UNL     1       7.629  -1.322  25.575  0.00  0.00    +0.179 C 
ATOM      4  C   UNL     1       7.680  -1.751  24.082  0.00  0.00    +0.183 C 
ATOM      5  C   UNL     1       8.944  -1.105  23.455  0.00  0.00    +0.178 C 
ATOM      6  O   UNL     1       8.850   0.314  23.654  0.00  0.00    -0.341 OA
ENDROOT
BRANCH   3   7
ATOM      7  O   UNL     1       6.349  -1.690  26.126  0.00  0.00    -0.386 OA
ATOM      8  H   UNL     1       6.246  -1.176  26.945  0.00  0.00    +0.210 HD
ENDBRANCH   3   7
BRANCH   2   9
ATOM      9  O   UNL     1       8.154   0.383  27.256  0.00  0.00    -0.384 OA
ATOM     10  H   UNL     1       7.621   1.126  27.585  0.00  0.00    +0.210 HD
ENDBRANCH   2   9
BRANCH   4  11
ATOM     11  O   UNL     1       7.566  -3.189  24.184  0.00  0.00    -0.340 OA
BRANCH  11  12
ATOM     12  C   UNL     1       7.085  -3.951  23.084  0.00  0.00    +0.282 C 
ATOM     13  C   UNL     1       5.757  -3.421  22.477  0.00  0.00    +0.201 C 
ATOM     14  C   UNL     1       4.544  -3.836  23.330  0.00  0.00    +0.179 C 
ATOM     15  C   UNL     1       4.591  -5.343  23.617  0.00  0.00    +0.177 C 
ATOM     16  C   UNL     1       5.926  -5.762  24.259  0.00  0.00    +0.178 C 
ATOM     17  O   UNL     1       7.024  -5.344  23.445  0.00  0.00    -0.341 OA
BRANCH  13  18
ATOM     18  O   UNL     1       5.618  -3.861  21.115  0.00  0.00    -0.384 OA
ATOM     19  H   UNL     1       4.986  -4.614  21.121  0.00  0.00    +0.210 HD
ENDBRANCH  13  18
BRANCH  15  20
ATOM     20  O   UNL     1       4.447  -6.003  22.334  0.00  0.00    -0.386 OA
ATOM     21  H   UNL     1       5.338  -6.249  22.020  0.00  0.00    +0.210 HD
ENDBRANCH  15  20
BRANCH  14  22
ATOM     22  O   UNL     1       4.424  -3.073  24.530  0.00  0.00    -0.386 OA
ATOM     23  H   UNL     1       3.622  -2.527  24.501  0.00  0.00    +0.210 HD
ENDBRANCH  14  22
BRANCH  16  24
ATOM     24  C   UNL     1       6.121  -5.382  25.730  0.00  0.00    +0.190 C 
BRANCH  24  25
ATOM     25  O   UNL     1       7.447  -5.651  26.159  0.00  0.00    -0.392 OA
ATOM     26  H   UNL     1       7.467  -5.535  27.126  0.00  0.00    +0.210 HD
ENDBRANCH  24  25
ENDBRANCH  16  24
ENDBRANCH  11  12
ENDBRANCH   4  11
BRANCH   5  27
ATOM     27  C   UNL     1       9.129  -1.160  21.928  0.00  0.00    +0.190 C 
BRANCH  27  28
ATOM     28  O   UNL     1      10.406  -1.551  21.489  0.00  0.00    -0.392 OA
ATOM     29  H   UNL     1      10.833  -0.783  21.056  0.00  0.00    +0.210 HD
ENDBRANCH  27  28
ENDBRANCH   5  27
BRANCH   1  30
ATOM     30  O   UNL     1       8.858   2.178  25.000  0.00  0.00    -0.339 OA
BRANCH  30  32
ATOM     31  CA  UNL     1       6.765   3.352  25.330  0.00  0.00    +0.221 C 
ATOM     32  C   UNL     1       7.721   2.704  24.295  0.00  0.00    +0.198 C 
ATOM     33  C   UNL     1       8.133   3.610  23.100  0.00  0.00    +0.188 C 
ATOM     34  C   UNL     1       6.967   4.454  22.552  0.00  0.00    +0.265 C 
ATOM     35  C   UNL     1       6.321   5.139  23.757  0.00  0.00    +0.365 C 
ATOM     36  N   UNL     1       6.348   6.443  23.859  0.00  0.00    +0.149 NA
ATOM     37  N   UNL     1       5.820   4.297  24.719  0.00  0.00    -0.224 N 
ATOM     38  H   UNL     1       5.390   4.854  25.466  0.00  0.00    +0.292 HD
BRANCH  36  39
ATOM     39  O   UNL     1       5.783   6.837  25.082  0.00  0.00    -0.311 OA
ATOM     40  H   UNL     1       5.724   5.994  25.569  0.00  0.00    +0.361 HD
ENDBRANCH  36  39
BRANCH  34  41
ATOM     41  O   UNL     1       7.405   5.332  21.529  0.00  0.00    -0.378 OA
ATOM     42  H   UNL     1       7.897   6.044  21.979  0.00  0.00    +0.211 HD
ENDBRANCH  34  41
BRANCH  33  43
ATOM     43  O   UNL     1       9.270   4.434  23.414  0.00  0.00    -0.386 OA
ATOM     44  H   UNL     1       9.235   4.669  24.358  0.00  0.00    +0.210 HD
ENDBRANCH  33  43
BRANCH  31  45
ATOM     45  C   UNL     1       7.460   4.042  26.522  0.00  0.00    +0.205 C 
BRANCH  45  46
ATOM     46  O   UNL     1       7.478   3.123  27.622  0.00  0.00    -0.391 OA
ATOM     47  H   UNL     1       8.410   3.000  27.876  0.00  0.00    +0.210 HD
ENDBRANCH  45  46
ENDBRANCH  31  45
ENDBRANCH  30  32
ENDBRANCH   1  30
TORSDOF 18
ENDMDL
MODEL 5
REMARK VINA RESULT:      -6.6      3.273      8.624
REMARK  Name = 
REMARK  18 active torsions:
REMARK  status: ('A' for Active; 'I' for Inactive)
REMARK    1  A    between atoms: O_1  and  C_2
REMARK    2  A    between atoms: C_2  and  CA_3
REMARK    3  A    between atoms: N_7  and  O_8
REMARK    4  A    between atoms: C_9  and  O_11
REMARK    5  A    between atoms: C_12  and  O_14
REMARK    6  A    between atoms: C_15  and  O_17
REMARK    7  A    between atoms: O_17  and  C_18
REMARK    8  A    between atoms: C_21  and  C_23
REMARK    9  A    between atoms: C_23  and  O_24
REMARK   10  A    between atoms: C_25  and  O_27
REMARK   11  A    between atoms: O_27  and  C_28
REMARK   12  A    between atoms: C_31  and  C_33
REMARK   13  A    between atoms: C_33  and  O_34
REMARK   14  A    between atoms: C_35  and  O_37
REMARK   15  A    between atoms: C_38  and  O_40
REMARK   16  A    between atoms: C_41  and  O_43
REMARK   17  A    between atoms: C_44  and  O_46
REMARK   18  A    between atoms: C_47  and  O_49
REMARK                            x       y       z     vdW  Elec       q    Type
REMARK                         _______ _______ _______ _____ _____    ______ ____
ROOT
ATOM      1  C   UNL     1       6.856  -1.468  26.457  0.00  0.00    +0.282 C 
ATOM      2  C   UNL     1       5.422  -1.392  25.898  0.00  0.00    +0.201 C 
ATOM      3  C   UNL     1       4.652  -2.702  26.106  0.00  0.00    +0.179 C 
ATOM      4  C   UNL     1       5.451  -4.011  25.853  0.00  0.00    +0.183 C 
ATOM      5  C   UNL     1       6.815  -3.873  26.582  0.00  0.00    +0.178 C 
ATOM      6  O   UNL     1       7.455  -2.690  26.082  0.00  0.00    -0.341 OA
ENDROOT
BRANCH   3   7
ATOM      7  O   UNL     1       3.495  -2.685  25.247  0.00  0.00    -0.386 OA
ATOM      8  H   UNL     1       2.730  -2.518  25.824  0.00  0.00    +0.210 HD
ENDBRANCH   3   7
BRANCH   2   9
ATOM      9  O   UNL     1       4.717  -0.284  26.503  0.00  0.00    -0.384 OA
ATOM     10  H   UNL     1       3.768  -0.365  26.310  0.00  0.00    +0.210 HD
ENDBRANCH   2   9
BRANCH   4  11
ATOM     11  O   UNL     1       4.501  -5.021  26.263  0.00  0.00    -0.340 OA
BRANCH  11  12
ATOM     12  C   UNL     1       4.542  -6.322  25.689  0.00  0.00    +0.282 C 
ATOM     13  C   UNL     1       4.551  -6.330  24.136  0.00  0.00    +0.201 C 
ATOM     14  C   UNL     1       3.140  -6.094  23.565  0.00  0.00    +0.179 C 
ATOM     15  C   UNL     1       2.135  -7.042  24.231  0.00  0.00    +0.177 C 
ATOM     16  C   UNL     1       2.169  -6.927  25.765  0.00  0.00    +0.178 C 
ATOM     17  O   UNL     1       3.496  -7.137  26.253  0.00  0.00    -0.341 OA
BRANCH  13  18
ATOM     18  O   UNL     1       5.119  -7.557  23.645  0.00  0.00    -0.384 OA
ATOM     19  H   UNL     1       5.181  -7.472  22.667  0.00  0.00    +0.210 HD
ENDBRANCH  13  18
BRANCH  15  20
ATOM     20  O   UNL     1       2.526  -8.384  23.842  0.00  0.00    -0.386 OA
ATOM     21  H   UNL     1       1.730  -8.849  23.522  0.00  0.00    +0.210 HD
ENDBRANCH  15  20
BRANCH  14  22
ATOM     22  O   UNL     1       2.726  -4.731  23.661  0.00  0.00    -0.386 OA
ATOM     23  H   UNL     1       1.761  -4.681  23.760  0.00  0.00    +0.210 HD
ENDBRANCH  14  22
BRANCH  16  24
ATOM     24  C   UNL     1       1.525  -5.674  26.367  0.00  0.00    +0.190 C 
BRANCH  24  25
ATOM     25  O   UNL     1       1.951  -5.469  27.706  0.00  0.00    -0.392 OA
ATOM     26  H   UNL     1       2.889  -5.206  27.672  0.00  0.00    +0.210 HD
ENDBRANCH  24  25
ENDBRANCH  16  24
ENDBRANCH  11  12
ENDBRANCH   4  11
BRANCH   5  27
ATOM     27  C   UNL     1       7.912  -4.918  26.313  0.00  0.00    +0.190 C 
BRANCH  27  28
ATOM     28  O   UNL     1       7.937  -6.008  27.202  0.00  0.00    -0.392 OA
ATOM     29  H   UNL     1       8.350  -5.714  28.040  0.00  0.00    +0.210 HD
ENDBRANCH  27  28
ENDBRANCH   5  27
BRANCH   1  30
ATOM     30  O   UNL     1       7.613  -0.407  25.862  0.00  0.00    -0.339 OA
BRANCH  30  32
ATOM     31  CA  UNL     1       7.577   1.186  24.038  0.00  0.00    +0.221 C 
ATOM     32  C   UNL     1       7.540  -0.314  24.430  0.00  0.00    +0.198 C 
ATOM     33  C   UNL     1       8.589  -1.220  23.725  0.00  0.00    +0.188 C 
ATOM     34  C   UNL     1       8.770  -0.883  22.232  0.00  0.00    +0.265 C 
ATOM     35  C   UNL     1       8.983   0.628  22.148  0.00  0.00    +0.365 C 
ATOM     36  N   UNL     1      10.122   1.104  21.715  0.00  0.00    +0.149 NA
ATOM     37  N   UNL     1       7.957   1.400  22.635  0.00  0.00    -0.224 N 
ATOM     38  H   UNL     1       8.189   2.392  22.510  0.00  0.00    +0.292 HD
BRANCH  36  39
ATOM     39  O   UNL     1      10.123   2.504  21.813  0.00  0.00    -0.311 OA
ATOM     40  H   UNL     1      10.350   2.649  22.751  0.00  0.00    +0.361 HD
ENDBRANCH  36  39
BRANCH  34  41
ATOM     41  O   UNL     1       9.799  -1.665  21.651  0.00  0.00    -0.378 OA
ATOM     42  H   UNL     1       9.489  -2.589  21.689  0.00  0.00    +0.211 HD
ENDBRANCH  34  41
BRANCH  33  43
ATOM     43  O   UNL     1       9.852  -1.222  24.414  0.00  0.00    -0.386 OA
ATOM     44  H   UNL     1      10.452  -1.845  23.966  0.00  0.00    +0.210 HD
ENDBRANCH  33  43
BRANCH  31  45
ATOM     45  C   UNL     1       8.459   2.077  24.936  0.00  0.00    +0.205 C 
BRANCH  45  46
ATOM     46  O   UNL     1       9.806   1.593  24.861  0.00  0.00    -0.391 OA
ATOM     47  H   UNL     1       9.799   0.676  25.190  0.00  0.00    +0.210 HD
ENDBRANCH  45  46
ENDBRANCH  31  45
ENDBRANCH  30  32
ENDBRANCH   1  30
TORSDOF 18
ENDMDL
MODEL 6
REMARK VINA RESULT:      -6.4      2.409      4.453
REMARK  Name = 
REMARK  18 active torsions:
REMARK  status: ('A' for Active; 'I' for Inactive)
REMARK    1  A    between atoms: O_1  and  C_2
REMARK    2  A    between atoms: C_2  and  CA_3
REMARK    3  A    between atoms: N_7  and  O_8
REMARK    4  A    between atoms: C_9  and  O_11
REMARK    5  A    between atoms: C_12  and  O_14
REMARK    6  A    between atoms: C_15  and  O_17
REMARK    7  A    between atoms: O_17  and  C_18
REMARK    8  A    between atoms: C_21  and  C_23
REMARK    9  A    between atoms: C_23  and  O_24
REMARK   10  A    between atoms: C_25  and  O_27
REMARK   11  A    between atoms: O_27  and  C_28
REMARK   12  A    between atoms: C_31  and  C_33
REMARK   13  A    between atoms: C_33  and  O_34
REMARK   14  A    between atoms: C_35  and  O_37
REMARK   15  A    between atoms: C_38  and  O_40
REMARK   16  A    between atoms: C_41  and  O_43
REMARK   17  A    between atoms: C_44  and  O_46
REMARK   18  A    between atoms: C_47  and  O_49
REMARK                            x       y       z     vdW  Elec       q    Type
REMARK                         _______ _______ _______ _____ _____    ______ ____
ROOT
ATOM      1  C   UNL     1       9.093  -2.394  25.000  0.00  0.00    +0.282 C 
ATOM      2  C   UNL     1       9.226  -1.704  23.629  0.00  0.00    +0.201 C 
ATOM      3  C   UNL     1       9.332  -0.179  23.759  0.00  0.00    +0.179 C 
ATOM      4  C   UNL     1       8.395   0.484  24.807  0.00  0.00    +0.183 C 
ATOM      5  C   UNL     1       8.501  -0.343  26.116  0.00  0.00    +0.178 C 
ATOM      6  O   UNL     1       8.158  -1.701  25.800  0.00  0.00    -0.341 OA
ENDROOT
BRANCH   3   7
ATOM      7  O   UNL     1       9.076   0.402  22.465  0.00  0.00    -0.386 OA
ATOM      8  H   UNL     1       9.800   0.108  21.886  0.00  0.00    +0.210 HD
ENDBRANCH   3   7
BRANCH   2   9
ATOM      9  O   UNL     1      10.367  -2.236  22.919  0.00  0.00    -0.384 OA
ATOM     10  H   UNL     1      10.951  -1.505  22.657  0.00  0.00    +0.210 HD
ENDBRANCH   2   9
BRANCH   4  11
ATOM     11  O   UNL     1       8.840   1.859  24.772  0.00  0.00    -0.340 OA
BRANCH  11  12
ATOM     12  C   UNL     1       7.919   2.919  25.007  0.00  0.00    +0.282 C 
ATOM     13  C   UNL     1       6.855   3.093  23.890  0.00  0.00    +0.201 C 
ATOM     14  C   UNL     1       7.436   3.834  22.670  0.00  0.00    +0.179 C 
ATOM     15  C   UNL     1       8.147   5.117  23.122  0.00  0.00    +0.177 C 
ATOM     16  C   UNL     1       9.213   4.834  24.194  0.00  0.00    +0.178 C 
ATOM     17  O   UNL     1       8.637   4.133  25.299  0.00  0.00    -0.341 OA
BRANCH  13  18
ATOM     18  O   UNL     1       5.692   3.763  24.407  0.00  0.00    -0.384 OA
ATOM     19  H   UNL     1       5.729   4.691  24.083  0.00  0.00    +0.210 HD
ENDBRANCH  13  18
BRANCH  15  20
ATOM     20  O   UNL     1       7.119   5.973  23.681  0.00  0.00    -0.386 OA
ATOM     21  H   UNL     1       7.249   6.009  24.648  0.00  0.00    +0.210 HD
ENDBRANCH  15  20
BRANCH  14  22
ATOM     22  O   UNL     1       8.288   3.008  21.877  0.00  0.00    -0.386 OA
ATOM     23  H   UNL     1       8.446   3.424  21.013  0.00  0.00    +0.210 HD
ENDBRANCH  14  22
BRANCH  16  24
ATOM     24  C   UNL     1      10.509   4.177  23.708  0.00  0.00    +0.190 C 
BRANCH  24  25
ATOM     25  O   UNL     1      11.311   5.098  22.982  0.00  0.00    -0.392 OA
ATOM     26  H   UNL     1      10.863   5.962  23.020  0.00  0.00    +0.210 HD
ENDBRANCH  24  25
ENDBRANCH  16  24
ENDBRANCH  11  12
ENDBRANCH   4  11
BRANCH   5  27
ATOM     27  C   UNL     1       7.506  -0.063  27.257  0.00  0.00    +0.190 C 
BRANCH  27  28
ATOM     28  O   UNL     1       8.025   0.658  28.346  0.00  0.00    -0.392 OA
ATOM     29  H   UNL     1       7.332   0.717  29.035  0.00  0.00    +0.210 HD
ENDBRANCH  27  28
ENDBRANCH   5  27
BRANCH   1  30
ATOM     30  O   UNL     1       8.584  -3.715  24.775  0.00  0.00    -0.339 OA
BRANCH  30  32
ATOM     31  CA  UNL     1       6.356  -4.266  24.002  0.00  0.00    +0.221 C 
ATOM     32  C   UNL     1       7.244  -3.955  25.235  0.00  0.00    +0.198 C 
ATOM     33  C   UNL     1       7.192  -5.002  26.384  0.00  0.00    +0.188 C 
ATOM     34  C   UNL     1       5.770  -5.532  26.653  0.00  0.00    +0.265 C 
ATOM     35  C   UNL     1       5.198  -5.952  25.299  0.00  0.00    +0.365 C 
ATOM     36  N   UNL     1       4.911  -7.208  25.072  0.00  0.00    +0.149 NA
ATOM     37  N   UNL     1       5.108  -4.955  24.358  0.00  0.00    -0.224 N 
ATOM     38  H   UNL     1       4.692  -5.335  23.501  0.00  0.00    +0.292 HD
BRANCH  36  39
ATOM     39  O   UNL     1       4.492  -7.369  23.742  0.00  0.00    -0.311 OA
ATOM     40  H   UNL     1       4.560  -8.334  23.616  0.00  0.00    +0.361 HD
ENDBRANCH  36  39
BRANCH  34  41
ATOM     41  O   UNL     1       5.780  -6.550  27.639  0.00  0.00    -0.378 OA
ATOM     42  H   UNL     1       5.837  -6.091  28.498  0.00  0.00    +0.211 HD
ENDBRANCH  34  41
BRANCH  33  43
ATOM     43  O   UNL     1       8.119  -6.082  26.173  0.00  0.00    -0.386 OA
ATOM     44  H   UNL     1       8.961  -5.714  25.851  0.00  0.00    +0.210 HD
ENDBRANCH  33  43
BRANCH  31  45
ATOM     45  C   UNL     1       7.055  -5.050  22.873  0.00  0.00    +0.205 C 
BRANCH  45  46
ATOM     46  O   UNL     1       6.052  -5.492  21.949  0.00  0.00    -0.391 OA
ATOM     47  H   UNL     1       6.517  -5.903  21.199  0.00  0.00    +0.210 HD
ENDBRANCH  45  46
ENDBRANCH  31  45
ENDBRANCH  30  32
ENDBRANCH   1  30
TORSDOF 18
ENDMDL
MODEL 7
REMARK VINA RESULT:      -6.4      3.642      8.951
REMARK  Name = 
REMARK  18 active torsions:
REMARK  status: ('A' for Active; 'I' for Inactive)
REMARK    1  A    between atoms: O_1  and  C_2
REMARK    2  A    between atoms: C_2  and  CA_3
REMARK    3  A    between atoms: N_7  and  O_8
REMARK    4  A    between atoms: C_9  and  O_11
REMARK    5  A    between atoms: C_12  and  O_14
REMARK    6  A    between atoms: C_15  and  O_17
REMARK    7  A    between atoms: O_17  and  C_18
REMARK    8  A    between atoms: C_21  and  C_23
REMARK    9  A    between atoms: C_23  and  O_24
REMARK   10  A    between atoms: C_25  and  O_27
REMARK   11  A    between atoms: O_27  and  C_28
REMARK   12  A    between atoms: C_31  and  C_33
REMARK   13  A    between atoms: C_33  and  O_34
REMARK   14  A    between atoms: C_35  and  O_37
REMARK   15  A    between atoms: C_38  and  O_40
REMARK   16  A    between atoms: C_41  and  O_43
REMARK   17  A    between atoms: C_44  and  O_46
REMARK   18  A    between atoms: C_47  and  O_49
REMARK                            x       y       z     vdW  Elec       q    Type
REMARK                         _______ _______ _______ _____ _____    ______ ____
ROOT
ATOM      1  C   UNL     1       9.261  -0.777  23.799  0.00  0.00    +0.282 C 
ATOM      2  C   UNL     1       8.659  -0.591  25.205  0.00  0.00    +0.201 C 
ATOM      3  C   UNL     1       8.009  -1.878  25.729  0.00  0.00    +0.179 C 
ATOM      4  C   UNL     1       7.181  -2.693  24.698  0.00  0.00    +0.183 C 
ATOM      5  C   UNL     1       8.032  -2.811  23.405  0.00  0.00    +0.178 C 
ATOM      6  O   UNL     1       8.354  -1.479  22.976  0.00  0.00    -0.341 OA
ENDROOT
BRANCH   3   7
ATOM      7  O   UNL     1       7.163  -1.533  26.844  0.00  0.00    -0.386 OA
ATOM      8  H   UNL     1       6.727  -0.698  26.607  0.00  0.00    +0.210 HD
ENDBRANCH   3   7
BRANCH   2   9
ATOM      9  O   UNL     1       9.678  -0.125  26.118  0.00  0.00    -0.384 OA
ATOM     10  H   UNL     1       9.418  -0.344  27.029  0.00  0.00    +0.210 HD
ENDBRANCH   2   9
BRANCH   4  11
ATOM     11  O   UNL     1       6.841  -3.874  25.460  0.00  0.00    -0.340 OA
BRANCH  11  12
ATOM     12  C   UNL     1       5.671  -4.621  25.146  0.00  0.00    +0.282 C 
ATOM     13  C   UNL     1       4.343  -3.873  25.444  0.00  0.00    +0.201 C 
ATOM     14  C   UNL     1       3.999  -3.916  26.946  0.00  0.00    +0.179 C 
ATOM     15  C   UNL     1       4.086  -5.357  27.466  0.00  0.00    +0.177 C 
ATOM     16  C   UNL     1       5.453  -5.994  27.163  0.00  0.00    +0.178 C 
ATOM     17  O   UNL     1       5.740  -5.920  25.765  0.00  0.00    -0.341 OA
BRANCH  13  18
ATOM     18  O   UNL     1       3.275  -4.410  24.645  0.00  0.00    -0.384 OA
ATOM     19  H   UNL     1       3.387  -4.048  23.737  0.00  0.00    +0.210 HD
ENDBRANCH  13  18
BRANCH  15  20
ATOM     20  O   UNL     1       3.048  -6.099  26.777  0.00  0.00    -0.386 OA
ATOM     21  H   UNL     1       2.329  -6.273  27.413  0.00  0.00    +0.210 HD
ENDBRANCH  15  20
BRANCH  14  22
ATOM     22  O   UNL     1       4.799  -3.024  27.722  0.00  0.00    -0.386 OA
ATOM     23  H   UNL     1       4.340  -2.793  28.545  0.00  0.00    +0.210 HD
ENDBRANCH  14  22
BRANCH  16  24
ATOM     24  C   UNL     1       6.630  -5.517  28.019  0.00  0.00    +0.190 C 
BRANCH  24  25
ATOM     25  O   UNL     1       7.871  -5.917  27.457  0.00  0.00    -0.392 OA
ATOM     26  H   UNL     1       8.355  -5.106  27.220  0.00  0.00    +0.210 HD
ENDBRANCH  24  25
ENDBRANCH  16  24
ENDBRANCH  11  12
ENDBRANCH   4  11
BRANCH   5  27
ATOM     27  C   UNL     1       7.374  -3.363  22.128  0.00  0.00    +0.190 C 
BRANCH  27  28
ATOM     28  O   UNL     1       7.278  -4.764  22.057  0.00  0.00    -0.392 OA
ATOM     29  H   UNL     1       7.209  -5.115  22.968  0.00  0.00    +0.210 HD
ENDBRANCH  27  28
ENDBRANCH   5  27
BRANCH   1  30
ATOM     30  O   UNL     1       9.452   0.524  23.231  0.00  0.00    -0.339 OA
BRANCH  30  32
ATOM     31  CA  UNL     1       9.327   2.770  24.129  0.00  0.00    +0.221 C 
ATOM     32  C   UNL     1       8.521   1.534  23.654  0.00  0.00    +0.198 C 
ATOM     33  C   UNL     1       7.427   1.814  22.584  0.00  0.00    +0.188 C 
ATOM     34  C   UNL     1       6.640   3.112  22.852  0.00  0.00    +0.265 C 
ATOM     35  C   UNL     1       7.676   4.208  23.096  0.00  0.00    +0.365 C 
ATOM     36  N   UNL     1       7.767   5.216  22.267  0.00  0.00    +0.149 NA
ATOM     37  N   UNL     1       8.523   3.999  24.157  0.00  0.00    -0.224 N 
ATOM     38  H   UNL     1       9.158   4.801  24.246  0.00  0.00    +0.292 HD
BRANCH  36  39
ATOM     39  O   UNL     1       8.841   6.042  22.635  0.00  0.00    -0.311 OA
ATOM     40  H   UNL     1       9.593   5.421  22.635  0.00  0.00    +0.361 HD
ENDBRANCH  36  39
BRANCH  34  41
ATOM     41  O   UNL     1       5.720   3.379  21.808  0.00  0.00    -0.378 OA
ATOM     42  H   UNL     1       5.989   4.234  21.425  0.00  0.00    +0.211 HD
ENDBRANCH  34  41
BRANCH  33  43
ATOM     43  O   UNL     1       7.961   1.797  21.248  0.00  0.00    -0.386 OA
ATOM     44  H   UNL     1       7.279   1.452  20.643  0.00  0.00    +0.210 HD
ENDBRANCH  33  43
BRANCH  31  45
ATOM     45  C   UNL     1      10.630   3.043  23.350  0.00  0.00    +0.205 C 
BRANCH  45  46
ATOM     46  O   UNL     1      10.416   2.679  21.980  0.00  0.00    -0.391 OA
ATOM     47  H   UNL     1      11.231   2.246  21.669  0.00  0.00    +0.210 HD
ENDBRANCH  45  46
ENDBRANCH  31  45
ENDBRANCH  30  32
ENDBRANCH   1  30
TORSDOF 18
ENDMDL
MODEL 8
REMARK VINA RESULT:      -6.3      3.159      8.535
REMARK  Name = 
REMARK  18 active torsions:
REMARK  status: ('A' for Active; 'I' for Inactive)
REMARK    1  A    between atoms: O_1  and  C_2
REMARK    2  A    between atoms: C_2  and  CA_3
REMARK    3  A    between atoms: N_7  and  O_8
REMARK    4  A    between atoms: C_9  and  O_11
REMARK    5  A    between atoms: C_12  and  O_14
REMARK    6  A    between atoms: C_15  and  O_17
REMARK    7  A    between atoms: O_17  and  C_18
REMARK    8  A    between atoms: C_21  and  C_23
REMARK    9  A    between atoms: C_23  and  O_24
REMARK   10  A    between atoms: C_25  and  O_27
REMARK   11  A    between atoms: O_27  and  C_28
REMARK   12  A    between atoms: C_31  and  C_33
REMARK   13  A    between atoms: C_33  and  O_34
REMARK   14  A    between atoms: C_35  and  O_37
REMARK   15  A    between atoms: C_38  and  O_40
REMARK   16  A    between atoms: C_41  and  O_43
REMARK   17  A    between atoms: C_44  and  O_46
REMARK   18  A    between atoms: C_47  and  O_49
REMARK                            x       y       z     vdW  Elec       q    Type
REMARK                         _______ _______ _______ _____ _____    ______ ____
ROOT
ATOM      1  C   UNL     1       9.029  -3.221  24.481  0.00  0.00    +0.282 C 
ATOM      2  C   UNL     1       8.178  -3.128  25.762  0.00  0.00    +0.201 C 
ATOM      3  C   UNL     1       7.210  -4.310  25.897  0.00  0.00    +0.179 C 
ATOM      4  C   UNL     1       6.494  -4.760  24.593  0.00  0.00    +0.183 C 
ATOM      5  C   UNL     1       7.572  -4.857  23.480  0.00  0.00    +0.178 C 
ATOM      6  O   UNL     1       8.214  -3.577  23.385  0.00  0.00    -0.341 OA
ENDROOT
BRANCH   3   7
ATOM      7  O   UNL     1       6.216  -3.967  26.883  0.00  0.00    -0.386 OA
ATOM      8  H   UNL     1       5.584  -4.706  26.902  0.00  0.00    +0.210 HD
ENDBRANCH   3   7
BRANCH   2   9
ATOM      9  O   UNL     1       9.040  -3.039  26.919  0.00  0.00    -0.384 OA
ATOM     10  H   UNL     1       8.815  -3.750  27.542  0.00  0.00    +0.210 HD
ENDBRANCH   2   9
BRANCH   4  11
ATOM     11  O   UNL     1       5.790  -5.942  25.035  0.00  0.00    -0.340 OA
BRANCH  11  12
ATOM     12  C   UNL     1       4.671  -6.428  24.303  0.00  0.00    +0.282 C 
ATOM     13  C   UNL     1       3.713  -5.316  23.796  0.00  0.00    +0.201 C 
ATOM     14  C   UNL     1       2.791  -4.813  24.923  0.00  0.00    +0.179 C 
ATOM     15  C   UNL     1       2.121  -6.000  25.627  0.00  0.00    +0.177 C 
ATOM     16  C   UNL     1       3.154  -7.022  26.133  0.00  0.00    +0.178 C 
ATOM     17  O   UNL     1       3.998  -7.451  25.062  0.00  0.00    -0.341 OA
BRANCH  13  18
ATOM     18  O   UNL     1       2.956  -5.784  22.666  0.00  0.00    -0.384 OA
ATOM     19  H   UNL     1       2.013  -5.571  22.846  0.00  0.00    +0.210 HD
ENDBRANCH  13  18
BRANCH  15  20
ATOM     20  O   UNL     1       1.268  -6.629  24.637  0.00  0.00    -0.386 OA
ATOM     21  H   UNL     1       1.838  -6.978  23.926  0.00  0.00    +0.210 HD
ENDBRANCH  15  20
BRANCH  14  22
ATOM     22  O   UNL     1       3.463  -3.959  25.848  0.00  0.00    -0.386 OA
ATOM     23  H   UNL     1       3.120  -3.054  25.778  0.00  0.00    +0.210 HD
ENDBRANCH  14  22
BRANCH  16  24
ATOM     24  C   UNL     1       3.957  -6.620  27.374  0.00  0.00    +0.190 C 
BRANCH  24  25
ATOM     25  O   UNL     1       5.157  -7.372  27.477  0.00  0.00    -0.392 OA
ATOM     26  H   UNL     1       5.892  -6.774  27.250  0.00  0.00    +0.210 HD
ENDBRANCH  24  25
ENDBRANCH  16  24
ENDBRANCH  11  12
ENDBRANCH   4  11
BRANCH   5  27
ATOM     27  C   UNL     1       7.121  -5.052  22.021  0.00  0.00    +0.190 C 
BRANCH  27  28
ATOM     28  O   UNL     1       6.920  -6.386  21.625  0.00  0.00    -0.392 OA
ATOM     29  H   UNL     1       6.791  -6.930  22.429  0.00  0.00    +0.210 HD
ENDBRANCH  27  28
ENDBRANCH   5  27
BRANCH   1  30
ATOM     30  O   UNL     1       9.571  -1.920  24.222  0.00  0.00    -0.339 OA
BRANCH  30  32
ATOM     31  CA  UNL     1       9.604   0.390  24.948  0.00  0.00    +0.221 C 
ATOM     32  C   UNL     1       8.713  -0.812  24.540  0.00  0.00    +0.198 C 
ATOM     33  C   UNL     1       7.672  -0.529  23.420  0.00  0.00    +0.188 C 
ATOM     34  C   UNL     1       6.985   0.843  23.567  0.00  0.00    +0.265 C 
ATOM     35  C   UNL     1       8.100   1.870  23.761  0.00  0.00    +0.365 C 
ATOM     36  N   UNL     1       8.293   2.802  22.863  0.00  0.00    +0.149 NA
ATOM     37  N   UNL     1       8.901   1.677  24.860  0.00  0.00    -0.224 N 
ATOM     38  H   UNL     1       9.596   2.431  24.910  0.00  0.00    +0.292 HD
BRANCH  36  39
ATOM     39  O   UNL     1       9.420   3.567  23.203  0.00  0.00    -0.311 OA
ATOM     40  H   UNL     1       9.021   4.383  23.557  0.00  0.00    +0.361 HD
ENDBRANCH  36  39
BRANCH  34  41
ATOM     41  O   UNL     1       6.117   1.101  22.477  0.00  0.00    -0.378 OA
ATOM     42  H   UNL     1       6.375   1.975  22.129  0.00  0.00    +0.211 HD
ENDBRANCH  34  41
BRANCH  33  43
ATOM     43  O   UNL     1       8.236  -0.689  22.105  0.00  0.00    -0.386 OA
ATOM     44  H   UNL     1       9.202  -0.787  22.189  0.00  0.00    +0.210 HD
ENDBRANCH  33  43
BRANCH  31  45
ATOM     45  C   UNL     1      10.943   0.500  24.191  0.00  0.00    +0.205 C 
BRANCH  45  46
ATOM     46  O   UNL     1      11.293   1.887  24.099  0.00  0.00    -0.391 OA
ATOM     47  H   UNL     1      10.906   2.225  23.272  0.00  0.00    +0.210 HD
ENDBRANCH  45  46
ENDBRANCH  31  45
ENDBRANCH  30  32
ENDBRANCH   1  30
TORSDOF 18
ENDMDL
MODEL 9
REMARK VINA RESULT:      -6.2      1.900      3.140
REMARK  Name = 
REMARK  18 active torsions:
REMARK  status: ('A' for Active; 'I' for Inactive)
REMARK    1  A    between atoms: O_1  and  C_2
REMARK    2  A    between atoms: C_2  and  CA_3
REMARK    3  A    between atoms: N_7  and  O_8
REMARK    4  A    between atoms: C_9  and  O_11
REMARK    5  A    between atoms: C_12  and  O_14
REMARK    6  A    between atoms: C_15  and  O_17
REMARK    7  A    between atoms: O_17  and  C_18
REMARK    8  A    between atoms: C_21  and  C_23
REMARK    9  A    between atoms: C_23  and  O_24
REMARK   10  A    between atoms: C_25  and  O_27
REMARK   11  A    between atoms: O_27  and  C_28
REMARK   12  A    between atoms: C_31  and  C_33
REMARK   13  A    between atoms: C_33  and  O_34
REMARK   14  A    between atoms: C_35  and  O_37
REMARK   15  A    between atoms: C_38  and  O_40
REMARK   16  A    between atoms: C_41  and  O_43
REMARK   17  A    between atoms: C_44  and  O_46
REMARK   18  A    between atoms: C_47  and  O_49
REMARK                            x       y       z     vdW  Elec       q    Type
REMARK                         _______ _______ _______ _____ _____    ______ ____
ROOT
ATOM      1  C   UNL     1       5.809  -3.644  25.194  0.00  0.00    +0.282 C 
ATOM      2  C   UNL     1       6.703  -2.881  26.190  0.00  0.00    +0.201 C 
ATOM      3  C   UNL     1       7.428  -1.702  25.528  0.00  0.00    +0.179 C 
ATOM      4  C   UNL     1       8.000  -1.963  24.107  0.00  0.00    +0.183 C 
ATOM      5  C   UNL     1       6.888  -2.661  23.278  0.00  0.00    +0.178 C 
ATOM      6  O   UNL     1       6.505  -3.851  23.983  0.00  0.00    -0.341 OA
ENDROOT
BRANCH   3   7
ATOM      7  O   UNL     1       8.500  -1.287  26.397  0.00  0.00    -0.386 OA
ATOM      8  H   UNL     1       9.307  -1.293  25.856  0.00  0.00    +0.210 HD
ENDBRANCH   3   7
BRANCH   2   9
ATOM      9  O   UNL     1       5.913  -2.429  27.313  0.00  0.00    -0.384 OA
ATOM     10  H   UNL     1       6.429  -1.789  27.831  0.00  0.00    +0.210 HD
ENDBRANCH   2   9
BRANCH   4  11
ATOM     11  O   UNL     1       8.475  -0.649  23.734  0.00  0.00    -0.340 OA
BRANCH  11  12
ATOM     12  C   UNL     1       7.609   0.477  23.816  0.00  0.00    +0.282 C 
ATOM     13  C   UNL     1       7.234   1.090  22.439  0.00  0.00    +0.201 C 
ATOM     14  C   UNL     1       8.371   1.971  21.888  0.00  0.00    +0.179 C 
ATOM     15  C   UNL     1       8.834   2.968  22.958  0.00  0.00    +0.177 C 
ATOM     16  C   UNL     1       9.227   2.261  24.267  0.00  0.00    +0.178 C 
ATOM     17  O   UNL     1       8.152   1.444  24.736  0.00  0.00    -0.341 OA
BRANCH  13  18
ATOM     18  O   UNL     1       6.001   1.824  22.537  0.00  0.00    -0.384 OA
ATOM     19  H   UNL     1       6.174   2.723  22.180  0.00  0.00    +0.210 HD
ENDBRANCH  13  18
BRANCH  15  20
ATOM     20  O   UNL     1       7.707   3.846  23.207  0.00  0.00    -0.386 OA
ATOM     21  H   UNL     1       8.052   4.688  23.560  0.00  0.00    +0.210 HD
ENDBRANCH  15  20
BRANCH  14  22
ATOM     22  O   UNL     1       9.461   1.207  21.370  0.00  0.00    -0.386 OA
ATOM     23  H   UNL     1       9.319   0.262  21.543  0.00  0.00    +0.210 HD
ENDBRANCH  14  22
BRANCH  16  24
ATOM     24  C   UNL     1      10.561   1.510  24.260  0.00  0.00    +0.190 C 
BRANCH  24  25
ATOM     25  O   UNL     1      10.628   0.569  25.322  0.00  0.00    -0.392 OA
ATOM     26  H   UNL     1      11.391  -0.011  25.145  0.00  0.00    +0.210 HD
ENDBRANCH  24  25
ENDBRANCH  16  24
ENDBRANCH  11  12
ENDBRANCH   4  11
BRANCH   5  27
ATOM     27  C   UNL     1       7.245  -3.255  21.903  0.00  0.00    +0.190 C 
BRANCH  27  28
ATOM     28  O   UNL     1       7.274  -4.659  21.843  0.00  0.00    -0.392 OA
ATOM     29  H   UNL     1       7.486  -5.002  22.735  0.00  0.00    +0.210 HD
ENDBRANCH  27  28
ENDBRANCH   5  27
BRANCH   1  30
ATOM     30  O   UNL     1       5.523  -4.929  25.761  0.00  0.00    -0.339 OA
BRANCH  30  32
ATOM     31  CA  UNL     1       3.646  -5.684  24.430  0.00  0.00    +0.221 C 
ATOM     32  C   UNL     1       4.132  -5.278  25.846  0.00  0.00    +0.198 C 
ATOM     33  C   UNL     1       3.848  -6.308  26.976  0.00  0.00    +0.188 C 
ATOM     34  C   UNL     1       2.455  -6.957  26.865  0.00  0.00    +0.265 C 
ATOM     35  C   UNL     1       2.314  -7.444  25.424  0.00  0.00    +0.365 C 
ATOM     36  N   UNL     1       2.201  -8.724  25.175  0.00  0.00    +0.149 NA
ATOM     37  N   UNL     1       2.407  -6.473  24.457  0.00  0.00    -0.224 N 
ATOM     38  H   UNL     1       2.275  -6.901  23.533  0.00  0.00    +0.292 HD
BRANCH  36  39
ATOM     39  O   UNL     1       2.180  -8.941  23.788  0.00  0.00    -0.311 OA
ATOM     40  H   UNL     1       2.497  -8.088  23.437  0.00  0.00    +0.361 HD
ENDBRANCH  36  39
BRANCH  34  41
ATOM     41  O   UNL     1       2.273  -7.955  27.855  0.00  0.00    -0.378 OA
ATOM     42  H   UNL     1       2.714  -8.755  27.513  0.00  0.00    +0.211 HD
ENDBRANCH  34  41
BRANCH  33  43
ATOM     43  O   UNL     1       4.881  -7.307  27.068  0.00  0.00    -0.386 OA
ATOM     44  H   UNL     1       5.595  -7.076  26.448  0.00  0.00    +0.210 HD
ENDBRANCH  33  43
BRANCH  31  45
ATOM     45  C   UNL     1       4.689  -6.420  23.565  0.00  0.00    +0.205 C 
BRANCH  45  46
ATOM     46  O   UNL     1       4.704  -5.812  22.267  0.00  0.00    -0.391 OA
ATOM     47  H   UNL     1       4.295  -6.445  21.651  0.00  0.00    +0.210 HD
ENDBRANCH  45  46
ENDBRANCH  31  45
ENDBRANCH  30  32
ENDBRANCH   1  30
TORSDOF 18
ENDMDL
