MODEL 1
REMARK VINA RESULT:      -4.7      0.000      0.000
REMARK  Name = 
REMARK  13 active torsions:
REMARK  status: ('A' for Active; 'I' for Inactive)
REMARK    1  A    between atoms: C_1  and  C_2
REMARK    2  A    between atoms: C_2  and  C_3
REMARK    3  A    between atoms: C_3  and  C_4
REMARK    4  A    between atoms: C_4  and  C_5
REMARK    5  A    between atoms: C_5  and  C_6
REMARK    6  A    between atoms: C_6  and  C_7
REMARK    7  A    between atoms: C_7  and  C_8
REMARK    8  A    between atoms: C_9  and  C_10
REMARK    9  A    between atoms: C_10  and  S_12
REMARK   10  A    between atoms: S_12  and  C_13
REMARK   11  A    between atoms: C_13  and  C_14
REMARK   12  A    between atoms: C_14  and  N_15
REMARK   13  A    between atoms: C_16  and  C_17
REMARK                            x       y       z     vdW  Elec       q    Type
REMARK                         _______ _______ _______ _____ _____    ______ ____
ROOT
ATOM      1  C   UNL     1       7.599   2.068  22.476  0.00  0.00    +0.212 C 
ATOM      2  O   UNL     1       7.131   1.192  23.188  0.00  0.00    -0.280 OA
ENDROOT
BRANCH   1   4
ATOM      3  C   UNL     1      10.089   1.945  22.296  0.00  0.00    -0.023 C 
ATOM      4  C   UNL     1       8.876   1.958  21.718  0.00  0.00    +0.054 C 
BRANCH   3   5
ATOM      5  C   UNL     1      10.332   1.988  23.777  0.00  0.00    +0.027 C 
BRANCH   5   6
ATOM      6  C   UNL     1      10.909   0.690  24.345  0.00  0.00    +0.004 C 
BRANCH   6   7
ATOM      7  C   UNL     1       9.835  -0.029  25.163  0.00  0.00    +0.000 C 
BRANCH   7   8
ATOM      8  C   UNL     1       9.382  -1.329  24.505  0.00  0.00    +0.000 C 
BRANCH   8   9
ATOM      9  C   UNL     1      10.184  -1.589  23.228  0.00  0.00    -0.000 C 
BRANCH   9  11
ATOM     10  C   UNL     1       7.884  -2.191  22.406  0.00  0.00    +0.004 C 
ATOM     11  C   UNL     1       9.271  -1.712  22.011  0.00  0.00    -0.003 C 
ENDBRANCH   9  11
ENDBRANCH   8   9
ENDBRANCH   7   8
ENDBRANCH   6   7
ENDBRANCH   5   6
ENDBRANCH   3   5
ENDBRANCH   1   4
BRANCH   1  12
ATOM     12  S   UNL     1       6.822   3.632  22.302  0.00  0.00    -0.082 S 
BRANCH  12  13
ATOM     13  C   UNL     1       7.615   4.496  23.698  0.00  0.00    +0.096 C 
BRANCH  13  14
ATOM     14  C   UNL     1       8.366   5.738  23.218  0.00  0.00    +0.115 C 
BRANCH  14  15
ATOM     15  N   UNL     1       9.790   5.506  23.059  0.00  0.00    -0.315 N 
ATOM     16  H   UNL     1      10.104   5.018  22.230  0.00  0.00    +0.149 HD
ATOM     17  C   UNL     1      10.701   5.917  24.002  0.00  0.00    +0.210 C 
ATOM     18  O   UNL     1      10.386   6.458  25.057  0.00  0.00    -0.276 OA
ATOM     19  C   UNL     1      12.135   5.667  23.626  0.00  0.00    +0.109 C 
ENDBRANCH  14  15
ENDBRANCH  13  14
ENDBRANCH  12  13
ENDBRANCH   1  12
TORSDOF 11
ENDMDL
MODEL 2
REMARK VINA RESULT:      -4.6      4.265      7.026
REMARK  Name = 
REMARK  13 active torsions:
REMARK  status: ('A' for Active; 'I' for Inactive)
REMARK    1  A    between atoms: C_1  and  C_2
REMARK    2  A    between atoms: C_2  and  C_3
REMARK    3  A    between atoms: C_3  and  C_4
REMARK    4  A    between atoms: C_4  and  C_5
REMARK    5  A    between atoms: C_5  and  C_6
REMARK    6  A    between atoms: C_6  and  C_7
REMARK    7  A    between atoms: C_7  and  C_8
REMARK    8  A    between atoms: C_9  and  C_10
REMARK    9  A    between atoms: C_10  and  S_12
REMARK   10  A    between atoms: S_12  and  C_13
REMARK   11  A    between atoms: C_13  and  C_14
REMARK   12  A    between atoms: C_14  and  N_15
REMARK   13  A    between atoms: C_16  and  C_17
REMARK                            x       y       z     vdW  Elec       q    Type
REMARK                         _______ _______ _______ _____ _____    ______ ____
ROOT
ATOM      1  C   UNL     1       7.336  -2.321  22.616  0.00  0.00    +0.212 C 
ATOM      2  O   UNL     1       6.587  -1.364  22.748  0.00  0.00    -0.280 OA
ENDROOT
BRANCH   1   4
ATOM      3  C   UNL     1       9.597  -1.877  23.583  0.00  0.00    -0.023 C 
ATOM      4  C   UNL     1       8.821  -2.239  22.547  0.00  0.00    +0.054 C 
BRANCH   3   5
ATOM      5  C   UNL     1       9.094  -1.554  24.959  0.00  0.00    +0.027 C 
BRANCH   5   6
ATOM      6  C   UNL     1       9.380  -0.116  25.398  0.00  0.00    +0.004 C 
BRANCH   6   7
ATOM      7  C   UNL     1      10.437   0.496  24.477  0.00  0.00    +0.000 C 
BRANCH   7   8
ATOM      8  C   UNL     1      10.133   1.952  24.137  0.00  0.00    +0.000 C 
BRANCH   8   9
ATOM      9  C   UNL     1      10.377   2.215  22.649  0.00  0.00    -0.000 C 
BRANCH   9  11
ATOM     10  C   UNL     1       8.165   1.655  21.593  0.00  0.00    +0.004 C 
ATOM     11  C   UNL     1       9.612   1.227  21.774  0.00  0.00    -0.003 C 
ENDBRANCH   9  11
ENDBRANCH   8   9
ENDBRANCH   7   8
ENDBRANCH   6   7
ENDBRANCH   5   6
ENDBRANCH   3   5
ENDBRANCH   1   4
BRANCH   1  12
ATOM     12  S   UNL     1       6.723  -3.956  22.432  0.00  0.00    -0.082 S 
BRANCH  12  13
ATOM     13  C   UNL     1       5.546  -3.972  23.824  0.00  0.00    +0.096 C 
BRANCH  13  14
ATOM     14  C   UNL     1       6.189  -4.567  25.078  0.00  0.00    +0.115 C 
BRANCH  14  15
ATOM     15  N   UNL     1       7.597  -4.867  24.896  0.00  0.00    -0.315 N 
ATOM     16  H   UNL     1       7.938  -5.011  23.955  0.00  0.00    +0.149 HD
ATOM     17  C   UNL     1       8.458  -4.971  25.962  0.00  0.00    +0.210 C 
ATOM     18  O   UNL     1       8.103  -4.871  27.133  0.00  0.00    -0.276 OA
ATOM     19  C   UNL     1       9.894  -5.201  25.578  0.00  0.00    +0.109 C 
ENDBRANCH  14  15
ENDBRANCH  13  14
ENDBRANCH  12  13
ENDBRANCH   1  12
TORSDOF 11
ENDMDL
MODEL 3
REMARK VINA RESULT:      -4.6      3.796      7.535
REMARK  Name = 
REMARK  13 active torsions:
REMARK  status: ('A' for Active; 'I' for Inactive)
REMARK    1  A    between atoms: C_1  and  C_2
REMARK    2  A    between atoms: C_2  and  C_3
REMARK    3  A    between atoms: C_3  and  C_4
REMARK    4  A    between atoms: C_4  and  C_5
REMARK    5  A    between atoms: C_5  and  C_6
REMARK    6  A    between atoms: C_6  and  C_7
REMARK    7  A    between atoms: C_7  and  C_8
REMARK    8  A    between atoms: C_9  and  C_10
REMARK    9  A    between atoms: C_10  and  S_12
REMARK   10  A    between atoms: S_12  and  C_13
REMARK   11  A    between atoms: C_13  and  C_14
REMARK   12  A    between atoms: C_14  and  N_15
REMARK   13  A    between atoms: C_16  and  C_17
REMARK                            x       y       z     vdW  Elec       q    Type
REMARK                         _______ _______ _______ _____ _____    ______ ____
ROOT
ATOM      1  C   UNL     1       9.595  -1.112  22.273  0.00  0.00    +0.212 C 
ATOM      2  O   UNL     1      10.553  -1.843  22.478  0.00  0.00    -0.280 OA
ENDROOT
BRANCH   1   4
ATOM      3  C   UNL     1       9.926   1.345  21.955  0.00  0.00    -0.023 C 
ATOM      4  C   UNL     1       9.631   0.132  21.456  0.00  0.00    +0.054 C 
BRANCH   3   5
ATOM      5  C   UNL     1      10.306   1.615  23.382  0.00  0.00    +0.027 C 
BRANCH   5   6
ATOM      6  C   UNL     1       9.267   2.432  24.152  0.00  0.00    +0.004 C 
BRANCH   6   7
ATOM      7  C   UNL     1       8.433   3.253  23.167  0.00  0.00    +0.000 C 
BRANCH   7   8
ATOM      8  C   UNL     1       8.374   4.728  23.549  0.00  0.00    +0.000 C 
BRANCH   8   9
ATOM      9  C   UNL     1       9.559   5.096  24.444  0.00  0.00    -0.000 C 
BRANCH   9  11
ATOM     10  C   UNL     1      11.861   5.058  23.430  0.00  0.00    +0.004 C 
ATOM     11  C   UNL     1      10.614   5.890  23.678  0.00  0.00    -0.003 C 
ENDBRANCH   9  11
ENDBRANCH   8   9
ENDBRANCH   7   8
ENDBRANCH   6   7
ENDBRANCH   5   6
ENDBRANCH   3   5
ENDBRANCH   1   4
BRANCH   1  12
ATOM     12  S   UNL     1       8.023  -1.425  22.989  0.00  0.00    -0.082 S 
BRANCH  12  13
ATOM     13  C   UNL     1       8.465  -2.865  24.016  0.00  0.00    +0.096 C 
BRANCH  13  14
ATOM     14  C   UNL     1       7.328  -3.887  24.044  0.00  0.00    +0.115 C 
BRANCH  14  15
ATOM     15  N   UNL     1       7.277  -4.702  22.844  0.00  0.00    -0.315 N 
ATOM     16  H   UNL     1       8.093  -5.249  22.603  0.00  0.00    +0.149 HD
ATOM     17  C   UNL     1       6.166  -4.732  22.036  0.00  0.00    +0.210 C 
ATOM     18  O   UNL     1       5.166  -4.049  22.233  0.00  0.00    -0.276 OA
ATOM     19  C   UNL     1       6.263  -5.698  20.887  0.00  0.00    +0.109 C 
ENDBRANCH  14  15
ENDBRANCH  13  14
ENDBRANCH  12  13
ENDBRANCH   1  12
TORSDOF 11
ENDMDL
MODEL 4
REMARK VINA RESULT:      -4.6      1.871      2.698
REMARK  Name = 
REMARK  13 active torsions:
REMARK  status: ('A' for Active; 'I' for Inactive)
REMARK    1  A    between atoms: C_1  and  C_2
REMARK    2  A    between atoms: C_2  and  C_3
REMARK    3  A    between atoms: C_3  and  C_4
REMARK    4  A    between atoms: C_4  and  C_5
REMARK    5  A    between atoms: C_5  and  C_6
REMARK    6  A    between atoms: C_6  and  C_7
REMARK    7  A    between atoms: C_7  and  C_8
REMARK    8  A    between atoms: C_9  and  C_10
REMARK    9  A    between atoms: C_10  and  S_12
REMARK   10  A    between atoms: S_12  and  C_13
REMARK   11  A    between atoms: C_13  and  C_14
REMARK   12  A    between atoms: C_14  and  N_15
REMARK   13  A    between atoms: C_16  and  C_17
REMARK                            x       y       z     vdW  Elec       q    Type
REMARK                         _______ _______ _______ _____ _____    ______ ____
ROOT
ATOM      1  C   UNL     1       8.012   1.280  22.849  0.00  0.00    +0.212 C 
ATOM      2  O   UNL     1       6.807   1.080  22.831  0.00  0.00    -0.280 OA
ENDROOT
BRANCH   1   4
ATOM      3  C   UNL     1       9.413  -0.029  21.246  0.00  0.00    -0.023 C 
ATOM      4  C   UNL     1       8.917   1.145  21.675  0.00  0.00    +0.054 C 
BRANCH   3   5
ATOM      5  C   UNL     1       9.093  -1.366  21.849  0.00  0.00    +0.027 C 
BRANCH   5   6
ATOM      6  C   UNL     1      10.135  -1.851  22.858  0.00  0.00    +0.004 C 
BRANCH   6   7
ATOM      7  C   UNL     1       9.440  -2.224  24.169  0.00  0.00    +0.000 C 
BRANCH   7   8
ATOM      8  C   UNL     1       7.936  -2.410  23.992  0.00  0.00    +0.000 C 
BRANCH   8   9
ATOM      9  C   UNL     1       7.495  -3.765  24.549  0.00  0.00    -0.000 C 
BRANCH   9  11
ATOM     10  C   UNL     1       7.213  -4.585  22.188  0.00  0.00    +0.004 C 
ATOM     11  C   UNL     1       7.781  -4.894  23.563  0.00  0.00    -0.003 C 
ENDBRANCH   9  11
ENDBRANCH   8   9
ENDBRANCH   7   8
ENDBRANCH   6   7
ENDBRANCH   5   6
ENDBRANCH   3   5
ENDBRANCH   1   4
BRANCH   1  12
ATOM     12  S   UNL     1       8.855   1.713  24.327  0.00  0.00    -0.082 S 
BRANCH  12  13
ATOM     13  C   UNL     1      10.450   2.217  23.602  0.00  0.00    +0.096 C 
BRANCH  13  14
ATOM     14  C   UNL     1      10.617   3.736  23.650  0.00  0.00    +0.115 C 
BRANCH  14  15
ATOM     15  N   UNL     1      11.645   4.216  22.745  0.00  0.00    -0.315 N 
ATOM     16  H   UNL     1      11.753   3.750  21.853  0.00  0.00    +0.149 HD
ATOM     17  C   UNL     1      12.470   5.264  23.076  0.00  0.00    +0.210 C 
ATOM     18  O   UNL     1      12.438   5.835  24.161  0.00  0.00    -0.276 OA
ATOM     19  C   UNL     1      13.415   5.677  21.981  0.00  0.00    +0.109 C 
ENDBRANCH  14  15
ENDBRANCH  13  14
ENDBRANCH  12  13
ENDBRANCH   1  12
TORSDOF 11
ENDMDL
MODEL 5
REMARK VINA RESULT:      -4.5      4.163      7.077
REMARK  Name = 
REMARK  13 active torsions:
REMARK  status: ('A' for Active; 'I' for Inactive)
REMARK    1  A    between atoms: C_1  and  C_2
REMARK    2  A    between atoms: C_2  and  C_3
REMARK    3  A    between atoms: C_3  and  C_4
REMARK    4  A    between atoms: C_4  and  C_5
REMARK    5  A    between atoms: C_5  and  C_6
REMARK    6  A    between atoms: C_6  and  C_7
REMARK    7  A    between atoms: C_7  and  C_8
REMARK    8  A    between atoms: C_9  and  C_10
REMARK    9  A    between atoms: C_10  and  S_12
REMARK   10  A    between atoms: S_12  and  C_13
REMARK   11  A    between atoms: C_13  and  C_14
REMARK   12  A    between atoms: C_14  and  N_15
REMARK   13  A    between atoms: C_16  and  C_17
REMARK                            x       y       z     vdW  Elec       q    Type
REMARK                         _______ _______ _______ _____ _____    ______ ____
ROOT
ATOM      1  C   UNL     1       9.042  -1.797  24.053  0.00  0.00    +0.212 C 
ATOM      2  O   UNL     1       9.980  -2.364  23.514  0.00  0.00    -0.280 OA
ENDROOT
BRANCH   1   4
ATOM      3  C   UNL     1       9.972   0.159  25.302  0.00  0.00    -0.023 C 
ATOM      4  C   UNL     1       9.153  -0.905  25.242  0.00  0.00    +0.054 C 
BRANCH   3   5
ATOM      5  C   UNL     1      10.848   0.631  24.178  0.00  0.00    +0.027 C 
BRANCH   5   6
ATOM      6  C   UNL     1      10.511   2.040  23.685  0.00  0.00    +0.004 C 
BRANCH   6   7
ATOM      7  C   UNL     1      10.285   2.009  22.172  0.00  0.00    +0.000 C 
BRANCH   7   8
ATOM      8  C   UNL     1       9.072   1.168  21.787  0.00  0.00    +0.000 C 
BRANCH   8   9
ATOM      9  C   UNL     1       7.831   2.051  21.647  0.00  0.00    -0.000 C 
BRANCH   9  11
ATOM     10  C   UNL     1       6.881   1.865  23.969  0.00  0.00    +0.004 C 
ATOM     11  C   UNL     1       6.676   1.533  22.499  0.00  0.00    -0.003 C 
ENDBRANCH   9  11
ENDBRANCH   8   9
ENDBRANCH   7   8
ENDBRANCH   6   7
ENDBRANCH   5   6
ENDBRANCH   3   5
ENDBRANCH   1   4
BRANCH   1  12
ATOM     12  S   UNL     1       7.389  -2.016  23.505  0.00  0.00    -0.082 S 
BRANCH  12  13
ATOM     13  C   UNL     1       7.649  -3.439  22.395  0.00  0.00    +0.096 C 
BRANCH  13  14
ATOM     14  C   UNL     1       7.205  -4.742  23.062  0.00  0.00    +0.115 C 
BRANCH  14  15
ATOM     15  N   UNL     1       7.264  -4.678  24.511  0.00  0.00    -0.315 N 
ATOM     16  H   UNL     1       6.482  -4.268  25.003  0.00  0.00    +0.149 HD
ATOM     17  C   UNL     1       8.350  -5.144  25.212  0.00  0.00    +0.210 C 
ATOM     18  O   UNL     1       9.359  -5.596  24.679  0.00  0.00    -0.276 OA
ATOM     19  C   UNL     1       8.197  -5.075  26.707  0.00  0.00    +0.109 C 
ENDBRANCH  14  15
ENDBRANCH  13  14
ENDBRANCH  12  13
ENDBRANCH   1  12
TORSDOF 11
ENDMDL
MODEL 6
REMARK VINA RESULT:      -4.5      4.189      7.266
REMARK  Name = 
REMARK  13 active torsions:
REMARK  status: ('A' for Active; 'I' for Inactive)
REMARK    1  A    between atoms: C_1  and  C_2
REMARK    2  A    between atoms: C_2  and  C_3
REMARK    3  A    between atoms: C_3  and  C_4
REMARK    4  A    between atoms: C_4  and  C_5
REMARK    5  A    between atoms: C_5  and  C_6
REMARK    6  A    between atoms: C_6  and  C_7
REMARK    7  A    between atoms: C_7  and  C_8
REMARK    8  A    between atoms: C_9  and  C_10
REMARK    9  A    between atoms: C_10  and  S_12
REMARK   10  A    between atoms: S_12  and  C_13
REMARK   11  A    between atoms: C_13  and  C_14
REMARK   12  A    between atoms: C_14  and  N_15
REMARK   13  A    between atoms: C_16  and  C_17
REMARK                            x       y       z     vdW  Elec       q    Type
REMARK                         _______ _______ _______ _____ _____    ______ ____
ROOT
ATOM      1  C   UNL     1       9.381  -2.064  23.909  0.00  0.00    +0.212 C 
ATOM      2  O   UNL     1      10.232  -2.940  23.881  0.00  0.00    -0.280 OA
ENDROOT
BRANCH   1   4
ATOM      3  C   UNL     1       9.898   0.100  25.049  0.00  0.00    -0.023 C 
ATOM      4  C   UNL     1       9.224  -1.062  25.000  0.00  0.00    +0.054 C 
BRANCH   3   5
ATOM      5  C   UNL     1      10.861   0.577  24.001  0.00  0.00    +0.027 C 
BRANCH   5   6
ATOM      6  C   UNL     1      10.466   1.911  23.364  0.00  0.00    +0.004 C 
BRANCH   6   7
ATOM      7  C   UNL     1       9.650   1.647  22.097  0.00  0.00    +0.000 C 
BRANCH   7   8
ATOM      8  C   UNL     1       8.380   2.491  22.043  0.00  0.00    +0.000 C 
BRANCH   8   9
ATOM      9  C   UNL     1       7.147   1.616  22.273  0.00  0.00    -0.000 C 
BRANCH   9  11
ATOM     10  C   UNL     1       7.040   2.973  24.388  0.00  0.00    +0.004 C 
ATOM     11  C   UNL     1       6.709   1.641  23.735  0.00  0.00    -0.003 C 
ENDBRANCH   9  11
ENDBRANCH   8   9
ENDBRANCH   7   8
ENDBRANCH   6   7
ENDBRANCH   5   6
ENDBRANCH   3   5
ENDBRANCH   1   4
BRANCH   1  12
ATOM     12  S   UNL     1       8.168  -1.912  22.649  0.00  0.00    -0.082 S 
BRANCH  12  13
ATOM     13  C   UNL     1       6.672  -2.055  23.682  0.00  0.00    +0.096 C 
BRANCH  13  14
ATOM     14  C   UNL     1       6.461  -3.498  24.142  0.00  0.00    +0.115 C 
BRANCH  14  15
ATOM     15  N   UNL     1       6.752  -4.467  23.101  0.00  0.00    -0.315 N 
ATOM     16  H   UNL     1       7.705  -4.788  22.999  0.00  0.00    +0.149 HD
ATOM     17  C   UNL     1       5.774  -4.937  22.257  0.00  0.00    +0.210 C 
ATOM     18  O   UNL     1       4.611  -4.547  22.283  0.00  0.00    -0.276 OA
ATOM     19  C   UNL     1       6.242  -5.998  21.299  0.00  0.00    +0.109 C 
ENDBRANCH  14  15
ENDBRANCH  13  14
ENDBRANCH  12  13
ENDBRANCH   1  12
TORSDOF 11
ENDMDL
MODEL 7
REMARK VINA RESULT:      -4.5      3.613      7.565
REMARK  Name = 
REMARK  13 active torsions:
REMARK  status: ('A' for Active; 'I' for Inactive)
REMARK    1  A    between atoms: C_1  and  C_2
REMARK    2  A    between atoms: C_2  and  C_3
REMARK    3  A    between atoms: C_3  and  C_4
REMARK    4  A    between atoms: C_4  and  C_5
REMARK    5  A    between atoms: C_5  and  C_6
REMARK    6  A    between atoms: C_6  and  C_7
REMARK    7  A    between atoms: C_7  and  C_8
REMARK    8  A    between atoms: C_9  and  C_10
REMARK    9  A    between atoms: C_10  and  S_12
REMARK   10  A    between atoms: S_12  and  C_13
REMARK   11  A    between atoms: C_13  and  C_14
REMARK   12  A    between atoms: C_14  and  N_15
REMARK   13  A    between atoms: C_16  and  C_17
REMARK                            x       y       z     vdW  Elec       q    Type
REMARK                         _______ _______ _______ _____ _____    ______ ____
ROOT
ATOM      1  C   UNL     1       9.958  -0.282  24.719  0.00  0.00    +0.212 C 
ATOM      2  O   UNL     1       9.417  -0.428  25.805  0.00  0.00    -0.280 OA
ENDROOT
BRANCH   1   4
ATOM      3  C   UNL     1      10.621   1.991  23.918  0.00  0.00    -0.023 C 
ATOM      4  C   UNL     1      10.952   0.779  24.397  0.00  0.00    +0.054 C 
BRANCH   3   5
ATOM      5  C   UNL     1       9.216   2.467  23.686  0.00  0.00    +0.027 C 
BRANCH   5   6
ATOM      6  C   UNL     1       8.668   3.342  24.815  0.00  0.00    +0.004 C 
BRANCH   6   7
ATOM      7  C   UNL     1       8.444   4.763  24.293  0.00  0.00    +0.000 C 
BRANCH   7   8
ATOM      8  C   UNL     1       9.552   5.718  24.726  0.00  0.00    +0.000 C 
BRANCH   8   9
ATOM      9  C   UNL     1      10.526   5.966  23.573  0.00  0.00    -0.000 C 
BRANCH   9  11
ATOM     10  C   UNL     1      12.846   5.076  23.179  0.00  0.00    +0.004 C 
ATOM     11  C   UNL     1      11.974   5.963  24.054  0.00  0.00    -0.003 C 
ENDBRANCH   9  11
ENDBRANCH   8   9
ENDBRANCH   7   8
ENDBRANCH   6   7
ENDBRANCH   5   6
ENDBRANCH   3   5
ENDBRANCH   1   4
BRANCH   1  12
ATOM     12  S   UNL     1       9.571  -1.307  23.347  0.00  0.00    -0.082 S 
BRANCH  12  13
ATOM     13  C   UNL     1       9.669  -2.929  24.175  0.00  0.00    +0.096 C 
BRANCH  13  14
ATOM     14  C   UNL     1       8.273  -3.505  24.418  0.00  0.00    +0.115 C 
BRANCH  14  15
ATOM     15  N   UNL     1       7.974  -4.633  23.554  0.00  0.00    -0.315 N 
ATOM     16  H   UNL     1       8.311  -5.547  23.827  0.00  0.00    +0.149 HD
ATOM     17  C   UNL     1       7.266  -4.482  22.386  0.00  0.00    +0.210 C 
ATOM     18  O   UNL     1       6.880  -3.397  21.962  0.00  0.00    -0.276 OA
ATOM     19  C   UNL     1       6.977  -5.771  21.667  0.00  0.00    +0.109 C 
ENDBRANCH  14  15
ENDBRANCH  13  14
ENDBRANCH  12  13
ENDBRANCH   1  12
TORSDOF 11
ENDMDL
MODEL 8
REMARK VINA RESULT:      -4.4      4.395      7.662
REMARK  Name = 
REMARK  13 active torsions:
REMARK  status: ('A' for Active; 'I' for Inactive)
REMARK    1  A    between atoms: C_1  and  C_2
REMARK    2  A    between atoms: C_2  and  C_3
REMARK    3  A    between atoms: C_3  and  C_4
REMARK    4  A    between atoms: C_4  and  C_5
REMARK    5  A    between atoms: C_5  and  C_6
REMARK    6  A    between atoms: C_6  and  C_7
REMARK    7  A    between atoms: C_7  and  C_8
REMARK    8  A    between atoms: C_9  and  C_10
REMARK    9  A    between atoms: C_10  and  S_12
REMARK   10  A    between atoms: S_12  and  C_13
REMARK   11  A    between atoms: C_13  and  C_14
REMARK   12  A    between atoms: C_14  and  N_15
REMARK   13  A    between atoms: C_16  and  C_17
REMARK                            x       y       z     vdW  Elec       q    Type
REMARK                         _______ _______ _______ _____ _____    ______ ____
ROOT
ATOM      1  C   UNL     1       8.366  -1.913  25.885  0.00  0.00    +0.212 C 
ATOM      2  O   UNL     1       8.994  -1.046  26.475  0.00  0.00    -0.280 OA
ENDROOT
BRANCH   1   4
ATOM      3  C   UNL     1       7.850  -1.757  23.445  0.00  0.00    -0.023 C 
ATOM      4  C   UNL     1       7.460  -1.672  24.728  0.00  0.00    +0.054 C 
BRANCH   3   5
ATOM      5  C   UNL     1       9.226  -2.151  22.991  0.00  0.00    +0.027 C 
BRANCH   5   6
ATOM      6  C   UNL     1      10.122  -0.961  22.642  0.00  0.00    +0.004 C 
BRANCH   6   7
ATOM      7  C   UNL     1       9.532  -0.213  21.445  0.00  0.00    +0.000 C 
BRANCH   7   8
ATOM      8  C   UNL     1       9.071   1.194  21.814  0.00  0.00    +0.000 C 
BRANCH   8   9
ATOM      9  C   UNL     1      10.266   2.057  22.223  0.00  0.00    -0.000 C 
BRANCH   9  11
ATOM     10  C   UNL     1       8.870   2.032  24.316  0.00  0.00    +0.004 C 
ATOM     11  C   UNL     1      10.094   2.620  23.632  0.00  0.00    -0.003 C 
ENDBRANCH   9  11
ENDBRANCH   8   9
ENDBRANCH   7   8
ENDBRANCH   6   7
ENDBRANCH   5   6
ENDBRANCH   3   5
ENDBRANCH   1   4
BRANCH   1  12
ATOM     12  S   UNL     1       8.419  -3.595  26.385  0.00  0.00    -0.082 S 
BRANCH  12  13
ATOM     13  C   UNL     1       6.652  -4.000  26.189  0.00  0.00    +0.096 C 
BRANCH  13  14
ATOM     14  C   UNL     1       6.474  -5.359  25.511  0.00  0.00    +0.115 C 
BRANCH  14  15
ATOM     15  N   UNL     1       6.203  -5.245  24.089  0.00  0.00    -0.315 N 
ATOM     16  H   UNL     1       5.248  -5.090  23.796  0.00  0.00    +0.149 HD
ATOM     17  C   UNL     1       7.201  -5.353  23.151  0.00  0.00    +0.210 C 
ATOM     18  O   UNL     1       8.370  -5.602  23.430  0.00  0.00    -0.276 OA
ATOM     19  C   UNL     1       6.747  -5.121  21.736  0.00  0.00    +0.109 C 
ENDBRANCH  14  15
ENDBRANCH  13  14
ENDBRANCH  12  13
ENDBRANCH   1  12
TORSDOF 11
ENDMDL
MODEL 9
REMARK VINA RESULT:      -4.4      4.715      7.681
REMARK  Name = 
REMARK  13 active torsions:
REMARK  status: ('A' for Active; 'I' for Inactive)
REMARK    1  A    between atoms: C_1  and  C_2
REMARK    2  A    between atoms: C_2  and  C_3
REMARK    3  A    between atoms: C_3  and  C_4
REMARK    4  A    between atoms: C_4  and  C_5
REMARK    5  A    between atoms: C_5  and  C_6
REMARK    6  A    between atoms: C_6  and  C_7
REMARK    7  A    between atoms: C_7  and  C_8
REMARK    8  A    between atoms: C_9  and  C_10
REMARK    9  A    between atoms: C_10  and  S_12
REMARK   10  A    between atoms: S_12  and  C_13
REMARK   11  A    between atoms: C_13  and  C_14
REMARK   12  A    between atoms: C_14  and  N_15
REMARK   13  A    between atoms: C_16  and  C_17
REMARK                            x       y       z     vdW  Elec       q    Type
REMARK                         _______ _______ _______ _____ _____    ______ ____
ROOT
ATOM      1  C   UNL     1       8.735  -2.989  24.303  0.00  0.00    +0.212 C 
ATOM      2  O   UNL     1       8.994  -4.121  23.924  0.00  0.00    -0.280 OA
ENDROOT
BRANCH   1   4
ATOM      3  C   UNL     1      10.115  -1.142  23.338  0.00  0.00    -0.023 C 
ATOM      4  C   UNL     1       9.718  -1.874  24.393  0.00  0.00    +0.054 C 
BRANCH   3   5
ATOM      5  C   UNL     1       9.597  -1.305  21.938  0.00  0.00    +0.027 C 
BRANCH   5   6
ATOM      6  C   UNL     1       9.314   0.020  21.228  0.00  0.00    +0.004 C 
BRANCH   6   7
ATOM      7  C   UNL     1       9.899   1.172  22.047  0.00  0.00    +0.000 C 
BRANCH   7   8
ATOM      8  C   UNL     1       8.901   2.310  22.238  0.00  0.00    +0.000 C 
BRANCH   8   9
ATOM      9  C   UNL     1       8.578   2.495  23.722  0.00  0.00    -0.000 C 
BRANCH   9  11
ATOM     10  C   UNL     1       7.845   1.138  25.709  0.00  0.00    +0.004 C 
ATOM     11  C   UNL     1       7.635   1.406  24.228  0.00  0.00    -0.003 C 
ENDBRANCH   9  11
ENDBRANCH   8   9
ENDBRANCH   7   8
ENDBRANCH   6   7
ENDBRANCH   5   6
ENDBRANCH   3   5
ENDBRANCH   1   4
BRANCH   1  12
ATOM     12  S   UNL     1       7.130  -2.544  24.857  0.00  0.00    -0.082 S 
BRANCH  12  13
ATOM     13  C   UNL     1       6.652  -4.126  25.629  0.00  0.00    +0.096 C 
BRANCH  13  14
ATOM     14  C   UNL     1       5.601  -4.850  24.787  0.00  0.00    +0.115 C 
BRANCH  14  15
ATOM     15  N   UNL     1       6.154  -5.428  23.576  0.00  0.00    -0.315 N 
ATOM     16  H   UNL     1       6.886  -6.120  23.668  0.00  0.00    +0.149 HD
ATOM     17  C   UNL     1       5.718  -5.051  22.329  0.00  0.00    +0.210 C 
ATOM     18  O   UNL     1       4.878  -4.175  22.140  0.00  0.00    -0.276 OA
ATOM     19  C   UNL     1       6.343  -5.818  21.197  0.00  0.00    +0.109 C 
ENDBRANCH  14  15
ENDBRANCH  13  14
ENDBRANCH  12  13
ENDBRANCH   1  12
TORSDOF 11
ENDMDL
