MODEL 1
REMARK VINA RESULT:       0.0      0.000      0.000
REMARK  Name = 
REMARK  42 active torsions:
REMARK  status: ('A' for Active; 'I' for Inactive)
REMARK    1  A    between atoms: C_1  and  C_2
REMARK    2  A    between atoms: C_2  and  C_3
REMARK    3  A    between atoms: C_3  and  C_4
REMARK    4  A    between atoms: C_3  and  C_5
REMARK    5  A    between atoms: C_5  and  C_6
REMARK    6  A    between atoms: C_6  and  C_7
REMARK    7  A    between atoms: C_7  and  C_8
REMARK    8  A    between atoms: C_8  and  C_9
REMARK    9  A    between atoms: N_11  and  C_12
REMARK   10  A    between atoms: C_12  and  C_13
REMARK   11  A    between atoms: C_12  and  C_16
REMARK   12  A    between atoms: C_13  and  C_14
REMARK   13  A    between atoms: C_14  and  N_15
REMARK   14  A    between atoms: N_18  and  C_19
REMARK   15  A    between atoms: C_19  and  C_20
REMARK   16  A    between atoms: C_19  and  C_23
REMARK   17  A    between atoms: C_20  and  C_21
REMARK   18  A    between atoms: C_20  and  O_22
REMARK   19  A    between atoms: N_25  and  C_26
REMARK   20  A    between atoms: C_26  and  C_27
REMARK   21  A    between atoms: C_26  and  C_30
REMARK   22  A    between atoms: C_27  and  C_28
REMARK   23  A    between atoms: C_28  and  N_29
REMARK   24  A    between atoms: N_32  and  C_33
REMARK   25  A    between atoms: C_39  and  C_83
REMARK   26  A    between atoms: C_43  and  C_44
REMARK   27  A    between atoms: C_44  and  C_45
REMARK   28  A    between atoms: C_45  and  N_46
REMARK   29  A    between atoms: C_50  and  C_51
REMARK   30  A    between atoms: C_51  and  C_52
REMARK   31  A    between atoms: C_52  and  N_53
REMARK   32  A    between atoms: C_57  and  C_58
REMARK   33  A    between atoms: C_58  and  C_59
REMARK   34  A    between atoms: C_59  and  C_60
REMARK   35  A    between atoms: C_59  and  C_61
REMARK   36  A    between atoms: C_65  and  C_66
REMARK   37  A    between atoms: C_66  and  C_67
REMARK   38  A    between atoms: C_76  and  C_77
REMARK   39  A    between atoms: C_77  and  C_78
REMARK   40  A    between atoms: C_78  and  N_79
REMARK   41  A    between atoms: C_83  and  C_84
REMARK   42  A    between atoms: C_83  and  O_85
REMARK                            x       y       z     vdW  Elec       q    Type
REMARK                         _______ _______ _______ _____ _____    ______ ____
ROOT
ATOM      1  C   UNL     1       6.795  -1.852  25.999  0.00  0.00    +0.160 C 
ATOM      2  C   UNL     1       5.929  -3.786  26.090  0.00  0.00    +0.234 C 
ATOM      3  O   UNL     1       6.599  -4.546  25.292  0.00  0.00    -0.274 OA
ATOM      4  N   UNL     1       4.655  -5.152  26.698  0.00  0.00    -0.302 N 
ATOM      5  H   UNL     1       5.172  -5.683  25.953  0.00  0.00    +0.150 HD
ATOM      6  C   UNL     1       3.774  -6.916  26.983  0.00  0.00    +0.160 C 
ATOM      7  C   UNL     1       2.884  -8.308  26.135  0.00  0.00    +0.234 C 
ATOM      8  O   UNL     1       3.316  -9.467  26.087  0.00  0.00    -0.274 OA
ATOM      9  N   UNL     1       1.629  -8.123  25.503  0.00  0.00    -0.302 N 
ATOM     10  H   UNL     1       0.740  -8.160  26.050  0.00  0.00    +0.150 HD
ATOM     11  C   UNL     1       1.831  -6.886  24.867  0.00  0.00    +0.163 C 
ATOM     12  C   UNL     1       1.335  -6.151  26.168  0.00  0.00    +0.234 C 
ATOM     13  O   UNL     1       0.512  -6.624  26.954  0.00  0.00    -0.274 OA
ATOM     14  N   UNL     1       1.932  -5.015  26.481  0.00  0.00    -0.302 N 
ATOM     15  H   UNL     1       1.952  -4.359  25.706  0.00  0.00    +0.150 HD
ATOM     16  C   UNL     1       1.830  -4.446  27.820  0.00  0.00    +0.159 C 
ATOM     17  C   UNL     1       2.097  -3.057  27.390  0.00  0.00    +0.234 C 
ATOM     18  O   UNL     1       1.596  -2.638  26.337  0.00  0.00    -0.274 OA
ATOM     19  N   UNL     1       2.877  -2.294  28.187  0.00  0.00    -0.302 N 
ATOM     20  H   UNL     1       3.120  -2.523  29.148  0.00  0.00    +0.150 HD
ATOM     21  C   UNL     1       3.106  -0.995  27.664  0.00  0.00    +0.160 C 
ATOM     22  C   UNL     1       3.355   0.012  28.766  0.00  0.00    +0.234 C 
ATOM     23  O   UNL     1       3.186  -0.250  29.953  0.00  0.00    -0.274 OA
ATOM     24  N   UNL     1       3.663   1.258  28.291  0.00  0.00    -0.302 N 
ATOM     25  H   UNL     1       3.705   1.452  27.291  0.00  0.00    +0.150 HD
ATOM     26  C   UNL     1       3.606   2.414  29.147  0.00  0.00    +0.160 C 
ATOM     27  C   UNL     1       4.042   3.589  28.307  0.00  0.00    +0.234 C 
ATOM     28  O   UNL     1       4.005   3.582  27.073  0.00  0.00    -0.274 OA
ATOM     29  N   UNL     1       4.520   4.628  29.029  0.00  0.00    -0.300 N 
ATOM     30  H   UNL     1       4.335   4.724  30.025  0.00  0.00    +0.150 HD
ATOM     31  C   UNL     1       5.318   5.641  28.368  0.00  0.00    +0.187 C 
ATOM     32  C   UNL     1       6.740   4.685  27.901  0.00  0.00    +0.236 C 
ATOM     33  O   UNL     1       7.844   5.228  27.987  0.00  0.00    -0.274 OA
ATOM     34  N   UNL     1       6.497   3.278  27.306  0.00  0.00    -0.314 N 
ATOM     35  H   UNL     1       5.687   3.406  26.701  0.00  0.00    +0.149 HD
ATOM     36  C   UNL     1       7.366   1.792  26.764  0.00  0.00    +0.106 C 
ATOM     37  C   UNL     1       6.580   0.033  26.568  0.00  0.00    +0.050 C 
ENDROOT
BRANCH   1  39
ATOM     38  C   UNL     1       9.236  -0.778  24.104  0.00  0.00    +0.234 C 
ATOM     39  N   UNL     1       7.659  -1.030  24.530  0.00  0.00    -0.302 N 
ATOM     40  H   UNL     1       7.143  -0.227  24.201  0.00  0.00    +0.150 HD
ATOM     41  O   UNL     1      10.118  -1.447  24.668  0.00  0.00    -0.274 OA
BRANCH  38  42
ATOM     42  C   UNL     1       9.840   0.348  22.691  0.00  0.00    +0.160 C 
BRANCH  42  44
ATOM     43  C   UNL     1      10.001   3.154  22.986  0.00  0.00    +0.236 C 
ATOM     44  N   UNL     1       9.877   1.998  22.106  0.00  0.00    -0.302 N 
ATOM     45  H   UNL     1       9.502   2.189  21.181  0.00  0.00    +0.150 HD
ATOM     46  O   UNL     1      10.457   2.964  24.125  0.00  0.00    -0.274 OA
BRANCH  43  47
ATOM     47  C   UNL     1       9.566   4.779  22.629  0.00  0.00    +0.187 C 
BRANCH  47  49
ATOM     48  C   UNL     1       7.478   6.231  22.491  0.00  0.00    +0.234 C 
ATOM     49  N   UNL     1       8.332   5.373  23.166  0.00  0.00    -0.300 N 
ATOM     50  H   UNL     1       8.274   5.409  24.173  0.00  0.00    +0.150 HD
ATOM     51  O   UNL     1       7.729   6.701  21.385  0.00  0.00    -0.274 OA
BRANCH  48  52
ATOM     52  C   UNL     1       6.142   6.539  23.245  0.00  0.00    +0.160 C 
BRANCH  52  54
ATOM     53  C   UNL     1       3.744   6.858  22.606  0.00  0.00    +0.214 C 
ATOM     54  N   UNL     1       5.066   6.713  22.258  0.00  0.00    -0.304 N 
ATOM     55  H   UNL     1       5.339   6.774  21.281  0.00  0.00    +0.149 HD
ATOM     56  O   UNL     1       3.366   6.921  23.773  0.00  0.00    -0.276 OA
BRANCH  53  57
ATOM     57  C   UNL     1       2.773   6.942  21.440  0.00  0.00    +0.096 C 
BRANCH  57  58
ATOM     58  C   UNL     1       1.864   5.717  21.364  0.00  0.00    +0.009 C 
BRANCH  58  59
ATOM     59  C   UNL     1       1.699   5.251  19.922  0.00  0.00    +0.001 C 
BRANCH  59  60
ATOM     60  C   UNL     1       1.165   6.367  19.017  0.00  0.00    +0.003 C 
BRANCH  60  61
ATOM     61  C   UNL     1       0.949   5.897  17.563  0.00  0.00    -0.014 C 
ATOM     62  C   UNL     1       1.970   4.823  17.169  0.00  0.00    +0.007 C 
BRANCH  61  64
ATOM     63  C   UNL     1       2.241   7.082  15.703  0.00  0.00    +0.004 C 
ATOM     64  C   UNL     1       1.015   7.106  16.608  0.00  0.00    -0.000 C 
ENDBRANCH  61  64
ENDBRANCH  60  61
ENDBRANCH  59  60
ENDBRANCH  58  59
ENDBRANCH  57  58
ENDBRANCH  53  57
ENDBRANCH  52  54
BRANCH  52  65
ATOM     65  C   UNL     1       5.788   5.388  24.221  0.00  0.00    +0.046 C 
BRANCH  65  66
ATOM     66  C   UNL     1       5.231   4.148  23.514  0.00  0.00    +0.080 C 
BRANCH  66  67
ATOM     67  N   UNL     1       4.408   3.297  24.347  0.00  0.00    -0.330 NA
ATOM     68  H   UNL     1       3.968   2.581  23.768  0.00  0.00    +0.118 HD
ATOM     69  H   UNL     1       4.982   2.799  25.023  0.00  0.00    +0.118 HD
ENDBRANCH  66  67
ENDBRANCH  65  66
ENDBRANCH  52  65
ENDBRANCH  48  52
ENDBRANCH  47  49
BRANCH  47  70
ATOM     70  C   UNL     1      10.761   5.781  22.954  0.00  0.00    +0.141 C 
ATOM     71  C   UNL     1      10.927   6.217  24.435  0.00  0.00    +0.040 C 
BRANCH  70  72
ATOM     72  O   UNL     1      12.006   5.182  22.566  0.00  0.00    -0.390 OA
ATOM     73  H   UNL     1      12.162   5.342  21.624  0.00  0.00    +0.210 HD
ENDBRANCH  70  72
ENDBRANCH  47  70
ENDBRANCH  43  47
ENDBRANCH  42  44
BRANCH  42  74
ATOM     74  C   UNL     1      11.322   0.219  22.940  0.00  0.00    +0.046 C 
BRANCH  74  75
ATOM     75  C   UNL     1      11.805  -1.092  22.303  0.00  0.00    +0.080 C 
BRANCH  75  76
ATOM     76  N   UNL     1      10.663  -1.666  21.622  0.00  0.00    -0.330 NA
ATOM     77  H   UNL     1      10.335  -2.485  22.125  0.00  0.00    +0.118 HD
ATOM     78  H   UNL     1       9.901  -0.986  21.665  0.00  0.00    +0.118 HD
ENDBRANCH  75  76
ENDBRANCH  74  75
ENDBRANCH  42  74
ENDBRANCH  38  42
ENDBRANCH   1  39
BRANCH  31  79
ATOM     79  C   UNL     1       5.241   6.916  29.386  0.00  0.00    +0.141 C 
ATOM     80  C   UNL     1       4.173   7.001  30.482  0.00  0.00    +0.040 C 
BRANCH  79  81
ATOM     81  O   UNL     1       6.518   7.044  30.111  0.00  0.00    -0.390 OA
ATOM     82  H   UNL     1       6.850   7.961  30.046  0.00  0.00    +0.210 HD
ENDBRANCH  79  81
ENDBRANCH  31  79
BRANCH  26  83
ATOM     83  C   UNL     1       2.197   2.717  29.621  0.00  0.00    +0.046 C 
BRANCH  83  84
ATOM     84  C   UNL     1       1.184   2.411  28.511  0.00  0.00    +0.080 C 
BRANCH  84  85
ATOM     85  N   UNL     1       0.649   1.076  28.681  0.00  0.00    -0.330 NA
ATOM     86  H   UNL     1       1.324   0.410  28.311  0.00  0.00    +0.118 HD
ATOM     87  H   UNL     1       0.560   0.880  29.676  0.00  0.00    +0.118 HD
ENDBRANCH  84  85
ENDBRANCH  83  84
ENDBRANCH  26  83
BRANCH  21  88
ATOM     88  C   UNL     1       4.243  -1.124  26.707  0.00  0.00    +0.046 C 
BRANCH  88  89
ATOM     89  C   UNL     1       4.015  -0.902  25.219  0.00  0.00    +0.080 C 
BRANCH  89  90
ATOM     90  N   UNL     1       4.482   0.412  24.862  0.00  0.00    -0.330 NA
ATOM     91  H   UNL     1       5.443   0.495  25.184  0.00  0.00    +0.118 HD
ATOM     92  H   UNL     1       4.551   0.410  23.838  0.00  0.00    +0.118 HD
ENDBRANCH  89  90
ENDBRANCH  88  89
ENDBRANCH  21  88
BRANCH  16  93
ATOM     93  C   UNL     1       0.443  -4.394  28.428  0.00  0.00    +0.034 C 
BRANCH  93  94
ATOM     94  C   UNL     1       0.465  -4.401  29.955  0.00  0.00    -0.015 C 
ATOM     95  C   UNL     1       1.256  -3.202  30.473  0.00  0.00    +0.007 C 
ATOM     96  C   UNL     1       1.033  -5.739  30.380  0.00  0.00    +0.007 C 
ENDBRANCH  93  94
ENDBRANCH  16  93
BRANCH  11  97
ATOM     97  C   UNL     1       3.350  -7.237  24.140  0.00  0.00    +0.067 C 
BRANCH  97  98
ATOM     98  C   UNL     1       3.719  -5.994  23.300  0.00  0.00    -0.045 A 
ATOM     99  C   UNL     1       3.514  -4.622  23.639  0.00  0.00    +0.004 A 
ATOM    100  C   UNL     1       4.358  -3.636  23.102  0.00  0.00    +0.000 A 
ATOM    101  C   UNL     1       5.472  -4.033  22.371  0.00  0.00    +0.000 A 
ATOM    102  C   UNL     1       5.660  -5.375  22.059  0.00  0.00    +0.000 A 
ATOM    103  C   UNL     1       4.708  -6.314  22.389  0.00  0.00    +0.004 A 
ENDBRANCH  97  98
ENDBRANCH  11  97
BRANCH   6 104
ATOM    104  C   UNL     1       2.537  -7.933  28.209  0.00  0.00    +0.046 C 
BRANCH 104 105
ATOM    105  C   UNL     1       1.206  -9.362  28.071  0.00  0.00    +0.080 C 
BRANCH 105 106
ATOM    106  N   UNL     1       0.761 -10.609  27.235  0.00  0.00    -0.330 NA
ATOM    107  H   UNL     1       0.000 -11.116  27.753  0.00  0.00    +0.118 HD
ATOM    108  H   UNL     1       0.217 -10.394  26.386  0.00  0.00    +0.118 HD
ENDBRANCH 105 106
ENDBRANCH 104 105
ENDBRANCH   6 104
TORSDOF 36
ENDMDL
