MODEL 1
REMARK VINA RESULT:      -4.3      0.000      0.000
REMARK  Name = 
REMARK  7 active torsions:
REMARK  status: ('A' for Active; 'I' for Inactive)
REMARK    1  A    between atoms: C_1  and  N_2
REMARK    2  A    between atoms: C_3  and  C_5
REMARK    3  A    between atoms: C_5  and  N_7
REMARK    4  A    between atoms: C_5  and  C_8
REMARK    5  A    between atoms: C_8  and  C_9
REMARK    6  A    between atoms: C_8  and  C_10
REMARK    7  A    between atoms: C_8  and  C_11
REMARK                            x       y       z     vdW  Elec       q    Type
REMARK                         _______ _______ _______ _____ _____    ______ ____
ROOT
ATOM      1  C   UNL     1       9.981   0.626  22.108  0.00  0.00    +0.143 C 
ENDROOT
BRANCH   1   5
ATOM      2  C   UNL     1       7.981  -2.620  22.367  0.00  0.00    +0.128 C 
ATOM      3  N   UNL     1       8.412  -1.250  22.343  0.00  0.00    -0.317 N 
ATOM      4  H   UNL     1       7.749  -0.494  22.192  0.00  0.00    +0.148 HD
ATOM      5  C   UNL     1       9.742  -0.904  22.233  0.00  0.00    +0.230 C 
ATOM      6  O   UNL     1      10.658  -1.720  22.243  0.00  0.00    -0.274 OA
ENDBRANCH   1   5
BRANCH   1   7
ATOM      7  C   UNL     1       9.998   1.361  23.487  0.00  0.00    -0.014 C 
ATOM      8  C   UNL     1      10.723   0.554  24.581  0.00  0.00    +0.012 C 
ATOM      9  C   UNL     1       8.552   1.628  23.965  0.00  0.00    +0.012 C 
ATOM     10  C   UNL     1      10.692   2.732  23.347  0.00  0.00    +0.012 C 
ENDBRANCH   1   7
BRANCH   1  11
ATOM     11  N   UNL     1       8.963   1.181  21.169  0.00  0.00    -0.320 NA
ATOM     12  H   UNL     1       8.876   0.546  20.375  0.00  0.00    +0.119 HD
ATOM     13  H   UNL     1       8.056   1.140  21.639  0.00  0.00    +0.119 HD
ENDBRANCH   1  11
TORSDOF 3
ENDMDL
MODEL 2
REMARK VINA RESULT:      -4.3      1.436      1.907
REMARK  Name = 
REMARK  7 active torsions:
REMARK  status: ('A' for Active; 'I' for Inactive)
REMARK    1  A    between atoms: C_1  and  N_2
REMARK    2  A    between atoms: C_3  and  C_5
REMARK    3  A    between atoms: C_5  and  N_7
REMARK    4  A    between atoms: C_5  and  C_8
REMARK    5  A    between atoms: C_8  and  C_9
REMARK    6  A    between atoms: C_8  and  C_10
REMARK    7  A    between atoms: C_8  and  C_11
REMARK                            x       y       z     vdW  Elec       q    Type
REMARK                         _______ _______ _______ _____ _____    ______ ____
ROOT
ATOM      1  C   UNL     1      10.092  -0.919  22.448  0.00  0.00    +0.143 C 
ENDROOT
BRANCH   1   5
ATOM      2  C   UNL     1       7.601  -3.769  22.972  0.00  0.00    +0.128 C 
ATOM      3  N   UNL     1       8.305  -2.604  22.515  0.00  0.00    -0.317 N 
ATOM      4  H   UNL     1       8.146  -2.226  21.584  0.00  0.00    +0.148 HD
ATOM      5  C   UNL     1       9.413  -2.114  23.172  0.00  0.00    +0.230 C 
ATOM      6  O   UNL     1       9.826  -2.567  24.235  0.00  0.00    -0.274 OA
ENDBRANCH   1   5
BRANCH   1   7
ATOM      7  C   UNL     1       9.843   0.451  23.157  0.00  0.00    -0.014 C 
ATOM      8  C   UNL     1       8.436   0.552  23.777  0.00  0.00    +0.012 C 
ATOM      9  C   UNL     1      10.007   1.611  22.148  0.00  0.00    +0.012 C 
ATOM     10  C   UNL     1      10.887   0.667  24.273  0.00  0.00    +0.012 C 
ENDBRANCH   1   7
BRANCH   1  11
ATOM     11  N   UNL     1       9.646  -0.923  21.024  0.00  0.00    -0.320 NA
ATOM     12  H   UNL     1       8.630  -0.836  21.004  0.00  0.00    +0.119 HD
ATOM     13  H   UNL     1       9.992  -0.063  20.592  0.00  0.00    +0.119 HD
ENDBRANCH   1  11
TORSDOF 3
ENDMDL
MODEL 3
REMARK VINA RESULT:      -4.1      2.625      4.386
REMARK  Name = 
REMARK  7 active torsions:
REMARK  status: ('A' for Active; 'I' for Inactive)
REMARK    1  A    between atoms: C_1  and  N_2
REMARK    2  A    between atoms: C_3  and  C_5
REMARK    3  A    between atoms: C_5  and  N_7
REMARK    4  A    between atoms: C_5  and  C_8
REMARK    5  A    between atoms: C_8  and  C_9
REMARK    6  A    between atoms: C_8  and  C_10
REMARK    7  A    between atoms: C_8  and  C_11
REMARK                            x       y       z     vdW  Elec       q    Type
REMARK                         _______ _______ _______ _____ _____    ______ ____
ROOT
ATOM      1  C   UNL     1       9.334   1.980  22.893  0.00  0.00    +0.143 C 
ENDROOT
BRANCH   1   5
ATOM      2  C   UNL     1      10.838   5.374  23.800  0.00  0.00    +0.128 C 
ATOM      3  N   UNL     1      10.546   4.093  23.222  0.00  0.00    -0.317 N 
ATOM      4  H   UNL     1      10.893   3.841  22.301  0.00  0.00    +0.148 HD
ATOM      5  C   UNL     1       9.568   3.265  23.734  0.00  0.00    +0.230 C 
ATOM      6  O   UNL     1       8.945   3.508  24.762  0.00  0.00    -0.274 OA
ENDBRANCH   1   5
BRANCH   1   7
ATOM      7  C   UNL     1       9.751   0.672  23.638  0.00  0.00    -0.014 C 
ATOM      8  C   UNL     1       8.665   0.170  24.609  0.00  0.00    +0.012 C 
ATOM      9  C   UNL     1      11.047   0.910  24.448  0.00  0.00    +0.012 C 
ATOM     10  C   UNL     1      10.050  -0.446  22.618  0.00  0.00    +0.012 C 
ENDBRANCH   1   7
BRANCH   1  11
ATOM     11  N   UNL     1      10.031   2.147  21.584  0.00  0.00    -0.320 NA
ATOM     12  H   UNL     1       9.379   1.904  20.838  0.00  0.00    +0.119 HD
ATOM     13  H   UNL     1      10.213   3.145  21.458  0.00  0.00    +0.119 HD
ENDBRANCH   1  11
TORSDOF 3
ENDMDL
MODEL 4
REMARK VINA RESULT:      -4.0      1.844      2.369
REMARK  Name = 
REMARK  7 active torsions:
REMARK  status: ('A' for Active; 'I' for Inactive)
REMARK    1  A    between atoms: C_1  and  N_2
REMARK    2  A    between atoms: C_3  and  C_5
REMARK    3  A    between atoms: C_5  and  N_7
REMARK    4  A    between atoms: C_5  and  C_8
REMARK    5  A    between atoms: C_8  and  C_9
REMARK    6  A    between atoms: C_8  and  C_10
REMARK    7  A    between atoms: C_8  and  C_11
REMARK                            x       y       z     vdW  Elec       q    Type
REMARK                         _______ _______ _______ _____ _____    ______ ____
ROOT
ATOM      1  C   UNL     1      10.252   2.289  23.175  0.00  0.00    +0.143 C 
ENDROOT
BRANCH   1   5
ATOM      2  C   UNL     1      10.060  -1.527  23.197  0.00  0.00    +0.128 C 
ATOM      3  N   UNL     1       9.885  -0.128  22.928  0.00  0.00    -0.317 N 
ATOM      4  H   UNL     1       9.502   0.193  22.042  0.00  0.00    +0.148 HD
ATOM      5  C   UNL     1      10.473   0.846  23.706  0.00  0.00    +0.230 C 
ATOM      6  O   UNL     1      11.105   0.606  24.729  0.00  0.00    -0.274 OA
ENDBRANCH   1   5
BRANCH   1   7
ATOM      7  C   UNL     1       8.977   2.973  23.765  0.00  0.00    -0.014 C 
ATOM      8  C   UNL     1       8.424   2.234  24.999  0.00  0.00    +0.012 C 
ATOM      9  C   UNL     1       7.860   3.029  22.697  0.00  0.00    +0.012 C 
ATOM     10  C   UNL     1       9.296   4.428  24.168  0.00  0.00    +0.012 C 
ENDBRANCH   1   7
BRANCH   1  11
ATOM     11  N   UNL     1      10.245   2.240  21.684  0.00  0.00    -0.320 NA
ATOM     12  H   UNL     1      11.208   2.301  21.354  0.00  0.00    +0.119 HD
ATOM     13  H   UNL     1       9.931   1.307  21.409  0.00  0.00    +0.119 HD
ENDBRANCH   1  11
TORSDOF 3
ENDMDL
MODEL 5
REMARK VINA RESULT:      -3.9      1.980      3.368
REMARK  Name = 
REMARK  7 active torsions:
REMARK  status: ('A' for Active; 'I' for Inactive)
REMARK    1  A    between atoms: C_1  and  N_2
REMARK    2  A    between atoms: C_3  and  C_5
REMARK    3  A    between atoms: C_5  and  N_7
REMARK    4  A    between atoms: C_5  and  C_8
REMARK    5  A    between atoms: C_8  and  C_9
REMARK    6  A    between atoms: C_8  and  C_10
REMARK    7  A    between atoms: C_8  and  C_11
REMARK                            x       y       z     vdW  Elec       q    Type
REMARK                         _______ _______ _______ _____ _____    ______ ____
ROOT
ATOM      1  C   UNL     1       9.021  -0.828  22.306  0.00  0.00    +0.143 C 
ENDROOT
BRANCH   1   5
ATOM      2  C   UNL     1       7.619   2.718  22.053  0.00  0.00    +0.128 C 
ATOM      3  N   UNL     1       7.796   1.296  22.157  0.00  0.00    -0.317 N 
ATOM      4  H   UNL     1       7.057   0.701  22.521  0.00  0.00    +0.148 HD
ATOM      5  C   UNL     1       9.036   0.703  22.048  0.00  0.00    +0.230 C 
ATOM      6  O   UNL     1      10.058   1.318  21.765  0.00  0.00    -0.274 OA
ENDBRANCH   1   5
BRANCH   1   7
ATOM      7  C   UNL     1       9.187  -1.200  23.815  0.00  0.00    -0.014 C 
ATOM      8  C   UNL     1      10.056  -0.186  24.584  0.00  0.00    +0.012 C 
ATOM      9  C   UNL     1       9.842  -2.594  23.951  0.00  0.00    +0.012 C 
ATOM     10  C   UNL     1       7.805  -1.278  24.495  0.00  0.00    +0.012 C 
ENDBRANCH   1   7
BRANCH   1  11
ATOM     11  N   UNL     1      10.060  -1.457  21.438  0.00  0.00    -0.320 NA
ATOM     12  H   UNL     1      10.564  -2.151  21.989  0.00  0.00    +0.119 HD
ATOM     13  H   UNL     1       9.573  -1.996  20.718  0.00  0.00    +0.119 HD
ENDBRANCH   1  11
TORSDOF 3
ENDMDL
MODEL 6
REMARK VINA RESULT:      -3.9      2.370      4.005
REMARK  Name = 
REMARK  7 active torsions:
REMARK  status: ('A' for Active; 'I' for Inactive)
REMARK    1  A    between atoms: C_1  and  N_2
REMARK    2  A    between atoms: C_3  and  C_5
REMARK    3  A    between atoms: C_5  and  N_7
REMARK    4  A    between atoms: C_5  and  C_8
REMARK    5  A    between atoms: C_8  and  C_9
REMARK    6  A    between atoms: C_8  and  C_10
REMARK    7  A    between atoms: C_8  and  C_11
REMARK                            x       y       z     vdW  Elec       q    Type
REMARK                         _______ _______ _______ _____ _____    ______ ____
ROOT
ATOM      1  C   UNL     1      10.452   0.299  23.757  0.00  0.00    +0.143 C 
ENDROOT
BRANCH   1   5
ATOM      2  C   UNL     1       9.473   3.993  23.774  0.00  0.00    +0.128 C 
ATOM      3  N   UNL     1       9.719   2.618  24.108  0.00  0.00    -0.317 N 
ATOM      4  H   UNL     1       9.805   2.320  25.076  0.00  0.00    +0.148 HD
ATOM      5  C   UNL     1      10.131   1.699  23.165  0.00  0.00    +0.230 C 
ATOM      6  O   UNL     1      10.228   1.953  21.969  0.00  0.00    -0.274 OA
ENDBRANCH   1   5
BRANCH   1   7
ATOM      7  C   UNL     1       9.451  -0.808  23.294  0.00  0.00    -0.014 C 
ATOM      8  C   UNL     1       7.980  -0.359  23.395  0.00  0.00    +0.012 C 
ATOM      9  C   UNL     1       9.626  -2.079  24.156  0.00  0.00    +0.012 C 
ATOM     10  C   UNL     1       9.742  -1.206  21.832  0.00  0.00    +0.012 C 
ENDBRANCH   1   7
BRANCH   1  11
ATOM     11  N   UNL     1      10.526   0.427  25.242  0.00  0.00    -0.320 NA
ATOM     12  H   UNL     1      11.424   0.054  25.552  0.00  0.00    +0.119 HD
ATOM     13  H   UNL     1      10.565   1.424  25.463  0.00  0.00    +0.119 HD
ENDBRANCH   1  11
TORSDOF 3
ENDMDL
MODEL 7
REMARK VINA RESULT:      -3.8      3.583      5.630
REMARK  Name = 
REMARK  7 active torsions:
REMARK  status: ('A' for Active; 'I' for Inactive)
REMARK    1  A    between atoms: C_1  and  N_2
REMARK    2  A    between atoms: C_3  and  C_5
REMARK    3  A    between atoms: C_5  and  N_7
REMARK    4  A    between atoms: C_5  and  C_8
REMARK    5  A    between atoms: C_8  and  C_9
REMARK    6  A    between atoms: C_8  and  C_10
REMARK    7  A    between atoms: C_8  and  C_11
REMARK                            x       y       z     vdW  Elec       q    Type
REMARK                         _______ _______ _______ _____ _____    ______ ____
ROOT
ATOM      1  C   UNL     1       8.535  -4.687  24.526  0.00  0.00    +0.143 C 
ENDROOT
BRANCH   1   5
ATOM      2  C   UNL     1      10.218  -1.615  22.999  0.00  0.00    +0.128 C 
ATOM      3  N   UNL     1       9.855  -2.741  23.813  0.00  0.00    -0.317 N 
ATOM      4  H   UNL     1      10.536  -3.195  24.415  0.00  0.00    +0.148 HD
ATOM      5  C   UNL     1       8.680  -3.436  23.617  0.00  0.00    +0.230 C 
ATOM      6  O   UNL     1       7.820  -3.098  22.811  0.00  0.00    -0.274 OA
ENDBRANCH   1   5
BRANCH   1   7
ATOM      7  C   UNL     1       7.533  -4.477  25.707  0.00  0.00    -0.014 C 
ATOM      8  C   UNL     1       7.860  -5.360  26.927  0.00  0.00    +0.012 C 
ATOM      9  C   UNL     1       6.094  -4.804  25.249  0.00  0.00    +0.012 C 
ATOM     10  C   UNL     1       7.545  -3.000  26.154  0.00  0.00    +0.012 C 
ENDBRANCH   1   7
BRANCH   1  11
ATOM     11  N   UNL     1       9.897  -5.087  24.988  0.00  0.00    -0.320 NA
ATOM     12  H   UNL     1      10.254  -5.802  24.354  0.00  0.00    +0.119 HD
ATOM     13  H   UNL     1      10.515  -4.284  24.853  0.00  0.00    +0.119 HD
ENDBRANCH   1  11
TORSDOF 3
ENDMDL
MODEL 8
REMARK VINA RESULT:      -3.8      2.584      3.682
REMARK  Name = 
REMARK  7 active torsions:
REMARK  status: ('A' for Active; 'I' for Inactive)
REMARK    1  A    between atoms: C_1  and  N_2
REMARK    2  A    between atoms: C_3  and  C_5
REMARK    3  A    between atoms: C_5  and  N_7
REMARK    4  A    between atoms: C_5  and  C_8
REMARK    5  A    between atoms: C_8  and  C_9
REMARK    6  A    between atoms: C_8  and  C_10
REMARK    7  A    between atoms: C_8  and  C_11
REMARK                            x       y       z     vdW  Elec       q    Type
REMARK                         _______ _______ _______ _____ _____    ______ ____
ROOT
ATOM      1  C   UNL     1       9.018   1.400  22.391  0.00  0.00    +0.143 C 
ENDROOT
BRANCH   1   5
ATOM      2  C   UNL     1       7.167   4.736  22.180  0.00  0.00    +0.128 C 
ATOM      3  N   UNL     1       8.143   3.695  22.340  0.00  0.00    -0.317 N 
ATOM      4  H   UNL     1       9.138   3.892  22.264  0.00  0.00    +0.148 HD
ATOM      5  C   UNL     1       7.800   2.360  22.317  0.00  0.00    +0.230 C 
ATOM      6  O   UNL     1       6.642   1.960  22.254  0.00  0.00    -0.274 OA
ENDBRANCH   1   5
BRANCH   1   7
ATOM      7  C   UNL     1       9.377   0.973  23.851  0.00  0.00    -0.014 C 
ATOM      8  C   UNL     1       9.153  -0.531  24.102  0.00  0.00    +0.012 C 
ATOM      9  C   UNL     1       8.517   1.763  24.864  0.00  0.00    +0.012 C 
ATOM     10  C   UNL     1      10.854   1.305  24.151  0.00  0.00    +0.012 C 
ENDBRANCH   1   7
BRANCH   1  11
ATOM     11  N   UNL     1      10.161   2.042  21.679  0.00  0.00    -0.320 NA
ATOM     12  H   UNL     1      10.905   1.352  21.575  0.00  0.00    +0.119 HD
ATOM     13  H   UNL     1       9.855   2.242  20.724  0.00  0.00    +0.119 HD
ENDBRANCH   1  11
TORSDOF 3
ENDMDL
MODEL 9
REMARK VINA RESULT:      -3.8      3.933      6.342
REMARK  Name = 
REMARK  7 active torsions:
REMARK  status: ('A' for Active; 'I' for Inactive)
REMARK    1  A    between atoms: C_1  and  N_2
REMARK    2  A    between atoms: C_3  and  C_5
REMARK    3  A    between atoms: C_5  and  N_7
REMARK    4  A    between atoms: C_5  and  C_8
REMARK    5  A    between atoms: C_8  and  C_9
REMARK    6  A    between atoms: C_8  and  C_10
REMARK    7  A    between atoms: C_8  and  C_11
REMARK                            x       y       z     vdW  Elec       q    Type
REMARK                         _______ _______ _______ _____ _____    ______ ____
ROOT
ATOM      1  C   UNL     1       6.706  -4.775  24.109  0.00  0.00    +0.143 C 
ENDROOT
BRANCH   1   5
ATOM      2  C   UNL     1       9.872  -2.646  23.885  0.00  0.00    +0.128 C 
ATOM      3  N   UNL     1       8.526  -3.146  23.842  0.00  0.00    -0.317 N 
ATOM      4  H   UNL     1       7.731  -2.513  23.836  0.00  0.00    +0.148 HD
ATOM      5  C   UNL     1       8.229  -4.469  24.092  0.00  0.00    +0.230 C 
ATOM      6  O   UNL     1       9.081  -5.332  24.275  0.00  0.00    -0.274 OA
ENDBRANCH   1   5
BRANCH   1   7
ATOM      7  C   UNL     1       6.098  -4.953  22.680  0.00  0.00    -0.014 C 
ATOM      8  C   UNL     1       7.059  -5.670  21.712  0.00  0.00    +0.012 C 
ATOM      9  C   UNL     1       5.745  -3.575  22.075  0.00  0.00    +0.012 C 
ATOM     10  C   UNL     1       4.788  -5.765  22.760  0.00  0.00    +0.012 C 
ENDBRANCH   1   7
BRANCH   1  11
ATOM     11  N   UNL     1       6.025  -3.706  24.897  0.00  0.00    -0.320 NA
ATOM     12  H   UNL     1       5.123  -4.064  25.213  0.00  0.00    +0.119 HD
ATOM     13  H   UNL     1       6.566  -3.564  25.753  0.00  0.00    +0.119 HD
ENDBRANCH   1  11
TORSDOF 3
ENDMDL
