MODEL 1
REMARK VINA RESULT:      -4.0      0.000      0.000
REMARK  Name = 
REMARK  5 active torsions:
REMARK  status: ('A' for Active; 'I' for Inactive)
REMARK    1  A    between atoms: N_1  and  C_2
REMARK    2  A    between atoms: C_2  and  C_4
REMARK    3  A    between atoms: C_2  and  C_8
REMARK    4  A    between atoms: C_4  and  S_5
REMARK    5  A    between atoms: C_8  and  O_9
REMARK                            x       y       z     vdW  Elec       q    Type
REMARK                         _______ _______ _______ _____ _____    ______ ____
ROOT
ATOM      1  C   UNK     1       8.656  -4.767  25.493  0.00  0.00    +0.184 C 
ENDROOT
BRANCH   1   2
ATOM      2  N   UNK     1       9.839  -5.694  25.302  0.00  0.00    -0.317 NA
ATOM      3  H   UNK     1       9.844  -5.911  24.290  0.00  0.00    +0.119 HD
ATOM      4  H   UNK     1      10.636  -5.027  25.265  0.00  0.00    +0.119 HD
ENDBRANCH   1   2
BRANCH   1   5
ATOM      5  C   UNK     1       7.599  -5.558  26.284  0.00  0.00    +0.323 C 
ATOM      6  O   UNK     1       6.504  -5.922  25.883  0.00  0.00    -0.249 OA
BRANCH   5   7
ATOM      7  O   UNK     1       8.039  -5.804  27.554  0.00  0.00    -0.479 OA
ATOM      8  H   UNK     1       8.277  -6.772  27.520  0.00  0.00    +0.295 HD
ENDBRANCH   5   7
ENDBRANCH   1   5
BRANCH   1   9
ATOM      9  C   UNK     1       8.037  -4.278  24.185  0.00  0.00    +0.222 C 
BRANCH   9  10
ATOM     10  S   UNK     1       8.791  -2.679  23.657  0.00  0.00    +0.089 S 
ATOM     11  O   UNK     1       8.309  -2.590  22.227  0.00  0.00    -0.152 OA
ATOM     12  O   UNK     1      10.260  -2.987  23.814  0.00  0.00    -0.152 OA
ENDBRANCH   9  10
ENDBRANCH   1   9
TORSDOF 5
ENDMDL
MODEL 2
REMARK VINA RESULT:      -3.9      3.935      6.028
REMARK  Name = 
REMARK  5 active torsions:
REMARK  status: ('A' for Active; 'I' for Inactive)
REMARK    1  A    between atoms: N_1  and  C_2
REMARK    2  A    between atoms: C_2  and  C_4
REMARK    3  A    between atoms: C_2  and  C_8
REMARK    4  A    between atoms: C_4  and  S_5
REMARK    5  A    between atoms: C_8  and  O_9
REMARK                            x       y       z     vdW  Elec       q    Type
REMARK                         _______ _______ _______ _____ _____    ______ ____
ROOT
ATOM      1  C   UNK     1       9.031  -0.661  22.024  0.00  0.00    +0.184 C 
ENDROOT
BRANCH   1   2
ATOM      2  N   UNK     1      10.168  -1.509  21.491  0.00  0.00    -0.317 NA
ATOM      3  H   UNK     1      10.947  -0.844  21.344  0.00  0.00    +0.119 HD
ATOM      4  H   UNK     1      10.555  -1.927  22.360  0.00  0.00    +0.119 HD
ENDBRANCH   1   2
BRANCH   1   5
ATOM      5  C   UNK     1       9.458   0.808  21.857  0.00  0.00    +0.323 C 
ATOM      6  O   UNK     1      10.313   1.400  22.498  0.00  0.00    -0.249 OA
BRANCH   5   7
ATOM      7  O   UNK     1       8.727   1.408  20.871  0.00  0.00    -0.479 OA
ATOM      8  H   UNK     1       8.164   0.658  20.528  0.00  0.00    +0.295 HD
ENDBRANCH   5   7
ENDBRANCH   1   5
BRANCH   1   9
ATOM      9  C   UNK     1       8.704  -0.921  23.494  0.00  0.00    +0.222 C 
BRANCH   9  10
ATOM     10  S   UNK     1       8.641  -2.731  23.844  0.00  0.00    +0.089 S 
ATOM     11  O   UNK     1      10.114  -3.057  23.947  0.00  0.00    -0.152 OA
ATOM     12  O   UNK     1       7.963  -3.244  22.597  0.00  0.00    -0.152 OA
ENDBRANCH   9  10
ENDBRANCH   1   9
TORSDOF 5
ENDMDL
MODEL 3
REMARK VINA RESULT:      -3.8      3.997      4.947
REMARK  Name = 
REMARK  5 active torsions:
REMARK  status: ('A' for Active; 'I' for Inactive)
REMARK    1  A    between atoms: N_1  and  C_2
REMARK    2  A    between atoms: C_2  and  C_4
REMARK    3  A    between atoms: C_2  and  C_8
REMARK    4  A    between atoms: C_4  and  S_5
REMARK    5  A    between atoms: C_8  and  O_9
REMARK                            x       y       z     vdW  Elec       q    Type
REMARK                         _______ _______ _______ _____ _____    ______ ____
ROOT
ATOM      1  C   UNK     1      10.493  -1.433  22.778  0.00  0.00    +0.184 C 
ENDROOT
BRANCH   1   2
ATOM      2  N   UNK     1       9.908  -1.544  21.384  0.00  0.00    -0.317 NA
ATOM      3  H   UNK     1      10.574  -1.036  20.777  0.00  0.00    +0.119 HD
ATOM      4  H   UNK     1      10.212  -2.495  21.094  0.00  0.00    +0.119 HD
ENDBRANCH   1   2
BRANCH   1   5
ATOM      5  C   UNK     1       9.638  -2.333  23.688  0.00  0.00    +0.323 C 
ATOM      6  O   UNK     1       9.949  -3.425  24.141  0.00  0.00    -0.249 OA
BRANCH   5   7
ATOM      7  O   UNK     1       8.427  -1.751  23.932  0.00  0.00    -0.479 OA
ATOM      8  H   UNK     1       7.782  -2.451  23.630  0.00  0.00    +0.295 HD
ENDBRANCH   5   7
ENDBRANCH   1   5
BRANCH   1   9
ATOM      9  C   UNK     1      10.490  -0.012  23.337  0.00  0.00    +0.222 C 
BRANCH   9  10
ATOM     10  S   UNK     1       9.758   1.171  22.126  0.00  0.00    +0.089 S 
ATOM     11  O   UNK     1      10.180   2.494  22.722  0.00  0.00    -0.152 OA
ATOM     12  O   UNK     1       8.289   0.853  22.263  0.00  0.00    -0.152 OA
ENDBRANCH   9  10
ENDBRANCH   1   9
TORSDOF 5
ENDMDL
MODEL 4
REMARK VINA RESULT:      -3.7      1.679      1.999
REMARK  Name = 
REMARK  5 active torsions:
REMARK  status: ('A' for Active; 'I' for Inactive)
REMARK    1  A    between atoms: N_1  and  C_2
REMARK    2  A    between atoms: C_2  and  C_4
REMARK    3  A    between atoms: C_2  and  C_8
REMARK    4  A    between atoms: C_4  and  S_5
REMARK    5  A    between atoms: C_8  and  O_9
REMARK                            x       y       z     vdW  Elec       q    Type
REMARK                         _______ _______ _______ _____ _____    ______ ____
ROOT
ATOM      1  C   UNK     1       9.422  -4.487  25.614  0.00  0.00    +0.184 C 
ENDROOT
BRANCH   1   2
ATOM      2  N   UNK     1       9.907  -5.881  25.271  0.00  0.00    -0.317 NA
ATOM      3  H   UNK     1       9.640  -6.461  26.085  0.00  0.00    +0.119 HD
ATOM      4  H   UNK     1       9.150  -6.228  24.648  0.00  0.00    +0.119 HD
ENDBRANCH   1   2
BRANCH   1   5
ATOM      5  C   UNK     1       8.199  -4.658  26.533  0.00  0.00    +0.323 C 
ATOM      6  O   UNK     1       7.435  -3.782  26.907  0.00  0.00    -0.249 OA
BRANCH   5   7
ATOM      7  O   UNK     1       8.070  -5.963  26.915  0.00  0.00    -0.479 OA
ATOM      8  H   UNK     1       7.435  -5.905  27.683  0.00  0.00    +0.295 HD
ENDBRANCH   5   7
ENDBRANCH   1   5
BRANCH   1   9
ATOM      9  C   UNK     1       9.018  -3.657  24.396  0.00  0.00    +0.222 C 
BRANCH   9  10
ATOM     10  S   UNK     1       7.585  -4.423  23.524  0.00  0.00    +0.089 S 
ATOM     11  O   UNK     1       8.193  -5.726  23.057  0.00  0.00    -0.152 OA
ATOM     12  O   UNK     1       7.336  -3.412  22.432  0.00  0.00    -0.152 OA
ENDBRANCH   9  10
ENDBRANCH   1   9
TORSDOF 5
ENDMDL
MODEL 5
REMARK VINA RESULT:      -3.7      1.914      2.138
REMARK  Name = 
REMARK  5 active torsions:
REMARK  status: ('A' for Active; 'I' for Inactive)
REMARK    1  A    between atoms: N_1  and  C_2
REMARK    2  A    between atoms: C_2  and  C_4
REMARK    3  A    between atoms: C_2  and  C_8
REMARK    4  A    between atoms: C_4  and  S_5
REMARK    5  A    between atoms: C_8  and  O_9
REMARK                            x       y       z     vdW  Elec       q    Type
REMARK                         _______ _______ _______ _____ _____    ______ ____
ROOT
ATOM      1  C   UNK     1       8.090  -4.784  25.036  0.00  0.00    +0.184 C 
ENDROOT
BRANCH   1   2
ATOM      2  N   UNK     1       9.278  -5.440  24.362  0.00  0.00    -0.317 NA
ATOM      3  H   UNK     1       9.354  -4.969  23.444  0.00  0.00    +0.119 HD
ATOM      4  H   UNK     1      10.079  -4.940  24.798  0.00  0.00    +0.119 HD
ENDBRANCH   1   2
BRANCH   1   5
ATOM      5  C   UNK     1       8.094  -5.260  26.500  0.00  0.00    +0.323 C 
ATOM      6  O   UNK     1       7.212  -5.882  27.072  0.00  0.00    -0.249 OA
BRANCH   5   7
ATOM      7  O   UNK     1       9.248  -4.875  27.123  0.00  0.00    -0.479 OA
ATOM      8  H   UNK     1       9.376  -5.588  27.809  0.00  0.00    +0.295 HD
ENDBRANCH   5   7
ENDBRANCH   1   5
BRANCH   1   9
ATOM      9  C   UNK     1       6.747  -5.140  24.401  0.00  0.00    +0.222 C 
BRANCH   9  10
ATOM     10  S   UNK     1       6.781  -4.845  22.581  0.00  0.00    +0.089 S 
ATOM     11  O   UNK     1       7.391  -6.138  22.090  0.00  0.00    -0.152 OA
ATOM     12  O   UNK     1       7.690  -3.643  22.499  0.00  0.00    -0.152 OA
ENDBRANCH   9  10
ENDBRANCH   1   9
TORSDOF 5
ENDMDL
MODEL 6
REMARK VINA RESULT:      -3.7      4.893      6.635
REMARK  Name = 
REMARK  5 active torsions:
REMARK  status: ('A' for Active; 'I' for Inactive)
REMARK    1  A    between atoms: N_1  and  C_2
REMARK    2  A    between atoms: C_2  and  C_4
REMARK    3  A    between atoms: C_2  and  C_8
REMARK    4  A    between atoms: C_4  and  S_5
REMARK    5  A    between atoms: C_8  and  O_9
REMARK                            x       y       z     vdW  Elec       q    Type
REMARK                         _______ _______ _______ _____ _____    ______ ____
ROOT
ATOM      1  C   UNK     1      10.325   0.752  23.509  0.00  0.00    +0.184 C 
ENDROOT
BRANCH   1   2
ATOM      2  N   UNK     1      10.500   0.804  25.013  0.00  0.00    -0.317 NA
ATOM      3  H   UNK     1      11.491   1.063  25.155  0.00  0.00    +0.119 HD
ATOM      4  H   UNK     1      10.116   1.742  25.246  0.00  0.00    +0.119 HD
ENDBRANCH   1   2
BRANCH   1   5
ATOM      5  C   UNK     1      10.224   2.210  23.025  0.00  0.00    +0.323 C 
ATOM      6  O   UNK     1      10.135   3.209  23.723  0.00  0.00    -0.249 OA
BRANCH   5   7
ATOM      7  O   UNK     1      10.229   2.261  21.660  0.00  0.00    -0.479 OA
ATOM      8  H   UNK     1      11.012   1.689  21.422  0.00  0.00    +0.295 HD
ENDBRANCH   5   7
ENDBRANCH   1   5
BRANCH   1   9
ATOM      9  C   UNK     1       9.080  -0.010  23.058  0.00  0.00    +0.222 C 
BRANCH   9  10
ATOM     10  S   UNK     1       9.391  -1.828  23.043  0.00  0.00    +0.089 S 
ATOM     11  O   UNK     1       9.494  -2.116  24.523  0.00  0.00    -0.152 OA
ATOM     12  O   UNK     1      10.698  -1.892  22.292  0.00  0.00    -0.152 OA
ENDBRANCH   9  10
ENDBRANCH   1   9
TORSDOF 5
ENDMDL
MODEL 7
REMARK VINA RESULT:      -3.7      4.307      5.233
REMARK  Name = 
REMARK  5 active torsions:
REMARK  status: ('A' for Active; 'I' for Inactive)
REMARK    1  A    between atoms: N_1  and  C_2
REMARK    2  A    between atoms: C_2  and  C_4
REMARK    3  A    between atoms: C_2  and  C_8
REMARK    4  A    between atoms: C_4  and  S_5
REMARK    5  A    between atoms: C_8  and  O_9
REMARK                            x       y       z     vdW  Elec       q    Type
REMARK                         _______ _______ _______ _____ _____    ______ ____
ROOT
ATOM      1  C   UNK     1       9.257  -0.773  23.868  0.00  0.00    +0.184 C 
ENDROOT
BRANCH   1   2
ATOM      2  N   UNK     1      10.306   0.196  24.375  0.00  0.00    -0.317 NA
ATOM      3  H   UNK     1       9.799   0.812  25.035  0.00  0.00    +0.119 HD
ATOM      4  H   UNK     1      10.784  -0.364  25.109  0.00  0.00    +0.119 HD
ENDBRANCH   1   2
BRANCH   1   5
ATOM      5  C   UNK     1      10.015  -1.964  23.255  0.00  0.00    +0.323 C 
ATOM      6  O   UNK     1      10.256  -3.034  23.792  0.00  0.00    -0.249 OA
BRANCH   5   7
ATOM      7  O   UNK     1      10.422  -1.667  21.986  0.00  0.00    -0.479 OA
ATOM      8  H   UNK     1       9.619  -1.223  21.595  0.00  0.00    +0.295 HD
ENDBRANCH   5   7
ENDBRANCH   1   5
BRANCH   1   9
ATOM      9  C   UNK     1       8.327  -0.178  22.812  0.00  0.00    +0.222 C 
BRANCH   9  10
ATOM     10  S   UNK     1       8.799   1.563  22.425  0.00  0.00    +0.089 S 
ATOM     11  O   UNK     1       7.672   1.969  21.502  0.00  0.00    -0.152 OA
ATOM     12  O   UNK     1      10.131   1.357  21.747  0.00  0.00    -0.152 OA
ENDBRANCH   9  10
ENDBRANCH   1   9
TORSDOF 5
ENDMDL
MODEL 8
REMARK VINA RESULT:      -3.4      2.321      3.089
REMARK  Name = 
REMARK  5 active torsions:
REMARK  status: ('A' for Active; 'I' for Inactive)
REMARK    1  A    between atoms: N_1  and  C_2
REMARK    2  A    between atoms: C_2  and  C_4
REMARK    3  A    between atoms: C_2  and  C_8
REMARK    4  A    between atoms: C_4  and  S_5
REMARK    5  A    between atoms: C_8  and  O_9
REMARK                            x       y       z     vdW  Elec       q    Type
REMARK                         _______ _______ _______ _____ _____    ______ ____
ROOT
ATOM      1  C   UNK     1       8.001  -5.249  25.672  0.00  0.00    +0.184 C 
ENDROOT
BRANCH   1   2
ATOM      2  N   UNK     1       8.106  -5.568  27.149  0.00  0.00    -0.317 NA
ATOM      3  H   UNK     1       9.122  -5.563  27.349  0.00  0.00    +0.119 HD
ATOM      4  H   UNK     1       7.913  -4.644  27.587  0.00  0.00    +0.119 HD
ENDBRANCH   1   2
BRANCH   1   5
ATOM      5  C   UNK     1       9.417  -4.877  25.198  0.00  0.00    +0.323 C 
ATOM      6  O   UNK     1       9.725  -3.950  24.463  0.00  0.00    -0.249 OA
BRANCH   5   7
ATOM      7  O   UNK     1      10.334  -5.753  25.704  0.00  0.00    -0.479 OA
ATOM      8  H   UNK     1       9.773  -6.540  25.952  0.00  0.00    +0.295 HD
ENDBRANCH   5   7
ENDBRANCH   1   5
BRANCH   1   9
ATOM      9  C   UNK     1       7.050  -4.095  25.356  0.00  0.00    +0.222 C 
BRANCH   9  10
ATOM     10  S   UNK     1       5.954  -4.515  23.933  0.00  0.00    +0.089 S 
ATOM     11  O   UNK     1       6.862  -4.201  22.766  0.00  0.00    -0.152 OA
ATOM     12  O   UNK     1       4.824  -3.537  24.139  0.00  0.00    -0.152 OA
ENDBRANCH   9  10
ENDBRANCH   1   9
TORSDOF 5
ENDMDL
MODEL 9
REMARK VINA RESULT:      -3.4      5.833      6.701
REMARK  Name = 
REMARK  5 active torsions:
REMARK  status: ('A' for Active; 'I' for Inactive)
REMARK    1  A    between atoms: N_1  and  C_2
REMARK    2  A    between atoms: C_2  and  C_4
REMARK    3  A    between atoms: C_2  and  C_8
REMARK    4  A    between atoms: C_4  and  S_5
REMARK    5  A    between atoms: C_8  and  O_9
REMARK                            x       y       z     vdW  Elec       q    Type
REMARK                         _______ _______ _______ _____ _____    ______ ____
ROOT
ATOM      1  C   UNK     1      10.101   0.921  22.745  0.00  0.00    +0.184 C 
ENDROOT
BRANCH   1   2
ATOM      2  N   UNK     1      10.014   1.922  21.609  0.00  0.00    -0.317 NA
ATOM      3  H   UNK     1       9.548   2.749  22.021  0.00  0.00    +0.119 HD
ATOM      4  H   UNK     1      10.969   2.334  21.608  0.00  0.00    +0.119 HD
ENDBRANCH   1   2
BRANCH   1   5
ATOM      5  C   UNK     1      10.033  -0.478  22.106  0.00  0.00    +0.323 C 
ATOM      6  O   UNK     1      10.486  -1.515  22.564  0.00  0.00    -0.249 OA
BRANCH   5   7
ATOM      7  O   UNK     1       9.389  -0.422  20.903  0.00  0.00    -0.479 OA
ATOM      8  H   UNK     1       9.303   0.560  20.745  0.00  0.00    +0.295 HD
ENDBRANCH   5   7
ENDBRANCH   1   5
BRANCH   1   9
ATOM      9  C   UNK     1       8.978   1.056  23.772  0.00  0.00    +0.222 C 
BRANCH   9  10
ATOM     10  S   UNK     1       7.681   2.226  23.181  0.00  0.00    +0.089 S 
ATOM     11  O   UNK     1       7.347   1.631  21.833  0.00  0.00    -0.152 OA
ATOM     12  O   UNK     1       8.460   3.518  23.129  0.00  0.00    -0.152 OA
ENDBRANCH   9  10
ENDBRANCH   1   9
TORSDOF 5
ENDMDL
