MODEL 1
REMARK VINA RESULT:      -8.0      0.000      0.000
REMARK  Name = 
REMARK  7 active torsions:
REMARK  status: ('A' for Active; 'I' for Inactive)
REMARK    1  A    between atoms: O_1  and  C_2
REMARK    2  A    between atoms: C_2  and  C_4
REMARK    3  A    between atoms: C_5  and  C_9
REMARK    4  A    between atoms: N_11  and  C_12
REMARK    5  A    between atoms: C_16  and  C_20
REMARK    6  A    between atoms: C_22  and  O_23
REMARK    7  A    between atoms: O_23  and  C_24
REMARK                            x       y       z     vdW  Elec       q    Type
REMARK                         _______ _______ _______ _____ _____    ______ ____
ROOT
ATOM      1  C   UNL     1       8.692  -0.395  23.120  0.00  0.00    +0.105 A 
ATOM      2  C   UNL     1       8.639   0.193  24.382  0.00  0.00    +0.148 A 
ATOM      3  F   UNL     1       8.222  -0.508  25.448  0.00  0.00    -0.203 F 
ATOM      4  C   UNL     1       8.906   1.556  24.554  0.00  0.00    +0.049 A 
ATOM      5  C   UNL     1       9.279   2.364  23.466  0.00  0.00    -0.012 A 
ATOM      6  C   UNL     1       9.351   1.745  22.203  0.00  0.00    +0.049 A 
ATOM      7  C   UNL     1       9.022   0.405  22.034  0.00  0.00    +0.148 A 
ATOM      8  F   UNL     1       9.092  -0.130  20.806  0.00  0.00    -0.203 F 
ENDROOT
BRANCH   5   9
ATOM      9  C   UNL     1       9.609   3.799  23.612  0.00  0.00    -0.014 A 
ATOM     10  C   UNL     1       8.656   4.757  23.999  0.00  0.00    +0.009 A 
ATOM     11  C   UNL     1       9.020   6.088  24.225  0.00  0.00    +0.004 A 
ATOM     12  C   UNL     1      10.353   6.481  24.112  0.00  0.00    +0.046 A 
ATOM     13  C   UNL     1      11.323   5.554  23.742  0.00  0.00    +0.131 A 
ATOM     14  C   UNL     1      10.931   4.253  23.421  0.00  0.00    +0.054 A 
BRANCH  13  15
ATOM     15  O   UNL     1      12.597   6.026  23.663  0.00  0.00    -0.406 OA
BRANCH  15  16
ATOM     16  C   UNL     1      13.387   5.671  22.531  0.00  0.00    +0.575 C 
ATOM     17  F   UNL     1      14.306   4.753  22.909  0.00  0.00    -0.133 F 
ATOM     18  F   UNL     1      14.046   6.767  22.093  0.00  0.00    -0.133 F 
ATOM     19  F   UNL     1      12.692   5.151  21.495  0.00  0.00    -0.133 F 
ENDBRANCH  15  16
ENDBRANCH  13  15
ENDBRANCH   5   9
BRANCH   1  21
ATOM     20  C   UNL     1       7.086  -2.242  22.914  0.00  0.00    +0.250 C 
ATOM     21  N   UNL     1       8.362  -1.740  22.874  0.00  0.00    -0.277 N 
ATOM     22  H   UNL     1       9.139  -2.392  22.845  0.00  0.00    +0.155 HD
ATOM     23  O   UNL     1       6.117  -1.633  23.354  0.00  0.00    -0.270 OA
BRANCH  20  28
ATOM     24  C   UNL     1       7.532  -4.743  23.191  0.00  0.00    +0.108 A 
ATOM     25  S   UNL     1       7.226  -6.219  22.362  0.00  0.00    -0.090 S 
ATOM     26  C   UNL     1       6.338  -5.440  21.138  0.00  0.00    +0.047 A 
ATOM     27  C   UNL     1       6.286  -4.080  21.335  0.00  0.00    +0.021 A 
ATOM     28  C   UNL     1       6.968  -3.655  22.533  0.00  0.00    +0.058 A 
BRANCH  24  29
ATOM     29  C   UNL     1       8.297  -4.782  24.426  0.00  0.00    +0.344 C 
ATOM     30  O   UNL     1       7.911  -5.240  25.492  0.00  0.00    -0.245 OA
BRANCH  29  31
ATOM     31  O   UNL     1       9.536  -4.240  24.291  0.00  0.00    -0.477 OA
ATOM     32  H   UNL     1       9.775  -4.104  23.353  0.00  0.00    +0.295 HD
ENDBRANCH  29  31
ENDBRANCH  24  29
ENDBRANCH  20  28
ENDBRANCH   1  21
TORSDOF 7
ENDMDL
MODEL 2
REMARK VINA RESULT:      -7.5      3.851      9.740
REMARK  Name = 
REMARK  7 active torsions:
REMARK  status: ('A' for Active; 'I' for Inactive)
REMARK    1  A    between atoms: O_1  and  C_2
REMARK    2  A    between atoms: C_2  and  C_4
REMARK    3  A    between atoms: C_5  and  C_9
REMARK    4  A    between atoms: N_11  and  C_12
REMARK    5  A    between atoms: C_16  and  C_20
REMARK    6  A    between atoms: C_22  and  O_23
REMARK    7  A    between atoms: O_23  and  C_24
REMARK                            x       y       z     vdW  Elec       q    Type
REMARK                         _______ _______ _______ _____ _____    ______ ____
ROOT
ATOM      1  C   UNL     1       8.447   0.305  23.045  0.00  0.00    +0.105 A 
ATOM      2  C   UNL     1       9.047  -0.644  22.219  0.00  0.00    +0.148 A 
ATOM      3  F   UNL     1      10.102  -0.319  21.457  0.00  0.00    -0.203 F 
ATOM      4  C   UNL     1       8.497  -1.923  22.074  0.00  0.00    +0.049 A 
ATOM      5  C   UNL     1       7.350  -2.304  22.790  0.00  0.00    -0.012 A 
ATOM      6  C   UNL     1       6.773  -1.339  23.638  0.00  0.00    +0.049 A 
ATOM      7  C   UNL     1       7.291  -0.052  23.726  0.00  0.00    +0.148 A 
ATOM      8  F   UNL     1       6.692   0.834  24.536  0.00  0.00    -0.203 F 
ENDROOT
BRANCH   5   9
ATOM      9  C   UNL     1       6.762  -3.659  22.696  0.00  0.00    -0.014 A 
ATOM     10  C   UNL     1       7.007  -4.514  21.607  0.00  0.00    +0.009 A 
ATOM     11  C   UNL     1       6.519  -5.825  21.594  0.00  0.00    +0.004 A 
ATOM     12  C   UNL     1       5.814  -6.323  22.688  0.00  0.00    +0.046 A 
ATOM     13  C   UNL     1       5.565  -5.505  23.788  0.00  0.00    +0.131 A 
ATOM     14  C   UNL     1       5.969  -4.170  23.745  0.00  0.00    +0.054 A 
BRANCH  13  15
ATOM     15  O   UNL     1       4.876  -6.079  24.811  0.00  0.00    -0.406 OA
BRANCH  15  16
ATOM     16  C   UNL     1       5.445  -6.049  26.118  0.00  0.00    +0.575 C 
ATOM     17  F   UNL     1       5.059  -7.157  26.789  0.00  0.00    -0.133 F 
ATOM     18  F   UNL     1       4.968  -4.971  26.780  0.00  0.00    -0.133 F 
ATOM     19  F   UNL     1       6.795  -6.002  26.147  0.00  0.00    -0.133 F 
ENDBRANCH  15  16
ENDBRANCH  13  15
ENDBRANCH   5   9
BRANCH   1  21
ATOM     20  C   UNL     1      10.013   1.992  23.901  0.00  0.00    +0.250 C 
ATOM     21  N   UNL     1       8.909   1.627  23.173  0.00  0.00    -0.277 N 
ATOM     22  H   UNL     1       8.277   2.354  22.853  0.00  0.00    +0.155 HD
ATOM     23  O   UNL     1      10.608   1.251  24.675  0.00  0.00    -0.270 OA
BRANCH  20  28
ATOM     24  C   UNL     1       9.540   4.493  24.135  0.00  0.00    +0.108 A 
ATOM     25  S   UNL     1      10.307   5.998  23.809  0.00  0.00    -0.090 S 
ATOM     26  C   UNL     1      11.730   5.246  23.260  0.00  0.00    +0.047 A 
ATOM     27  C   UNL     1      11.627   3.875  23.300  0.00  0.00    +0.021 A 
ATOM     28  C   UNL     1      10.362   3.416  23.818  0.00  0.00    +0.058 A 
BRANCH  24  29
ATOM     29  C   UNL     1       8.195   4.499  24.685  0.00  0.00    +0.344 C 
ATOM     30  O   UNL     1       7.182   4.150  24.098  0.00  0.00    -0.245 OA
BRANCH  29  31
ATOM     31  O   UNL     1       8.156   4.948  25.967  0.00  0.00    -0.477 OA
ATOM     32  H   UNL     1       7.466   4.497  26.491  0.00  0.00    +0.295 HD
ENDBRANCH  29  31
ENDBRANCH  24  29
ENDBRANCH  20  28
ENDBRANCH   1  21
TORSDOF 7
ENDMDL
MODEL 3
REMARK VINA RESULT:      -7.3      3.029      4.031
REMARK  Name = 
REMARK  7 active torsions:
REMARK  status: ('A' for Active; 'I' for Inactive)
REMARK    1  A    between atoms: O_1  and  C_2
REMARK    2  A    between atoms: C_2  and  C_4
REMARK    3  A    between atoms: C_5  and  C_9
REMARK    4  A    between atoms: N_11  and  C_12
REMARK    5  A    between atoms: C_16  and  C_20
REMARK    6  A    between atoms: C_22  and  O_23
REMARK    7  A    between atoms: O_23  and  C_24
REMARK                            x       y       z     vdW  Elec       q    Type
REMARK                         _______ _______ _______ _____ _____    ______ ____
ROOT
ATOM      1  C   UNL     1       7.323  -1.727  24.964  0.00  0.00    +0.105 A 
ATOM      2  C   UNL     1       8.309  -1.262  25.834  0.00  0.00    +0.148 A 
ATOM      3  F   UNL     1       8.579  -1.916  26.974  0.00  0.00    -0.203 F 
ATOM      4  C   UNL     1       8.959  -0.045  25.602  0.00  0.00    +0.049 A 
ATOM      5  C   UNL     1       8.670   0.725  24.462  0.00  0.00    -0.012 A 
ATOM      6  C   UNL     1       7.689   0.226  23.583  0.00  0.00    +0.049 A 
ATOM      7  C   UNL     1       7.005  -0.953  23.856  0.00  0.00    +0.148 A 
ATOM      8  F   UNL     1       6.068  -1.374  22.993  0.00  0.00    -0.203 F 
ENDROOT
BRANCH   5   9
ATOM      9  C   UNL     1       9.364   1.997  24.159  0.00  0.00    -0.014 A 
ATOM     10  C   UNL     1      10.704   2.043  23.735  0.00  0.00    +0.009 A 
ATOM     11  C   UNL     1      11.301   3.250  23.360  0.00  0.00    +0.004 A 
ATOM     12  C   UNL     1      10.559   4.431  23.358  0.00  0.00    +0.046 A 
ATOM     13  C   UNL     1       9.226   4.416  23.761  0.00  0.00    +0.131 A 
ATOM     14  C   UNL     1       8.672   3.224  24.229  0.00  0.00    +0.054 A 
BRANCH  13  15
ATOM     15  O   UNL     1       8.581   5.613  23.720  0.00  0.00    -0.406 OA
BRANCH  15  16
ATOM     16  C   UNL     1       7.531   5.789  22.771  0.00  0.00    +0.575 C 
ATOM     17  F   UNL     1       6.344   5.725  23.416  0.00  0.00    -0.133 F 
ATOM     18  F   UNL     1       7.575   4.779  21.874  0.00  0.00    -0.133 F 
ATOM     19  F   UNL     1       7.568   6.960  22.097  0.00  0.00    -0.133 F 
ENDBRANCH  15  16
ENDBRANCH  13  15
ENDBRANCH   5   9
BRANCH   1  21
ATOM     20  C   UNL     1       6.960  -4.146  24.740  0.00  0.00    +0.250 C 
ATOM     21  N   UNL     1       6.584  -2.903  25.184  0.00  0.00    -0.277 N 
ATOM     22  H   UNL     1       5.639  -2.778  25.533  0.00  0.00    +0.155 HD
ATOM     23  O   UNL     1       7.870  -4.350  23.943  0.00  0.00    -0.270 OA
BRANCH  20  28
ATOM     24  C   UNL     1       5.095  -5.860  24.403  0.00  0.00    +0.108 A 
ATOM     25  S   UNL     1       4.233  -7.040  25.311  0.00  0.00    -0.090 S 
ATOM     26  C   UNL     1       5.160  -6.758  26.709  0.00  0.00    +0.047 A 
ATOM     27  C   UNL     1       6.096  -5.772  26.506  0.00  0.00    +0.021 A 
ATOM     28  C   UNL     1       6.082  -5.243  25.165  0.00  0.00    +0.058 A 
BRANCH  24  29
ATOM     29  C   UNL     1       4.731  -5.647  23.013  0.00  0.00    +0.344 C 
ATOM     30  O   UNL     1       3.858  -4.892  22.610  0.00  0.00    -0.245 OA
BRANCH  29  31
ATOM     31  O   UNL     1       5.478  -6.392  22.157  0.00  0.00    -0.477 OA
ATOM     32  H   UNL     1       6.057  -5.836  21.597  0.00  0.00    +0.295 HD
ENDBRANCH  29  31
ENDBRANCH  24  29
ENDBRANCH  20  28
ENDBRANCH   1  21
TORSDOF 7
ENDMDL
MODEL 4
REMARK VINA RESULT:      -7.2      4.047      9.441
REMARK  Name = 
REMARK  7 active torsions:
REMARK  status: ('A' for Active; 'I' for Inactive)
REMARK    1  A    between atoms: O_1  and  C_2
REMARK    2  A    between atoms: C_2  and  C_4
REMARK    3  A    between atoms: C_5  and  C_9
REMARK    4  A    between atoms: N_11  and  C_12
REMARK    5  A    between atoms: C_16  and  C_20
REMARK    6  A    between atoms: C_22  and  O_23
REMARK    7  A    between atoms: O_23  and  C_24
REMARK                            x       y       z     vdW  Elec       q    Type
REMARK                         _______ _______ _______ _____ _____    ______ ____
ROOT
ATOM      1  C   UNL     1       8.772   0.592  24.585  0.00  0.00    +0.105 A 
ATOM      2  C   UNL     1       7.393   0.426  24.475  0.00  0.00    +0.148 A 
ATOM      3  F   UNL     1       6.580   1.490  24.391  0.00  0.00    -0.203 F 
ATOM      4  C   UNL     1       6.810  -0.843  24.566  0.00  0.00    +0.049 A 
ATOM      5  C   UNL     1       7.601  -1.993  24.726  0.00  0.00    -0.012 A 
ATOM      6  C   UNL     1       8.995  -1.807  24.810  0.00  0.00    +0.049 A 
ATOM      7  C   UNL     1       9.557  -0.536  24.782  0.00  0.00    +0.148 A 
ATOM      8  F   UNL     1      10.890  -0.414  24.883  0.00  0.00    -0.203 F 
ENDROOT
BRANCH   5   9
ATOM      9  C   UNL     1       7.028  -3.357  24.785  0.00  0.00    -0.014 A 
ATOM     10  C   UNL     1       6.696  -3.983  25.999  0.00  0.00    +0.009 A 
ATOM     11  C   UNL     1       6.063  -5.230  26.019  0.00  0.00    +0.004 A 
ATOM     12  C   UNL     1       5.709  -5.857  24.825  0.00  0.00    +0.046 A 
ATOM     13  C   UNL     1       6.013  -5.257  23.606  0.00  0.00    +0.131 A 
ATOM     14  C   UNL     1       6.734  -4.062  23.599  0.00  0.00    +0.054 A 
BRANCH  13  15
ATOM     15  O   UNL     1       5.623  -5.939  22.495  0.00  0.00    -0.406 OA
BRANCH  15  16
ATOM     16  C   UNL     1       6.238  -5.620  21.249  0.00  0.00    +0.575 C 
ATOM     17  F   UNL     1       5.701  -6.400  20.284  0.00  0.00    -0.133 F 
ATOM     18  F   UNL     1       7.559  -5.900  21.326  0.00  0.00    -0.133 F 
ATOM     19  F   UNL     1       6.099  -4.333  20.861  0.00  0.00    -0.133 F 
ENDBRANCH  15  16
ENDBRANCH  13  15
ENDBRANCH   5   9
BRANCH   1  21
ATOM     20  C   UNL     1       9.835   2.489  23.441  0.00  0.00    +0.250 C 
ATOM     21  N   UNL     1       9.408   1.847  24.576  0.00  0.00    -0.277 N 
ATOM     22  H   UNL     1       9.719   2.196  25.477  0.00  0.00    +0.155 HD
ATOM     23  O   UNL     1       9.891   1.969  22.332  0.00  0.00    -0.270 OA
BRANCH  20  28
ATOM     24  C   UNL     1       9.700   4.944  24.137  0.00  0.00    +0.108 A 
ATOM     25  S   UNL     1      10.699   6.345  24.164  0.00  0.00    -0.090 S 
ATOM     26  C   UNL     1      12.045   5.496  23.567  0.00  0.00    +0.047 A 
ATOM     27  C   UNL     1      11.747   4.175  23.328  0.00  0.00    +0.021 A 
ATOM     28  C   UNL     1      10.388   3.831  23.664  0.00  0.00    +0.058 A 
BRANCH  24  29
ATOM     29  C   UNL     1       8.325   5.058  24.591  0.00  0.00    +0.344 C 
ATOM     30  O   UNL     1       7.417   5.612  23.990  0.00  0.00    -0.245 OA
BRANCH  29  31
ATOM     31  O   UNL     1       8.123   4.469  25.800  0.00  0.00    -0.477 OA
ATOM     32  H   UNL     1       8.779   4.762  26.463  0.00  0.00    +0.295 HD
ENDBRANCH  29  31
ENDBRANCH  24  29
ENDBRANCH  20  28
ENDBRANCH   1  21
TORSDOF 7
ENDMDL
MODEL 5
REMARK VINA RESULT:      -7.2      4.002      9.965
REMARK  Name = 
REMARK  7 active torsions:
REMARK  status: ('A' for Active; 'I' for Inactive)
REMARK    1  A    between atoms: O_1  and  C_2
REMARK    2  A    between atoms: C_2  and  C_4
REMARK    3  A    between atoms: C_5  and  C_9
REMARK    4  A    between atoms: N_11  and  C_12
REMARK    5  A    between atoms: C_16  and  C_20
REMARK    6  A    between atoms: C_22  and  O_23
REMARK    7  A    between atoms: O_23  and  C_24
REMARK                            x       y       z     vdW  Elec       q    Type
REMARK                         _______ _______ _______ _____ _____    ______ ____
ROOT
ATOM      1  C   UNL     1       8.168   0.577  23.469  0.00  0.00    +0.105 A 
ATOM      2  C   UNL     1       8.966  -0.318  22.756  0.00  0.00    +0.148 A 
ATOM      3  F   UNL     1      10.155   0.065  22.267  0.00  0.00    -0.203 F 
ATOM      4  C   UNL     1       8.500  -1.597  22.432  0.00  0.00    +0.049 A 
ATOM      5  C   UNL     1       7.233  -2.035  22.853  0.00  0.00    -0.012 A 
ATOM      6  C   UNL     1       6.453  -1.125  23.593  0.00  0.00    +0.049 A 
ATOM      7  C   UNL     1       6.900   0.165  23.855  0.00  0.00    +0.148 A 
ATOM      8  F   UNL     1       6.109   0.996  24.550  0.00  0.00    -0.203 F 
ENDROOT
BRANCH   5   9
ATOM      9  C   UNL     1       6.720  -3.394  22.566  0.00  0.00    -0.014 A 
ATOM     10  C   UNL     1       7.568  -4.465  22.235  0.00  0.00    +0.009 A 
ATOM     11  C   UNL     1       7.064  -5.759  22.068  0.00  0.00    +0.004 A 
ATOM     12  C   UNL     1       5.709  -6.017  22.272  0.00  0.00    +0.046 A 
ATOM     13  C   UNL     1       4.846  -4.980  22.613  0.00  0.00    +0.131 A 
ATOM     14  C   UNL     1       5.343  -3.678  22.677  0.00  0.00    +0.054 A 
BRANCH  13  15
ATOM     15  O   UNL     1       3.544  -5.328  22.798  0.00  0.00    -0.406 OA
BRANCH  15  16
ATOM     16  C   UNL     1       3.163  -5.907  24.044  0.00  0.00    +0.575 C 
ATOM     17  F   UNL     1       3.089  -7.249  23.898  0.00  0.00    -0.133 F 
ATOM     18  F   UNL     1       1.936  -5.454  24.383  0.00  0.00    -0.133 F 
ATOM     19  F   UNL     1       4.008  -5.653  25.068  0.00  0.00    -0.133 F 
ENDBRANCH  15  16
ENDBRANCH  13  15
ENDBRANCH   5   9
BRANCH   1  21
ATOM     20  C   UNL     1       8.226   2.984  22.985  0.00  0.00    +0.250 C 
ATOM     21  N   UNL     1       8.551   1.898  23.759  0.00  0.00    -0.277 N 
ATOM     22  H   UNL     1       9.254   2.012  24.483  0.00  0.00    +0.155 HD
ATOM     23  O   UNL     1       7.740   2.913  21.862  0.00  0.00    -0.270 OA
BRANCH  20  28
ATOM     24  C   UNL     1       9.963   4.712  23.714  0.00  0.00    +0.108 A 
ATOM     25  S   UNL     1      10.024   6.258  24.467  0.00  0.00    -0.090 S 
ATOM     26  C   UNL     1       8.329   6.375  24.544  0.00  0.00    +0.047 A 
ATOM     27  C   UNL     1       7.718   5.257  24.029  0.00  0.00    +0.021 A 
ATOM     28  C   UNL     1       8.653   4.279  23.531  0.00  0.00    +0.058 A 
BRANCH  24  29
ATOM     29  C   UNL     1      11.212   4.058  23.361  0.00  0.00    +0.344 C 
ATOM     30  O   UNL     1      11.517   2.906  23.633  0.00  0.00    -0.245 OA
BRANCH  29  31
ATOM     31  O   UNL     1      12.051   4.873  22.671  0.00  0.00    -0.477 OA
ATOM     32  H   UNL     1      12.972   4.805  22.992  0.00  0.00    +0.295 HD
ENDBRANCH  29  31
ENDBRANCH  24  29
ENDBRANCH  20  28
ENDBRANCH   1  21
TORSDOF 7
ENDMDL
MODEL 6
REMARK VINA RESULT:      -7.1      2.853      3.580
REMARK  Name = 
REMARK  7 active torsions:
REMARK  status: ('A' for Active; 'I' for Inactive)
REMARK    1  A    between atoms: O_1  and  C_2
REMARK    2  A    between atoms: C_2  and  C_4
REMARK    3  A    between atoms: C_5  and  C_9
REMARK    4  A    between atoms: N_11  and  C_12
REMARK    5  A    between atoms: C_16  and  C_20
REMARK    6  A    between atoms: C_22  and  O_23
REMARK    7  A    between atoms: O_23  and  C_24
REMARK                            x       y       z     vdW  Elec       q    Type
REMARK                         _______ _______ _______ _____ _____    ______ ____
ROOT
ATOM      1  C   UNL     1       7.420  -1.454  24.712  0.00  0.00    +0.105 A 
ATOM      2  C   UNL     1       8.295  -0.970  25.683  0.00  0.00    +0.148 A 
ATOM      3  F   UNL     1       8.428  -1.601  26.860  0.00  0.00    -0.203 F 
ATOM      4  C   UNL     1       8.968   0.244  25.505  0.00  0.00    +0.049 A 
ATOM      5  C   UNL     1       8.817   0.990  24.324  0.00  0.00    -0.012 A 
ATOM      6  C   UNL     1       7.947   0.472  23.345  0.00  0.00    +0.049 A 
ATOM      7  C   UNL     1       7.235  -0.703  23.559  0.00  0.00    +0.148 A 
ATOM      8  F   UNL     1       6.407  -1.142  22.600  0.00  0.00    -0.203 F 
ENDROOT
BRANCH   5   9
ATOM      9  C   UNL     1       9.542   2.257  24.081  0.00  0.00    -0.014 A 
ATOM     10  C   UNL     1      10.916   2.296  23.784  0.00  0.00    +0.009 A 
ATOM     11  C   UNL     1      11.551   3.498  23.460  0.00  0.00    +0.004 A 
ATOM     12  C   UNL     1      10.818   4.681  23.382  0.00  0.00    +0.046 A 
ATOM     13  C   UNL     1       9.453   4.675  23.658  0.00  0.00    +0.131 A 
ATOM     14  C   UNL     1       8.852   3.488  24.078  0.00  0.00    +0.054 A 
BRANCH  13  15
ATOM     15  O   UNL     1       8.820   5.874  23.550  0.00  0.00    -0.406 OA
BRANCH  15  16
ATOM     16  C   UNL     1       7.606   5.939  22.804  0.00  0.00    +0.575 C 
ATOM     17  F   UNL     1       7.592   4.931  21.903  0.00  0.00    -0.133 F 
ATOM     18  F   UNL     1       7.569   7.108  22.126  0.00  0.00    -0.133 F 
ATOM     19  F   UNL     1       6.480   5.842  23.545  0.00  0.00    -0.133 F 
ENDBRANCH  15  16
ENDBRANCH  13  15
ENDBRANCH   5   9
BRANCH   1  21
ATOM     20  C   UNL     1       7.094  -3.881  24.514  0.00  0.00    +0.250 C 
ATOM     21  N   UNL     1       6.659  -2.627  24.865  0.00  0.00    -0.277 N 
ATOM     22  H   UNL     1       5.676  -2.497  25.080  0.00  0.00    +0.155 HD
ATOM     23  O   UNL     1       8.102  -4.103  23.854  0.00  0.00    -0.270 OA
BRANCH  20  28
ATOM     24  C   UNL     1       6.045  -5.604  26.083  0.00  0.00    +0.108 A 
ATOM     25  S   UNL     1       4.904  -6.891  26.025  0.00  0.00    -0.090 S 
ATOM     26  C   UNL     1       4.554  -6.615  24.384  0.00  0.00    +0.047 A 
ATOM     27  C   UNL     1       5.300  -5.579  23.874  0.00  0.00    +0.021 A 
ATOM     28  C   UNL     1       6.168  -4.970  24.850  0.00  0.00    +0.058 A 
BRANCH  24  29
ATOM     29  C   UNL     1       6.717  -5.323  27.339  0.00  0.00    +0.344 C 
ATOM     30  O   UNL     1       6.314  -4.569  28.213  0.00  0.00    -0.245 OA
BRANCH  29  31
ATOM     31  O   UNL     1       7.888  -6.001  27.469  0.00  0.00    -0.477 OA
ATOM     32  H   UNL     1       7.747  -6.967  27.521  0.00  0.00    +0.295 HD
ENDBRANCH  29  31
ENDBRANCH  24  29
ENDBRANCH  20  28
ENDBRANCH   1  21
TORSDOF 7
ENDMDL
MODEL 7
REMARK VINA RESULT:      -7.1      2.158      2.452
REMARK  Name = 
REMARK  7 active torsions:
REMARK  status: ('A' for Active; 'I' for Inactive)
REMARK    1  A    between atoms: O_1  and  C_2
REMARK    2  A    between atoms: C_2  and  C_4
REMARK    3  A    between atoms: C_5  and  C_9
REMARK    4  A    between atoms: N_11  and  C_12
REMARK    5  A    between atoms: C_16  and  C_20
REMARK    6  A    between atoms: C_22  and  O_23
REMARK    7  A    between atoms: O_23  and  C_24
REMARK                            x       y       z     vdW  Elec       q    Type
REMARK                         _______ _______ _______ _____ _____    ______ ____
ROOT
ATOM      1  C   UNL     1       6.934  -0.262  24.849  0.00  0.00    +0.105 A 
ATOM      2  C   UNL     1       6.820   0.521  25.997  0.00  0.00    +0.148 A 
ATOM      3  F   UNL     1       6.158   0.068  27.072  0.00  0.00    -0.203 F 
ATOM      4  C   UNL     1       7.290   1.839  26.018  0.00  0.00    +0.049 A 
ATOM      5  C   UNL     1       7.930   2.399  24.900  0.00  0.00    -0.012 A 
ATOM      6  C   UNL     1       8.056   1.583  23.758  0.00  0.00    +0.049 A 
ATOM      7  C   UNL     1       7.530   0.297  23.727  0.00  0.00    +0.148 A 
ATOM      8  F   UNL     1       7.664  -0.431  22.608  0.00  0.00    -0.203 F 
ENDROOT
BRANCH   5   9
ATOM      9  C   UNL     1       8.476   3.775  24.895  0.00  0.00    -0.014 A 
ATOM     10  C   UNL     1       8.145   4.721  25.881  0.00  0.00    +0.009 A 
ATOM     11  C   UNL     1       8.754   5.979  25.908  0.00  0.00    +0.004 A 
ATOM     12  C   UNL     1       9.740   6.302  24.976  0.00  0.00    +0.046 A 
ATOM     13  C   UNL     1      10.099   5.383  23.995  0.00  0.00    +0.131 A 
ATOM     14  C   UNL     1       9.413   4.170  23.917  0.00  0.00    +0.054 A 
BRANCH  13  15
ATOM     15  O   UNL     1      11.074   5.783  23.134  0.00  0.00    -0.406 OA
BRANCH  15  16
ATOM     16  C   UNL     1      12.425   5.433  23.424  0.00  0.00    +0.575 C 
ATOM     17  F   UNL     1      12.528   4.085  23.469  0.00  0.00    -0.133 F 
ATOM     18  F   UNL     1      12.754   5.919  24.642  0.00  0.00    -0.133 F 
ATOM     19  F   UNL     1      13.331   5.883  22.528  0.00  0.00    -0.133 F 
ENDBRANCH  15  16
ENDBRANCH  13  15
ENDBRANCH   5   9
BRANCH   1  21
ATOM     20  C   UNL     1       6.983  -2.672  25.322  0.00  0.00    +0.250 C 
ATOM     21  N   UNL     1       6.416  -1.565  24.743  0.00  0.00    -0.277 N 
ATOM     22  H   UNL     1       5.686  -1.701  24.050  0.00  0.00    +0.155 HD
ATOM     23  O   UNL     1       8.099  -2.692  25.830  0.00  0.00    -0.270 OA
BRANCH  20  28
ATOM     24  C   UNL     1       6.275  -5.040  25.972  0.00  0.00    +0.108 A 
ATOM     25  S   UNL     1       5.285  -6.313  25.371  0.00  0.00    -0.090 S 
ATOM     26  C   UNL     1       4.766  -5.389  24.041  0.00  0.00    +0.047 A 
ATOM     27  C   UNL     1       5.343  -4.142  24.033  0.00  0.00    +0.021 A 
ATOM     28  C   UNL     1       6.219  -3.915  25.156  0.00  0.00    +0.058 A 
BRANCH  24  29
ATOM     29  C   UNL     1       7.018  -5.255  27.202  0.00  0.00    +0.344 C 
ATOM     30  O   UNL     1       6.591  -5.085  28.334  0.00  0.00    -0.245 OA
BRANCH  29  31
ATOM     31  O   UNL     1       8.289  -5.682  26.977  0.00  0.00    -0.477 OA
ATOM     32  H   UNL     1       8.368  -6.164  26.130  0.00  0.00    +0.295 HD
ENDBRANCH  29  31
ENDBRANCH  24  29
ENDBRANCH  20  28
ENDBRANCH   1  21
TORSDOF 7
ENDMDL
MODEL 8
REMARK VINA RESULT:      -7.1      1.994      2.440
REMARK  Name = 
REMARK  7 active torsions:
REMARK  status: ('A' for Active; 'I' for Inactive)
REMARK    1  A    between atoms: O_1  and  C_2
REMARK    2  A    between atoms: C_2  and  C_4
REMARK    3  A    between atoms: C_5  and  C_9
REMARK    4  A    between atoms: N_11  and  C_12
REMARK    5  A    between atoms: C_16  and  C_20
REMARK    6  A    between atoms: C_22  and  O_23
REMARK    7  A    between atoms: O_23  and  C_24
REMARK                            x       y       z     vdW  Elec       q    Type
REMARK                         _______ _______ _______ _____ _____    ______ ____
ROOT
ATOM      1  C   UNL     1       7.380  -0.545  24.596  0.00  0.00    +0.105 A 
ATOM      2  C   UNL     1       7.617   0.063  25.827  0.00  0.00    +0.148 A 
ATOM      3  F   UNL     1       7.403  -0.603  26.972  0.00  0.00    -0.203 F 
ATOM      4  C   UNL     1       7.971   1.415  25.906  0.00  0.00    +0.049 A 
ATOM      5  C   UNL     1       8.142   2.188  24.746  0.00  0.00    -0.012 A 
ATOM      6  C   UNL     1       7.921   1.549  23.511  0.00  0.00    +0.049 A 
ATOM      7  C   UNL     1       7.508   0.223  23.447  0.00  0.00    +0.148 A 
ATOM      8  F   UNL     1       7.296  -0.333  22.244  0.00  0.00    -0.203 F 
ENDROOT
BRANCH   5   9
ATOM      9  C   UNL     1       8.555   3.609  24.785  0.00  0.00    -0.014 A 
ATOM     10  C   UNL     1       8.095   4.502  25.768  0.00  0.00    +0.009 A 
ATOM     11  C   UNL     1       8.580   5.811  25.839  0.00  0.00    +0.004 A 
ATOM     12  C   UNL     1       9.569   6.242  24.956  0.00  0.00    +0.046 A 
ATOM     13  C   UNL     1      10.055   5.379  23.979  0.00  0.00    +0.131 A 
ATOM     14  C   UNL     1       9.490   4.109  23.854  0.00  0.00    +0.054 A 
BRANCH  13  15
ATOM     15  O   UNL     1      11.023   5.884  23.167  0.00  0.00    -0.406 OA
BRANCH  15  16
ATOM     16  C   UNL     1      12.382   5.542  23.431  0.00  0.00    +0.575 C 
ATOM     17  F   UNL     1      12.498   4.195  23.446  0.00  0.00    -0.133 F 
ATOM     18  F   UNL     1      12.722   6.005  24.655  0.00  0.00    -0.133 F 
ATOM     19  F   UNL     1      13.271   6.021  22.533  0.00  0.00    -0.133 F 
ENDBRANCH  15  16
ENDBRANCH  13  15
ENDBRANCH   5   9
BRANCH   1  21
ATOM     20  C   UNL     1       5.663  -2.300  24.680  0.00  0.00    +0.250 C 
ATOM     21  N   UNL     1       6.949  -1.877  24.457  0.00  0.00    -0.277 N 
ATOM     22  H   UNL     1       7.680  -2.575  24.361  0.00  0.00    +0.155 HD
ATOM     23  O   UNL     1       4.793  -1.619  25.210  0.00  0.00    -0.270 OA
BRANCH  20  28
ATOM     24  C   UNL     1       5.622  -4.357  23.163  0.00  0.00    +0.108 A 
ATOM     25  S   UNL     1       5.128  -6.004  23.218  0.00  0.00    -0.090 S 
ATOM     26  C   UNL     1       4.658  -5.893  24.848  0.00  0.00    +0.047 A 
ATOM     27  C   UNL     1       4.850  -4.626  25.346  0.00  0.00    +0.021 A 
ATOM     28  C   UNL     1       5.421  -3.718  24.383  0.00  0.00    +0.058 A 
BRANCH  24  29
ATOM     29  C   UNL     1       6.174  -3.834  21.925  0.00  0.00    +0.344 C 
ATOM     30  O   UNL     1       5.563  -3.682  20.877  0.00  0.00    -0.245 OA
BRANCH  29  31
ATOM     31  O   UNL     1       7.490  -3.513  22.034  0.00  0.00    -0.477 OA
ATOM     32  H   UNL     1       7.940  -4.044  22.720  0.00  0.00    +0.295 HD
ENDBRANCH  29  31
ENDBRANCH  24  29
ENDBRANCH  20  28
ENDBRANCH   1  21
TORSDOF 7
ENDMDL
MODEL 9
REMARK VINA RESULT:      -6.9      3.425      4.532
REMARK  Name = 
REMARK  7 active torsions:
REMARK  status: ('A' for Active; 'I' for Inactive)
REMARK    1  A    between atoms: O_1  and  C_2
REMARK    2  A    between atoms: C_2  and  C_4
REMARK    3  A    between atoms: C_5  and  C_9
REMARK    4  A    between atoms: N_11  and  C_12
REMARK    5  A    between atoms: C_16  and  C_20
REMARK    6  A    between atoms: C_22  and  O_23
REMARK    7  A    between atoms: O_23  and  C_24
REMARK                            x       y       z     vdW  Elec       q    Type
REMARK                         _______ _______ _______ _____ _____    ______ ____
ROOT
ATOM      1  C   UNL     1       6.402  -2.898  24.279  0.00  0.00    +0.105 A 
ATOM      2  C   UNL     1       7.159  -2.492  25.377  0.00  0.00    +0.148 A 
ATOM      3  F   UNL     1       7.110  -3.174  26.532  0.00  0.00    -0.203 F 
ATOM      4  C   UNL     1       7.896  -1.303  25.344  0.00  0.00    +0.049 A 
ATOM      5  C   UNL     1       7.932  -0.505  24.188  0.00  0.00    -0.012 A 
ATOM      6  C   UNL     1       7.180  -0.944  23.082  0.00  0.00    +0.049 A 
ATOM      7  C   UNL     1       6.401  -2.094  23.147  0.00  0.00    +0.148 A 
ATOM      8  F   UNL     1       5.691  -2.458  22.069  0.00  0.00    -0.203 F 
ENDROOT
BRANCH   5   9
ATOM      9  C   UNL     1       8.732   0.738  24.099  0.00  0.00    -0.014 A 
ATOM     10  C   UNL     1      10.135   0.727  24.015  0.00  0.00    +0.009 A 
ATOM     11  C   UNL     1      10.856   1.911  23.831  0.00  0.00    +0.004 A 
ATOM     12  C   UNL     1      10.187   3.125  23.682  0.00  0.00    +0.046 A 
ATOM     13  C   UNL     1       8.797   3.167  23.748  0.00  0.00    +0.131 A 
ATOM     14  C   UNL     1       8.096   1.995  24.033  0.00  0.00    +0.054 A 
BRANCH  13  15
ATOM     15  O   UNL     1       8.232   4.394  23.585  0.00  0.00    -0.406 OA
BRANCH  15  16
ATOM     16  C   UNL     1       7.363   4.602  22.473  0.00  0.00    +0.575 C 
ATOM     17  F   UNL     1       6.084   4.594  22.911  0.00  0.00    -0.133 F 
ATOM     18  F   UNL     1       7.514   3.581  21.600  0.00  0.00    -0.133 F 
ATOM     19  F   UNL     1       7.562   5.762  21.809  0.00  0.00    -0.133 F 
ENDBRANCH  15  16
ENDBRANCH  13  15
ENDBRANCH   5   9
BRANCH   1  21
ATOM     20  C   UNL     1       4.232  -4.024  24.524  0.00  0.00    +0.250 C 
ATOM     21  N   UNL     1       5.583  -4.041  24.279  0.00  0.00    -0.277 N 
ATOM     22  H   UNL     1       6.063  -4.935  24.274  0.00  0.00    +0.155 HD
ATOM     23  O   UNL     1       3.620  -3.055  24.959  0.00  0.00    -0.270 OA
BRANCH  20  28
ATOM     24  C   UNL     1       3.795  -6.466  25.141  0.00  0.00    +0.108 A 
ATOM     25  S   UNL     1       2.864  -7.801  24.584  0.00  0.00    -0.090 S 
ATOM     26  C   UNL     1       2.142  -6.885  23.347  0.00  0.00    +0.047 A 
ATOM     27  C   UNL     1       2.607  -5.592  23.335  0.00  0.00    +0.021 A 
ATOM     28  C   UNL     1       3.564  -5.324  24.380  0.00  0.00    +0.058 A 
BRANCH  24  29
ATOM     29  C   UNL     1       4.669  -6.653  26.286  0.00  0.00    +0.344 C 
ATOM     30  O   UNL     1       5.863  -6.391  26.325  0.00  0.00    -0.245 OA
BRANCH  29  31
ATOM     31  O   UNL     1       4.018  -7.168  27.362  0.00  0.00    -0.477 OA
ATOM     32  H   UNL     1       3.414  -7.894  27.110  0.00  0.00    +0.295 HD
ENDBRANCH  29  31
ENDBRANCH  24  29
ENDBRANCH  20  28
ENDBRANCH   1  21
TORSDOF 7
ENDMDL
