MODEL 1
REMARK VINA RESULT:      -7.2      0.000      0.000
REMARK  Name = 
REMARK  6 active torsions:
REMARK  status: ('A' for Active; 'I' for Inactive)
REMARK    1  A    between atoms: O_1  and  C_2
REMARK    2  A    between atoms: C_2  and  C_4
REMARK    3  A    between atoms: N_6  and  C_7
REMARK    4  A    between atoms: N_6  and  C_16
REMARK    5  A    between atoms: C_12  and  C_13
REMARK    6  A    between atoms: C_13  and  O_14
REMARK                            x       y       z     vdW  Elec       q    Type
REMARK                         _______ _______ _______ _____ _____    ______ ____
ROOT
ATOM      1  C   UNL     1       8.231  -3.498  25.505  0.00  0.00    +0.332 C 
ATOM      2  N   UNL     1       7.510  -3.060  24.385  0.00  0.00    -0.230 N 
ATOM      3  O   UNL     1       8.658  -2.762  26.397  0.00  0.00    -0.262 OA
ENDROOT
BRANCH   2   4
ATOM      4  C   UNL     1       6.825  -3.942  23.493  0.00  0.00    +0.050 A 
ATOM      5  C   UNL     1       5.509  -4.408  23.769  0.00  0.00    +0.004 A 
ATOM      6  C   UNL     1       4.687  -3.895  24.801  0.00  0.00    +0.010 A 
ATOM      7  C   UNL     1       3.428  -4.433  25.073  0.00  0.00    +0.001 A 
ATOM      8  C   UNL     1       2.944  -5.479  24.301  0.00  0.00    +0.001 A 
ATOM      9  C   UNL     1       3.700  -5.961  23.233  0.00  0.00    +0.008 A 
ATOM     10  C   UNL     1       4.967  -5.427  22.946  0.00  0.00    -0.016 A 
ATOM     11  C   UNL     1       5.702  -5.909  21.851  0.00  0.00    +0.008 A 
ATOM     12  C   UNL     1       6.961  -5.395  21.550  0.00  0.00    +0.002 A 
ATOM     13  C   UNL     1       7.518  -4.414  22.364  0.00  0.00    +0.024 A 
ENDBRANCH   2   4
BRANCH   2  14
ATOM     14  C   UNL     1       7.528  -1.675  24.035  0.00  0.00    +0.056 A 
ATOM     15  C   UNL     1       8.638  -1.037  23.422  0.00  0.00    +0.081 A 
ATOM     16  C   UNL     1       8.585   0.359  23.237  0.00  0.00    +0.017 A 
ATOM     17  C   UNL     1       7.475   1.103  23.652  0.00  0.00    +0.001 A 
ATOM     18  C   UNL     1       6.380   0.464  24.221  0.00  0.00    +0.002 A 
ATOM     19  C   UNL     1       6.401  -0.914  24.403  0.00  0.00    +0.025 A 
BRANCH  15  20
ATOM     20  C   UNL     1       9.765  -1.860  22.855  0.00  0.00    +0.339 C 
ATOM     21  O   UNL     1      10.466  -2.599  23.534  0.00  0.00    -0.245 OA
BRANCH  20  22
ATOM     22  O   UNL     1       9.950  -1.805  21.521  0.00  0.00    -0.477 OA
ATOM     23  H   UNL     1       9.267  -2.170  20.937  0.00  0.00    +0.295 HD
ENDBRANCH  20  22
ENDBRANCH  15  20
ENDBRANCH   2  14
BRANCH   1  24
ATOM     24  C   UNL     1       8.645  -4.983  25.525  0.00  0.00    +0.393 C 
ATOM     25  O   UNL     1       8.020  -5.842  26.114  0.00  0.00    -0.240 OA
BRANCH  24  26
ATOM     26  O   UNL     1       9.806  -5.184  24.866  0.00  0.00    -0.474 OA
ATOM     27  H   UNL     1      10.547  -5.408  25.485  0.00  0.00    +0.296 HD
ENDBRANCH  24  26
ENDBRANCH   1  24
TORSDOF 6
ENDMDL
MODEL 2
REMARK VINA RESULT:      -7.0      2.370      3.921
REMARK  Name = 
REMARK  6 active torsions:
REMARK  status: ('A' for Active; 'I' for Inactive)
REMARK    1  A    between atoms: O_1  and  C_2
REMARK    2  A    between atoms: C_2  and  C_4
REMARK    3  A    between atoms: N_6  and  C_7
REMARK    4  A    between atoms: N_6  and  C_16
REMARK    5  A    between atoms: C_12  and  C_13
REMARK    6  A    between atoms: C_13  and  O_14
REMARK                            x       y       z     vdW  Elec       q    Type
REMARK                         _______ _______ _______ _____ _____    ______ ____
ROOT
ATOM      1  C   UNL     1      10.038  -0.480  23.674  0.00  0.00    +0.332 C 
ATOM      2  N   UNL     1       8.690  -0.310  24.018  0.00  0.00    -0.230 N 
ATOM      3  O   UNL     1      10.937   0.320  23.939  0.00  0.00    -0.262 OA
ENDROOT
BRANCH   2   4
ATOM      4  C   UNL     1       7.712  -1.346  23.914  0.00  0.00    +0.050 A 
ATOM      5  C   UNL     1       7.717  -2.469  24.788  0.00  0.00    +0.004 A 
ATOM      6  C   UNL     1       8.524  -2.566  25.947  0.00  0.00    +0.010 A 
ATOM      7  C   UNL     1       8.542  -3.718  26.735  0.00  0.00    +0.001 A 
ATOM      8  C   UNL     1       7.731  -4.793  26.402  0.00  0.00    +0.001 A 
ATOM      9  C   UNL     1       6.874  -4.702  25.306  0.00  0.00    +0.008 A 
ATOM     10  C   UNL     1       6.843  -3.548  24.506  0.00  0.00    -0.016 A 
ATOM     11  C   UNL     1       5.955  -3.467  23.422  0.00  0.00    +0.008 A 
ATOM     12  C   UNL     1       5.910  -2.332  22.616  0.00  0.00    +0.002 A 
ATOM     13  C   UNL     1       6.781  -1.276  22.861  0.00  0.00    +0.024 A 
ENDBRANCH   2   4
BRANCH   2  14
ATOM     14  C   UNL     1       8.221   0.984  24.401  0.00  0.00    +0.056 A 
ATOM     15  C   UNL     1       8.278   2.120  23.551  0.00  0.00    +0.081 A 
ATOM     16  C   UNL     1       7.898   3.369  24.082  0.00  0.00    +0.017 A 
ATOM     17  C   UNL     1       7.484   3.494  25.412  0.00  0.00    +0.001 A 
ATOM     18  C   UNL     1       7.401   2.372  26.226  0.00  0.00    +0.002 A 
ATOM     19  C   UNL     1       7.756   1.125  25.723  0.00  0.00    +0.025 A 
BRANCH  15  20
ATOM     20  C   UNL     1       8.590   1.954  22.086  0.00  0.00    +0.339 C 
ATOM     21  O   UNL     1       7.746   1.665  21.248  0.00  0.00    -0.245 OA
BRANCH  20  22
ATOM     22  O   UNL     1       9.858   2.200  21.700  0.00  0.00    -0.477 OA
ATOM     23  H   UNL     1      10.074   3.068  21.326  0.00  0.00    +0.295 HD
ENDBRANCH  20  22
ENDBRANCH  15  20
ENDBRANCH   2  14
BRANCH   1  24
ATOM     24  C   UNL     1      10.374  -1.678  22.763  0.00  0.00    +0.393 C 
ATOM     25  O   UNL     1      10.759  -2.750  23.187  0.00  0.00    -0.240 OA
BRANCH  24  26
ATOM     26  O   UNL     1      10.247  -1.362  21.458  0.00  0.00    -0.474 OA
ATOM     27  H   UNL     1      10.251  -2.168  20.880  0.00  0.00    +0.296 HD
ENDBRANCH  24  26
ENDBRANCH   1  24
TORSDOF 6
ENDMDL
MODEL 3
REMARK VINA RESULT:      -6.7      1.770      5.238
REMARK  Name = 
REMARK  6 active torsions:
REMARK  status: ('A' for Active; 'I' for Inactive)
REMARK    1  A    between atoms: O_1  and  C_2
REMARK    2  A    between atoms: C_2  and  C_4
REMARK    3  A    between atoms: N_6  and  C_7
REMARK    4  A    between atoms: N_6  and  C_16
REMARK    5  A    between atoms: C_12  and  C_13
REMARK    6  A    between atoms: C_13  and  O_14
REMARK                            x       y       z     vdW  Elec       q    Type
REMARK                         _______ _______ _______ _____ _____    ______ ____
ROOT
ATOM      1  C   UNL     1       7.513  -2.110  26.251  0.00  0.00    +0.332 C 
ATOM      2  N   UNL     1       7.654  -2.370  24.880  0.00  0.00    -0.230 N 
ATOM      3  O   UNL     1       6.949  -2.856  27.053  0.00  0.00    -0.262 OA
ENDROOT
BRANCH   2   4
ATOM      4  C   UNL     1       8.508  -1.617  24.018  0.00  0.00    +0.050 A 
ATOM      5  C   UNL     1       8.063  -0.425  23.380  0.00  0.00    +0.004 A 
ATOM      6  C   UNL     1       6.851   0.234  23.692  0.00  0.00    +0.010 A 
ATOM      7  C   UNL     1       6.427   1.364  22.990  0.00  0.00    +0.001 A 
ATOM      8  C   UNL     1       7.220   1.882  21.976  0.00  0.00    +0.001 A 
ATOM      9  C   UNL     1       8.453   1.296  21.691  0.00  0.00    +0.008 A 
ATOM     10  C   UNL     1       8.892   0.161  22.391  0.00  0.00    -0.016 A 
ATOM     11  C   UNL     1      10.148  -0.399  22.106  0.00  0.00    +0.008 A 
ATOM     12  C   UNL     1      10.602  -1.525  22.788  0.00  0.00    +0.002 A 
ATOM     13  C   UNL     1       9.789  -2.130  23.741  0.00  0.00    +0.024 A 
ENDBRANCH   2   4
BRANCH   2  14
ATOM     14  C   UNL     1       6.836  -3.368  24.268  0.00  0.00    +0.056 A 
ATOM     15  C   UNL     1       7.204  -4.736  24.181  0.00  0.00    +0.081 A 
ATOM     16  C   UNL     1       6.373  -5.605  23.445  0.00  0.00    +0.017 A 
ATOM     17  C   UNL     1       5.218  -5.135  22.809  0.00  0.00    +0.001 A 
ATOM     18  C   UNL     1       4.850  -3.801  22.927  0.00  0.00    +0.002 A 
ATOM     19  C   UNL     1       5.645  -2.926  23.659  0.00  0.00    +0.025 A 
BRANCH  15  20
ATOM     20  C   UNL     1       8.368  -5.259  24.982  0.00  0.00    +0.339 C 
ATOM     21  O   UNL     1       9.516  -5.294  24.555  0.00  0.00    -0.245 OA
BRANCH  20  22
ATOM     22  O   UNL     1       8.115  -5.645  26.248  0.00  0.00    -0.477 OA
ATOM     23  H   UNL     1       8.805  -5.531  26.920  0.00  0.00    +0.295 HD
ENDBRANCH  20  22
ENDBRANCH  15  20
ENDBRANCH   2  14
BRANCH   1  24
ATOM     24  C   UNL     1       7.962  -0.719  26.741  0.00  0.00    +0.393 C 
ATOM     25  O   UNL     1       7.214   0.236  26.813  0.00  0.00    -0.240 OA
BRANCH  24  26
ATOM     26  O   UNL     1       9.284  -0.690  27.014  0.00  0.00    -0.474 OA
ATOM     27  H   UNL     1       9.823  -0.499  26.204  0.00  0.00    +0.296 HD
ENDBRANCH  24  26
ENDBRANCH   1  24
TORSDOF 6
ENDMDL
MODEL 4
REMARK VINA RESULT:      -6.6      2.560      5.750
REMARK  Name = 
REMARK  6 active torsions:
REMARK  status: ('A' for Active; 'I' for Inactive)
REMARK    1  A    between atoms: O_1  and  C_2
REMARK    2  A    between atoms: C_2  and  C_4
REMARK    3  A    between atoms: N_6  and  C_7
REMARK    4  A    between atoms: N_6  and  C_16
REMARK    5  A    between atoms: C_12  and  C_13
REMARK    6  A    between atoms: C_13  and  O_14
REMARK                            x       y       z     vdW  Elec       q    Type
REMARK                         _______ _______ _______ _____ _____    ______ ____
ROOT
ATOM      1  C   UNL     1       4.988  -4.988  22.984  0.00  0.00    +0.332 C 
ATOM      2  N   UNL     1       5.435  -4.534  24.233  0.00  0.00    -0.230 N 
ATOM      3  O   UNL     1       3.817  -4.950  22.601  0.00  0.00    -0.262 OA
ENDROOT
BRANCH   2   4
ATOM      4  C   UNL     1       6.815  -4.368  24.564  0.00  0.00    +0.050 A 
ATOM      5  C   UNL     1       7.585  -3.294  24.037  0.00  0.00    +0.004 A 
ATOM      6  C   UNL     1       7.035  -2.196  23.334  0.00  0.00    +0.010 A 
ATOM      7  C   UNL     1       7.842  -1.201  22.778  0.00  0.00    +0.001 A 
ATOM      8  C   UNL     1       9.219  -1.263  22.936  0.00  0.00    +0.001 A 
ATOM      9  C   UNL     1       9.786  -2.295  23.682  0.00  0.00    +0.008 A 
ATOM     10  C   UNL     1       8.987  -3.301  24.249  0.00  0.00    -0.016 A 
ATOM     11  C   UNL     1       9.575  -4.317  25.018  0.00  0.00    +0.008 A 
ATOM     12  C   UNL     1       8.801  -5.325  25.588  0.00  0.00    +0.002 A 
ATOM     13  C   UNL     1       7.427  -5.349  25.365  0.00  0.00    +0.024 A 
ENDBRANCH   2   4
BRANCH   2  14
ATOM     14  C   UNL     1       4.489  -4.315  25.281  0.00  0.00    +0.056 A 
ATOM     15  C   UNL     1       3.859  -5.365  25.998  0.00  0.00    +0.081 A 
ATOM     16  C   UNL     1       2.853  -5.028  26.925  0.00  0.00    +0.017 A 
ATOM     17  C   UNL     1       2.474  -3.697  27.131  0.00  0.00    +0.001 A 
ATOM     18  C   UNL     1       3.119  -2.675  26.447  0.00  0.00    +0.002 A 
ATOM     19  C   UNL     1       4.126  -2.979  25.536  0.00  0.00    +0.025 A 
BRANCH  15  20
ATOM     20  C   UNL     1       4.367  -6.778  25.874  0.00  0.00    +0.339 C 
ATOM     21  O   UNL     1       4.230  -7.455  24.863  0.00  0.00    -0.245 OA
BRANCH  20  22
ATOM     22  O   UNL     1       5.055  -7.275  26.921  0.00  0.00    -0.477 OA
ATOM     23  H   UNL     1       4.564  -7.658  27.665  0.00  0.00    +0.295 HD
ENDBRANCH  20  22
ENDBRANCH  15  20
ENDBRANCH   2  14
BRANCH   1  24
ATOM     24  C   UNL     1       6.018  -5.727  22.106  0.00  0.00    +0.393 C 
ATOM     25  O   UNL     1       6.661  -5.182  21.232  0.00  0.00    -0.240 OA
BRANCH  24  26
ATOM     26  O   UNL     1       6.060  -7.045  22.392  0.00  0.00    -0.474 OA
ATOM     27  H   UNL     1       6.989  -7.392  22.396  0.00  0.00    +0.296 HD
ENDBRANCH  24  26
ENDBRANCH   1  24
TORSDOF 6
ENDMDL
MODEL 5
REMARK VINA RESULT:      -6.4      2.406      4.079
REMARK  Name = 
REMARK  6 active torsions:
REMARK  status: ('A' for Active; 'I' for Inactive)
REMARK    1  A    between atoms: O_1  and  C_2
REMARK    2  A    between atoms: C_2  and  C_4
REMARK    3  A    between atoms: N_6  and  C_7
REMARK    4  A    between atoms: N_6  and  C_16
REMARK    5  A    between atoms: C_12  and  C_13
REMARK    6  A    between atoms: C_13  and  O_14
REMARK                            x       y       z     vdW  Elec       q    Type
REMARK                         _______ _______ _______ _____ _____    ______ ____
ROOT
ATOM      1  C   UNL     1       6.422  -5.493  23.134  0.00  0.00    +0.332 C 
ATOM      2  N   UNL     1       6.684  -4.330  23.871  0.00  0.00    -0.230 N 
ATOM      3  O   UNL     1       7.236  -6.056  22.398  0.00  0.00    -0.262 OA
ENDROOT
BRANCH   2   4
ATOM      4  C   UNL     1       5.816  -3.831  24.891  0.00  0.00    +0.050 A 
ATOM      5  C   UNL     1       5.537  -4.582  26.067  0.00  0.00    +0.004 A 
ATOM      6  C   UNL     1       6.231  -5.758  26.439  0.00  0.00    +0.010 A 
ATOM      7  C   UNL     1       5.872  -6.496  27.569  0.00  0.00    +0.001 A 
ATOM      8  C   UNL     1       4.829  -6.061  28.373  0.00  0.00    +0.001 A 
ATOM      9  C   UNL     1       4.170  -4.870  28.071  0.00  0.00    +0.008 A 
ATOM     10  C   UNL     1       4.522  -4.116  26.940  0.00  0.00    -0.016 A 
ATOM     11  C   UNL     1       3.863  -2.907  26.668  0.00  0.00    +0.008 A 
ATOM     12  C   UNL     1       4.196  -2.145  25.551  0.00  0.00    +0.002 A 
ATOM     13  C   UNL     1       5.169  -2.602  24.668  0.00  0.00    +0.024 A 
ENDBRANCH   2   4
BRANCH   2  14
ATOM     14  C   UNL     1       7.818  -3.528  23.539  0.00  0.00    +0.056 A 
ATOM     15  C   UNL     1       9.051  -3.586  24.240  0.00  0.00    +0.081 A 
ATOM     16  C   UNL     1      10.056  -2.659  23.898  0.00  0.00    +0.017 A 
ATOM     17  C   UNL     1       9.847  -1.700  22.902  0.00  0.00    +0.001 A 
ATOM     18  C   UNL     1       8.649  -1.672  22.200  0.00  0.00    +0.002 A 
ATOM     19  C   UNL     1       7.645  -2.584  22.507  0.00  0.00    +0.025 A 
BRANCH  15  20
ATOM     20  C   UNL     1       9.317  -4.707  25.210  0.00  0.00    +0.339 C 
ATOM     21  O   UNL     1       9.278  -4.567  26.426  0.00  0.00    -0.245 OA
BRANCH  20  22
ATOM     22  O   UNL     1       9.548  -5.927  24.687  0.00  0.00    -0.477 OA
ATOM     23  H   UNL     1       9.162  -6.705  25.120  0.00  0.00    +0.295 HD
ENDBRANCH  20  22
ENDBRANCH  15  20
ENDBRANCH   2  14
BRANCH   1  24
ATOM     24  C   UNL     1       4.966  -5.999  23.130  0.00  0.00    +0.393 C 
ATOM     25  O   UNL     1       4.037  -5.354  22.685  0.00  0.00    -0.240 OA
BRANCH  24  26
ATOM     26  O   UNL     1       4.856  -7.202  23.733  0.00  0.00    -0.474 OA
ATOM     27  H   UNL     1       5.704  -7.475  24.168  0.00  0.00    +0.296 HD
ENDBRANCH  24  26
ENDBRANCH   1  24
TORSDOF 6
ENDMDL
MODEL 6
REMARK VINA RESULT:      -6.3      1.859      5.853
REMARK  Name = 
REMARK  6 active torsions:
REMARK  status: ('A' for Active; 'I' for Inactive)
REMARK    1  A    between atoms: O_1  and  C_2
REMARK    2  A    between atoms: C_2  and  C_4
REMARK    3  A    between atoms: N_6  and  C_7
REMARK    4  A    between atoms: N_6  and  C_16
REMARK    5  A    between atoms: C_12  and  C_13
REMARK    6  A    between atoms: C_13  and  O_14
REMARK                            x       y       z     vdW  Elec       q    Type
REMARK                         _______ _______ _______ _____ _____    ______ ____
ROOT
ATOM      1  C   UNL     1       9.207  -1.402  24.414  0.00  0.00    +0.332 C 
ATOM      2  N   UNL     1       7.834  -1.506  24.154  0.00  0.00    -0.230 N 
ATOM      3  O   UNL     1      10.050  -2.239  24.085  0.00  0.00    -0.262 OA
ENDROOT
BRANCH   2   4
ATOM      4  C   UNL     1       6.913  -0.427  24.329  0.00  0.00    +0.050 A 
ATOM      5  C   UNL     1       6.954   0.731  23.503  0.00  0.00    +0.004 A 
ATOM      6  C   UNL     1       7.734   0.838  22.328  0.00  0.00    +0.010 A 
ATOM      7  C   UNL     1       7.791   2.021  21.589  0.00  0.00    +0.001 A 
ATOM      8  C   UNL     1       7.045   3.120  21.990  0.00  0.00    +0.001 A 
ATOM      9  C   UNL     1       6.213   3.024  23.104  0.00  0.00    +0.008 A 
ATOM     10  C   UNL     1       6.144   1.840  23.855  0.00  0.00    -0.016 A 
ATOM     11  C   UNL     1       5.282   1.756  24.960  0.00  0.00    +0.008 A 
ATOM     12  C   UNL     1       5.199   0.591  25.719  0.00  0.00    +0.002 A 
ATOM     13  C   UNL     1       6.008  -0.496  25.404  0.00  0.00    +0.024 A 
ENDBRANCH   2   4
BRANCH   2  14
ATOM     14  C   UNL     1       7.282  -2.772  23.789  0.00  0.00    +0.056 A 
ATOM     15  C   UNL     1       7.275  -3.900  24.651  0.00  0.00    +0.081 A 
ATOM     16  C   UNL     1       6.814  -5.128  24.137  0.00  0.00    +0.017 A 
ATOM     17  C   UNL     1       6.382  -5.242  22.811  0.00  0.00    +0.001 A 
ATOM     18  C   UNL     1       6.363  -4.125  21.986  0.00  0.00    +0.002 A 
ATOM     19  C   UNL     1       6.799  -2.898  22.472  0.00  0.00    +0.025 A 
BRANCH  15  20
ATOM     20  C   UNL     1       7.608  -3.738  26.112  0.00  0.00    +0.339 C 
ATOM     21  O   UNL     1       6.780  -3.435  26.961  0.00  0.00    -0.245 OA
BRANCH  20  22
ATOM     22  O   UNL     1       8.876  -4.004  26.482  0.00  0.00    -0.477 OA
ATOM     23  H   UNL     1       9.057  -4.231  27.408  0.00  0.00    +0.295 HD
ENDBRANCH  20  22
ENDBRANCH  15  20
ENDBRANCH   2  14
BRANCH   1  24
ATOM     24  C   UNL     1       9.655  -0.232  25.313  0.00  0.00    +0.393 C 
ATOM     25  O   UNL     1      10.296   0.716  24.904  0.00  0.00    -0.240 OA
BRANCH  24  26
ATOM     26  O   UNL     1       9.301  -0.430  26.600  0.00  0.00    -0.474 OA
ATOM     27  H   UNL     1       8.927  -1.337  26.744  0.00  0.00    +0.296 HD
ENDBRANCH  24  26
ENDBRANCH   1  24
TORSDOF 6
ENDMDL
MODEL 7
REMARK VINA RESULT:      -6.3      5.707      8.265
REMARK  Name = 
REMARK  6 active torsions:
REMARK  status: ('A' for Active; 'I' for Inactive)
REMARK    1  A    between atoms: O_1  and  C_2
REMARK    2  A    between atoms: C_2  and  C_4
REMARK    3  A    between atoms: N_6  and  C_7
REMARK    4  A    between atoms: N_6  and  C_16
REMARK    5  A    between atoms: C_12  and  C_13
REMARK    6  A    between atoms: C_13  and  O_14
REMARK                            x       y       z     vdW  Elec       q    Type
REMARK                         _______ _______ _______ _____ _____    ______ ____
ROOT
ATOM      1  C   UNL     1       7.681   4.877  22.823  0.00  0.00    +0.332 C 
ATOM      2  N   UNL     1       8.630   4.240  23.635  0.00  0.00    -0.230 N 
ATOM      3  O   UNL     1       7.886   5.907  22.179  0.00  0.00    -0.262 OA
ENDROOT
BRANCH   2   4
ATOM      4  C   UNL     1       8.451   2.931  24.179  0.00  0.00    +0.050 A 
ATOM      5  C   UNL     1       8.679   1.761  23.401  0.00  0.00    +0.004 A 
ATOM      6  C   UNL     1       9.292   1.766  22.126  0.00  0.00    +0.010 A 
ATOM      7  C   UNL     1       9.430   0.598  21.373  0.00  0.00    +0.001 A 
ATOM      8  C   UNL     1       8.986  -0.611  21.889  0.00  0.00    +0.001 A 
ATOM      9  C   UNL     1       8.440  -0.659  23.171  0.00  0.00    +0.008 A 
ATOM     10  C   UNL     1       8.297   0.507  23.940  0.00  0.00    -0.016 A 
ATOM     11  C   UNL     1       7.767   0.434  25.238  0.00  0.00    +0.008 A 
ATOM     12  C   UNL     1       7.616   1.578  26.017  0.00  0.00    +0.002 A 
ATOM     13  C   UNL     1       7.959   2.820  25.492  0.00  0.00    +0.024 A 
ENDBRANCH   2   4
BRANCH   2  14
ATOM     14  C   UNL     1       9.801   4.952  24.038  0.00  0.00    +0.056 A 
ATOM     15  C   UNL     1       9.780   6.041  24.948  0.00  0.00    +0.081 A 
ATOM     16  C   UNL     1      10.980   6.743  25.175  0.00  0.00    +0.017 A 
ATOM     17  C   UNL     1      12.162   6.387  24.517  0.00  0.00    +0.001 A 
ATOM     18  C   UNL     1      12.180   5.300  23.652  0.00  0.00    +0.002 A 
ATOM     19  C   UNL     1      11.012   4.581  23.421  0.00  0.00    +0.025 A 
BRANCH  15  20
ATOM     20  C   UNL     1       8.540   6.328  25.755  0.00  0.00    +0.339 C 
ATOM     21  O   UNL     1       8.380   5.936  26.904  0.00  0.00    -0.245 OA
BRANCH  20  22
ATOM     22  O   UNL     1       7.604   7.108  25.179  0.00  0.00    -0.477 OA
ATOM     23  H   UNL     1       7.419   6.998  24.233  0.00  0.00    +0.295 HD
ENDBRANCH  20  22
ENDBRANCH  15  20
ENDBRANCH   2  14
BRANCH   1  24
ATOM     24  C   UNL     1       6.242   4.325  22.875  0.00  0.00    +0.393 C 
ATOM     25  O   UNL     1       5.469   4.566  23.780  0.00  0.00    -0.240 OA
BRANCH  24  26
ATOM     26  O   UNL     1       5.986   3.504  21.834  0.00  0.00    -0.474 OA
ATOM     27  H   UNL     1       5.059   3.610  21.501  0.00  0.00    +0.296 HD
ENDBRANCH  24  26
ENDBRANCH   1  24
TORSDOF 6
ENDMDL
MODEL 8
REMARK VINA RESULT:      -6.1      2.055      3.799
REMARK  Name = 
REMARK  6 active torsions:
REMARK  status: ('A' for Active; 'I' for Inactive)
REMARK    1  A    between atoms: O_1  and  C_2
REMARK    2  A    between atoms: C_2  and  C_4
REMARK    3  A    between atoms: N_6  and  C_7
REMARK    4  A    between atoms: N_6  and  C_16
REMARK    5  A    between atoms: C_12  and  C_13
REMARK    6  A    between atoms: C_13  and  O_14
REMARK                            x       y       z     vdW  Elec       q    Type
REMARK                         _______ _______ _______ _____ _____    ______ ____
ROOT
ATOM      1  C   UNL     1       9.365  -0.654  23.546  0.00  0.00    +0.332 C 
ATOM      2  N   UNL     1       7.980  -0.725  23.748  0.00  0.00    -0.230 N 
ATOM      3  O   UNL     1      10.066   0.323  23.818  0.00  0.00    -0.262 OA
ENDROOT
BRANCH   2   4
ATOM      4  C   UNL     1       7.229  -1.937  23.651  0.00  0.00    +0.050 A 
ATOM      5  C   UNL     1       7.419  -3.008  24.568  0.00  0.00    +0.004 A 
ATOM      6  C   UNL     1       8.181  -2.908  25.756  0.00  0.00    +0.010 A 
ATOM      7  C   UNL     1       8.392  -4.009  26.588  0.00  0.00    +0.001 A 
ATOM      8  C   UNL     1       7.821  -5.233  26.270  0.00  0.00    +0.001 A 
ATOM      9  C   UNL     1       7.009  -5.347  25.143  0.00  0.00    +0.008 A 
ATOM     10  C   UNL     1       6.786  -4.248  24.298  0.00  0.00    -0.016 A 
ATOM     11  C   UNL     1       5.944  -4.377  23.182  0.00  0.00    +0.008 A 
ATOM     12  C   UNL     1       5.711  -3.300  22.331  0.00  0.00    +0.002 A 
ATOM     13  C   UNL     1       6.347  -2.085  22.565  0.00  0.00    +0.024 A 
ENDBRANCH   2   4
BRANCH   2  14
ATOM     14  C   UNL     1       7.239   0.477  23.965  0.00  0.00    +0.056 A 
ATOM     15  C   UNL     1       6.818   0.917  25.247  0.00  0.00    +0.081 A 
ATOM     16  C   UNL     1       5.988   2.054  25.323  0.00  0.00    +0.017 A 
ATOM     17  C   UNL     1       5.581   2.730  24.168  0.00  0.00    +0.001 A 
ATOM     18  C   UNL     1       6.025   2.311  22.920  0.00  0.00    +0.002 A 
ATOM     19  C   UNL     1       6.856   1.200  22.819  0.00  0.00    +0.025 A 
BRANCH  15  20
ATOM     20  C   UNL     1       7.372   0.269  26.489  0.00  0.00    +0.339 C 
ATOM     21  O   UNL     1       6.687  -0.373  27.275  0.00  0.00    -0.245 OA
BRANCH  20  22
ATOM     22  O   UNL     1       8.702   0.366  26.688  0.00  0.00    -0.477 OA
ATOM     23  H   UNL     1       9.147  -0.308  27.225  0.00  0.00    +0.295 HD
ENDBRANCH  20  22
ENDBRANCH  15  20
ENDBRANCH   2  14
BRANCH   1  24
ATOM     24  C   UNL     1      10.015  -1.827  22.785  0.00  0.00    +0.393 C 
ATOM     25  O   UNL     1      10.569  -2.755  23.339  0.00  0.00    -0.240 OA
BRANCH  24  26
ATOM     26  O   UNL     1       9.941  -1.654  21.449  0.00  0.00    -0.474 OA
ATOM     27  H   UNL     1       9.241  -2.226  21.041  0.00  0.00    +0.296 HD
ENDBRANCH  24  26
ENDBRANCH   1  24
TORSDOF 6
ENDMDL
MODEL 9
REMARK VINA RESULT:      -6.1      2.570      3.912
REMARK  Name = 
REMARK  6 active torsions:
REMARK  status: ('A' for Active; 'I' for Inactive)
REMARK    1  A    between atoms: O_1  and  C_2
REMARK    2  A    between atoms: C_2  and  C_4
REMARK    3  A    between atoms: N_6  and  C_7
REMARK    4  A    between atoms: N_6  and  C_16
REMARK    5  A    between atoms: C_12  and  C_13
REMARK    6  A    between atoms: C_13  and  O_14
REMARK                            x       y       z     vdW  Elec       q    Type
REMARK                         _______ _______ _______ _____ _____    ______ ____
ROOT
ATOM      1  C   UNL     1       8.067   0.944  25.502  0.00  0.00    +0.332 C 
ATOM      2  N   UNL     1       7.539   0.753  24.217  0.00  0.00    -0.230 N 
ATOM      3  O   UNL     1       7.893   1.952  26.190  0.00  0.00    -0.262 OA
ENDROOT
BRANCH   2   4
ATOM      4  C   UNL     1       7.551  -0.504  23.538  0.00  0.00    +0.050 A 
ATOM      5  C   UNL     1       6.661  -1.555  23.896  0.00  0.00    +0.004 A 
ATOM      6  C   UNL     1       5.566  -1.399  24.779  0.00  0.00    +0.010 A 
ATOM      7  C   UNL     1       4.763  -2.478  25.150  0.00  0.00    +0.001 A 
ATOM      8  C   UNL     1       5.015  -3.737  24.626  0.00  0.00    +0.001 A 
ATOM      9  C   UNL     1       6.044  -3.910  23.701  0.00  0.00    +0.008 A 
ATOM     10  C   UNL     1       6.858  -2.833  23.316  0.00  0.00    -0.016 A 
ATOM     11  C   UNL     1       7.873  -3.023  22.364  0.00  0.00    +0.008 A 
ATOM     12  C   UNL     1       8.692  -1.968  21.969  0.00  0.00    +0.002 A 
ATOM     13  C   UNL     1       8.531  -0.714  22.550  0.00  0.00    +0.024 A 
ENDBRANCH   2   4
BRANCH   2  14
ATOM     14  C   UNL     1       7.049   1.878  23.485  0.00  0.00    +0.056 A 
ATOM     15  C   UNL     1       7.893   2.847  22.882  0.00  0.00    +0.081 A 
ATOM     16  C   UNL     1       7.293   3.977  22.292  0.00  0.00    +0.017 A 
ATOM     17  C   UNL     1       5.905   4.150  22.304  0.00  0.00    +0.001 A 
ATOM     18  C   UNL     1       5.086   3.180  22.869  0.00  0.00    +0.002 A 
ATOM     19  C   UNL     1       5.651   2.048  23.446  0.00  0.00    +0.025 A 
BRANCH  15  20
ATOM     20  C   UNL     1       9.371   2.586  22.750  0.00  0.00    +0.339 C 
ATOM     21  O   UNL     1      10.150   2.645  23.693  0.00  0.00    -0.245 OA
BRANCH  20  22
ATOM     22  O   UNL     1       9.820   2.214  21.535  0.00  0.00    -0.477 OA
ATOM     23  H   UNL     1       9.510   1.376  21.157  0.00  0.00    +0.295 HD
ENDBRANCH  20  22
ENDBRANCH  15  20
ENDBRANCH   2  14
BRANCH   1  24
ATOM     24  C   UNL     1       9.058  -0.123  26.009  0.00  0.00    +0.393 C 
ATOM     25  O   UNL     1       8.738  -1.034  26.746  0.00  0.00    -0.240 OA
BRANCH  24  26
ATOM     26  O   UNL     1      10.315   0.125  25.583  0.00  0.00    -0.474 OA
ATOM     27  H   UNL     1      10.480  -0.257  24.683  0.00  0.00    +0.296 HD
ENDBRANCH  24  26
ENDBRANCH   1  24
TORSDOF 6
ENDMDL
