MODEL 1
REMARK VINA RESULT:      -6.2      0.000      0.000
REMARK  Name = 
REMARK  9 active torsions:
REMARK  status: ('A' for Active; 'I' for Inactive)
REMARK    1  A    between atoms: C_1  and  C_2
REMARK    2  A    between atoms: C_3  and  C_4
REMARK    3  A    between atoms: C_4  and  S_5
REMARK    4  A    between atoms: S_5  and  C_6
REMARK    5  A    between atoms: C_6  and  C_7
REMARK    6  A    between atoms: C_12  and  O_13
REMARK    7  A    between atoms: O_13  and  C_14
REMARK    8  A    between atoms: C_16  and  C_17
REMARK    9  A    between atoms: C_19  and  C_20
REMARK                            x       y       z     vdW  Elec       q    Type
REMARK                         _______ _______ _______ _____ _____    ______ ____
ROOT
ATOM      1  C   UNL     1       6.830   1.954  27.082  0.00  0.00    +0.064 C 
ATOM      2  C   UNL     1       7.404   1.105  25.971  0.00  0.00    +0.023 A 
ATOM      3  N   UNL     1       8.671   1.499  25.624  0.00  0.00    -0.325 N 
ATOM      4  H   UNL     1       9.157   2.207  26.164  0.00  0.00    +0.169 HD
ATOM      5  C   UNL     1       9.375   1.046  24.543  0.00  0.00    +0.266 A 
ATOM      6  O   UNL     1      10.521   1.435  24.357  0.00  0.00    -0.267 OA
ATOM      7  C   UNL     1       8.653   0.110  23.636  0.00  0.00    +0.120 A 
ATOM      8  I   UNL     1       9.480  -0.108  21.738  0.00  0.00    -0.034 I 
ATOM      9  C   UNL     1       7.485  -0.427  24.061  0.00  0.00    +0.152 A 
ATOM     10  C   UNL     1       6.803   0.103  25.284  0.00  0.00    +0.025 A 
ENDROOT
BRANCH   9  11
ATOM     11  O   UNL     1       6.690  -1.268  23.285  0.00  0.00    -0.454 OA
BRANCH  11  12
ATOM     12  C   UNL     1       6.959  -2.617  23.127  0.00  0.00    +0.129 A 
ATOM     13  C   UNL     1       7.794  -3.161  24.112  0.00  0.00    +0.049 A 
ATOM     14  C   UNL     1       8.161  -4.513  24.085  0.00  0.00    -0.047 A 
ATOM     15  C   UNL     1       9.127  -5.060  25.094  0.00  0.00    +0.044 C 
ATOM     16  C   UNL     1       7.641  -5.337  23.084  0.00  0.00    +0.007 A 
ATOM     17  C   UNL     1       6.787  -4.818  22.104  0.00  0.00    -0.047 A 
ATOM     18  C   UNL     1       6.186  -5.756  21.099  0.00  0.00    +0.044 C 
ATOM     19  C   UNL     1       6.491  -3.442  22.099  0.00  0.00    +0.049 A 
ENDBRANCH  11  12
ENDBRANCH   9  11
BRANCH  10  20
ATOM     20  C   UNL     1       5.377  -0.329  25.592  0.00  0.00    +0.110 C 
BRANCH  20  21
ATOM     21  S   UNL     1       5.150  -1.851  26.547  0.00  0.00    -0.148 S 
BRANCH  21  22
ATOM     22  C   UNL     1       4.108  -2.871  25.445  0.00  0.00    +0.143 C 
BRANCH  22  23
ATOM     23  C   UNL     1       4.599  -4.277  25.527  0.00  0.00    +0.115 A 
ATOM     24  O   UNL     1       5.496  -4.574  26.515  0.00  0.00    -0.467 OA
ATOM     25  C   UNL     1       5.716  -5.915  26.460  0.00  0.00    +0.195 A 
ATOM     26  C   UNL     1       4.989  -6.483  25.440  0.00  0.00    +0.041 A 
ATOM     27  C   UNL     1       4.285  -5.424  24.822  0.00  0.00    +0.045 A 
ENDBRANCH  22  23
ENDBRANCH  21  22
ENDBRANCH  20  21
ENDBRANCH  10  20
TORSDOF 6
ENDMDL
MODEL 2
REMARK VINA RESULT:      -5.9      3.114      6.297
REMARK  Name = 
REMARK  9 active torsions:
REMARK  status: ('A' for Active; 'I' for Inactive)
REMARK    1  A    between atoms: C_1  and  C_2
REMARK    2  A    between atoms: C_3  and  C_4
REMARK    3  A    between atoms: C_4  and  S_5
REMARK    4  A    between atoms: S_5  and  C_6
REMARK    5  A    between atoms: C_6  and  C_7
REMARK    6  A    between atoms: C_12  and  O_13
REMARK    7  A    between atoms: O_13  and  C_14
REMARK    8  A    between atoms: C_16  and  C_17
REMARK    9  A    between atoms: C_19  and  C_20
REMARK                            x       y       z     vdW  Elec       q    Type
REMARK                         _______ _______ _______ _____ _____    ______ ____
ROOT
ATOM      1  C   UNL     1       6.702   3.256  21.876  0.00  0.00    +0.064 C 
ATOM      2  C   UNL     1       6.608   2.008  22.723  0.00  0.00    +0.023 A 
ATOM      3  N   UNL     1       5.596   2.085  23.645  0.00  0.00    -0.325 N 
ATOM      4  H   UNL     1       4.946   2.865  23.633  0.00  0.00    +0.169 HD
ATOM      5  C   UNL     1       5.378   1.198  24.662  0.00  0.00    +0.266 A 
ATOM      6  O   UNL     1       4.411   1.343  25.400  0.00  0.00    -0.267 OA
ATOM      7  C   UNL     1       6.388   0.112  24.811  0.00  0.00    +0.120 A 
ATOM      8  I   UNL     1       6.390  -0.855  26.654  0.00  0.00    -0.034 I 
ATOM      9  C   UNL     1       7.275  -0.085  23.808  0.00  0.00    +0.152 A 
ATOM     10  C   UNL     1       7.417   0.920  22.707  0.00  0.00    +0.025 A 
ENDROOT
BRANCH   9  11
ATOM     11  O   UNL     1       8.300  -1.028  23.853  0.00  0.00    -0.454 OA
BRANCH  11  12
ATOM     12  C   UNL     1       8.090  -2.374  23.607  0.00  0.00    +0.129 A 
ATOM     13  C   UNL     1       8.688  -3.234  24.538  0.00  0.00    +0.049 A 
ATOM     14  C   UNL     1       8.570  -4.625  24.421  0.00  0.00    -0.047 A 
ATOM     15  C   UNL     1       9.291  -5.534  25.372  0.00  0.00    +0.044 C 
ATOM     16  C   UNL     1       7.798  -5.155  23.384  0.00  0.00    +0.007 A 
ATOM     17  C   UNL     1       7.173  -4.313  22.457  0.00  0.00    -0.047 A 
ATOM     18  C   UNL     1       6.286  -4.922  21.410  0.00  0.00    +0.044 C 
ATOM     19  C   UNL     1       7.366  -2.922  22.542  0.00  0.00    +0.049 A 
ENDBRANCH  11  12
ENDBRANCH   9  11
BRANCH  10  20
ATOM     20  C   UNL     1       8.590   0.814  21.744  0.00  0.00    +0.110 C 
BRANCH  20  21
ATOM     21  S   UNL     1      10.131   1.645  22.204  0.00  0.00    -0.148 S 
BRANCH  21  22
ATOM     22  C   UNL     1       9.722   2.399  23.817  0.00  0.00    +0.143 C 
BRANCH  22  23
ATOM     23  C   UNL     1      10.231   3.801  23.808  0.00  0.00    +0.115 A 
ATOM     24  O   UNL     1      11.532   3.996  23.433  0.00  0.00    -0.467 OA
ATOM     25  C   UNL     1      11.737   5.340  23.399  0.00  0.00    +0.195 A 
ATOM     26  C   UNL     1      10.594   6.012  23.765  0.00  0.00    +0.041 A 
ATOM     27  C   UNL     1       9.628   5.021  24.050  0.00  0.00    +0.045 A 
ENDBRANCH  22  23
ENDBRANCH  21  22
ENDBRANCH  20  21
ENDBRANCH  10  20
TORSDOF 6
ENDMDL
MODEL 3
REMARK VINA RESULT:      -5.8      3.167      7.039
REMARK  Name = 
REMARK  9 active torsions:
REMARK  status: ('A' for Active; 'I' for Inactive)
REMARK    1  A    between atoms: C_1  and  C_2
REMARK    2  A    between atoms: C_3  and  C_4
REMARK    3  A    between atoms: C_4  and  S_5
REMARK    4  A    between atoms: S_5  and  C_6
REMARK    5  A    between atoms: C_6  and  C_7
REMARK    6  A    between atoms: C_12  and  O_13
REMARK    7  A    between atoms: O_13  and  C_14
REMARK    8  A    between atoms: C_16  and  C_17
REMARK    9  A    between atoms: C_19  and  C_20
REMARK                            x       y       z     vdW  Elec       q    Type
REMARK                         _______ _______ _______ _____ _____    ______ ____
ROOT
ATOM      1  C   UNL     1       9.495  -5.929  25.163  0.00  0.00    +0.064 C 
ATOM      2  C   UNL     1       8.412  -5.050  25.746  0.00  0.00    +0.023 A 
ATOM      3  N   UNL     1       7.937  -5.538  26.936  0.00  0.00    -0.325 N 
ATOM      4  H   UNL     1       8.380  -6.335  27.380  0.00  0.00    +0.169 HD
ATOM      5  C   UNL     1       6.843  -5.067  27.607  0.00  0.00    +0.266 A 
ATOM      6  O   UNL     1       6.537  -5.552  28.689  0.00  0.00    -0.267 OA
ATOM      7  C   UNL     1       6.071  -3.988  26.927  0.00  0.00    +0.120 A 
ATOM      8  I   UNL     1       4.138  -3.692  27.638  0.00  0.00    -0.034 I 
ATOM      9  C   UNL     1       6.627  -3.376  25.856  0.00  0.00    +0.152 A 
ATOM     10  C   UNL     1       7.855  -3.937  25.208  0.00  0.00    +0.025 A 
ENDROOT
BRANCH   9  11
ATOM     11  O   UNL     1       5.985  -2.395  25.103  0.00  0.00    -0.454 OA
BRANCH  11  12
ATOM     12  C   UNL     1       6.269  -1.046  25.231  0.00  0.00    +0.129 A 
ATOM     13  C   UNL     1       6.253  -0.333  24.025  0.00  0.00    +0.049 A 
ATOM     14  C   UNL     1       6.526   1.040  23.990  0.00  0.00    -0.047 A 
ATOM     15  C   UNL     1       6.594   1.771  22.682  0.00  0.00    +0.044 C 
ATOM     16  C   UNL     1       6.768   1.714  25.190  0.00  0.00    +0.007 A 
ATOM     17  C   UNL     1       6.766   1.025  26.409  0.00  0.00    -0.047 A 
ATOM     18  C   UNL     1       6.948   1.803  27.679  0.00  0.00    +0.044 C 
ATOM     19  C   UNL     1       6.568  -0.368  26.418  0.00  0.00    +0.049 A 
ENDBRANCH  11  12
ENDBRANCH   9  11
BRANCH  10  20
ATOM     20  C   UNL     1       8.307  -3.392  23.862  0.00  0.00    +0.110 C 
BRANCH  20  21
ATOM     21  S   UNL     1       9.869  -2.477  23.809  0.00  0.00    -0.148 S 
BRANCH  21  22
ATOM     22  C   UNL     1       9.624  -1.335  22.405  0.00  0.00    +0.143 C 
BRANCH  22  23
ATOM     23  C   UNL     1       9.963   0.041  22.871  0.00  0.00    +0.115 A 
ATOM     24  O   UNL     1      10.005   1.033  21.931  0.00  0.00    -0.467 OA
ATOM     25  C   UNL     1      10.226   2.199  22.594  0.00  0.00    +0.195 A 
ATOM     26  C   UNL     1      10.346   1.971  23.945  0.00  0.00    +0.041 A 
ATOM     27  C   UNL     1      10.198   0.577  24.124  0.00  0.00    +0.045 A 
ENDBRANCH  22  23
ENDBRANCH  21  22
ENDBRANCH  20  21
ENDBRANCH  10  20
TORSDOF 6
ENDMDL
MODEL 4
REMARK VINA RESULT:      -5.8      2.588      3.987
REMARK  Name = 
REMARK  9 active torsions:
REMARK  status: ('A' for Active; 'I' for Inactive)
REMARK    1  A    between atoms: C_1  and  C_2
REMARK    2  A    between atoms: C_3  and  C_4
REMARK    3  A    between atoms: C_4  and  S_5
REMARK    4  A    between atoms: S_5  and  C_6
REMARK    5  A    between atoms: C_6  and  C_7
REMARK    6  A    between atoms: C_12  and  O_13
REMARK    7  A    between atoms: O_13  and  C_14
REMARK    8  A    between atoms: C_16  and  C_17
REMARK    9  A    between atoms: C_19  and  C_20
REMARK                            x       y       z     vdW  Elec       q    Type
REMARK                         _______ _______ _______ _____ _____    ______ ____
ROOT
ATOM      1  C   UNL     1       9.849   1.112  21.866  0.00  0.00    +0.064 C 
ATOM      2  C   UNL     1       8.591   0.920  22.682  0.00  0.00    +0.023 A 
ATOM      3  N   UNL     1       7.619   1.828  22.352  0.00  0.00    -0.325 N 
ATOM      4  H   UNL     1       7.745   2.456  21.564  0.00  0.00    +0.169 HD
ATOM      5  C   UNL     1       6.449   2.022  23.032  0.00  0.00    +0.266 A 
ATOM      6  O   UNL     1       5.630   2.832  22.617  0.00  0.00    -0.267 OA
ATOM      7  C   UNL     1       6.276   1.225  24.280  0.00  0.00    +0.120 A 
ATOM      8  I   UNL     1       4.819   1.925  25.590  0.00  0.00    -0.034 I 
ATOM      9  C   UNL     1       7.131   0.202  24.514  0.00  0.00    +0.152 A 
ATOM     10  C   UNL     1       8.370   0.039  23.689  0.00  0.00    +0.025 A 
ENDROOT
BRANCH   9  11
ATOM     11  O   UNL     1       7.109  -0.579  25.667  0.00  0.00    -0.454 OA
BRANCH  11  12
ATOM     12  C   UNL     1       6.454  -1.797  25.735  0.00  0.00    +0.129 A 
ATOM     13  C   UNL     1       7.174  -2.807  26.387  0.00  0.00    +0.049 A 
ATOM     14  C   UNL     1       6.646  -4.096  26.532  0.00  0.00    -0.047 A 
ATOM     15  C   UNL     1       7.465  -5.190  27.150  0.00  0.00    +0.044 C 
ATOM     16  C   UNL     1       5.357  -4.358  26.060  0.00  0.00    +0.007 A 
ATOM     17  C   UNL     1       4.612  -3.357  25.426  0.00  0.00    -0.047 A 
ATOM     18  C   UNL     1       3.201  -3.659  25.010  0.00  0.00    +0.044 C 
ATOM     19  C   UNL     1       5.187  -2.089  25.219  0.00  0.00    +0.049 A 
ENDBRANCH  11  12
ENDBRANCH   9  11
BRANCH  10  20
ATOM     20  C   UNL     1       9.440  -0.948  24.132  0.00  0.00    +0.110 C 
BRANCH  20  21
ATOM     21  S   UNL     1       9.370  -2.623  23.448  0.00  0.00    -0.148 S 
BRANCH  21  22
ATOM     22  C   UNL     1       7.908  -2.556  22.354  0.00  0.00    +0.143 C 
BRANCH  22  23
ATOM     23  C   UNL     1       7.141  -3.822  22.539  0.00  0.00    +0.115 A 
ATOM     24  O   UNL     1       5.846  -3.843  22.101  0.00  0.00    -0.467 OA
ATOM     25  C   UNL     1       5.390  -5.112  22.276  0.00  0.00    +0.195 A 
ATOM     26  C   UNL     1       6.364  -5.903  22.838  0.00  0.00    +0.041 A 
ATOM     27  C   UNL     1       7.488  -5.067  23.029  0.00  0.00    +0.045 A 
ENDBRANCH  22  23
ENDBRANCH  21  22
ENDBRANCH  20  21
ENDBRANCH  10  20
TORSDOF 6
ENDMDL
MODEL 5
REMARK VINA RESULT:      -5.7      2.640      4.291
REMARK  Name = 
REMARK  9 active torsions:
REMARK  status: ('A' for Active; 'I' for Inactive)
REMARK    1  A    between atoms: C_1  and  C_2
REMARK    2  A    between atoms: C_3  and  C_4
REMARK    3  A    between atoms: C_4  and  S_5
REMARK    4  A    between atoms: S_5  and  C_6
REMARK    5  A    between atoms: C_6  and  C_7
REMARK    6  A    between atoms: C_12  and  O_13
REMARK    7  A    between atoms: O_13  and  C_14
REMARK    8  A    between atoms: C_16  and  C_17
REMARK    9  A    between atoms: C_19  and  C_20
REMARK                            x       y       z     vdW  Elec       q    Type
REMARK                         _______ _______ _______ _____ _____    ______ ____
ROOT
ATOM      1  C   UNL     1      10.110   1.842  21.887  0.00  0.00    +0.064 C 
ATOM      2  C   UNL     1       9.185   1.638  23.064  0.00  0.00    +0.023 A 
ATOM      3  N   UNL     1       8.312   2.683  23.221  0.00  0.00    -0.325 N 
ATOM      4  H   UNL     1       8.262   3.422  22.528  0.00  0.00    +0.169 HD
ATOM      5  C   UNL     1       7.482   2.871  24.291  0.00  0.00    +0.266 A 
ATOM      6  O   UNL     1       6.708   3.820  24.302  0.00  0.00    -0.267 OA
ATOM      7  C   UNL     1       7.617   1.890  25.405  0.00  0.00    +0.120 A 
ATOM      8  I   UNL     1       6.810   2.493  27.226  0.00  0.00    -0.034 I 
ATOM      9  C   UNL     1       8.331   0.761  25.187  0.00  0.00    +0.152 A 
ATOM     10  C   UNL     1       9.181   0.622  23.962  0.00  0.00    +0.025 A 
ENDROOT
BRANCH   9  11
ATOM     11  O   UNL     1       8.576  -0.203  26.162  0.00  0.00    -0.454 OA
BRANCH  11  12
ATOM     12  C   UNL     1       7.909  -1.415  26.201  0.00  0.00    +0.129 A 
ATOM     13  C   UNL     1       6.517  -1.316  26.069  0.00  0.00    +0.049 A 
ATOM     14  C   UNL     1       5.703  -2.456  26.095  0.00  0.00    -0.047 A 
ATOM     15  C   UNL     1       4.210  -2.327  26.044  0.00  0.00    +0.044 C 
ATOM     16  C   UNL     1       6.302  -3.714  26.202  0.00  0.00    +0.007 A 
ATOM     17  C   UNL     1       7.692  -3.837  26.312  0.00  0.00    -0.047 A 
ATOM     18  C   UNL     1       8.297  -5.210  26.340  0.00  0.00    +0.044 C 
ATOM     19  C   UNL     1       8.489  -2.678  26.364  0.00  0.00    +0.049 A 
ENDBRANCH  11  12
ENDBRANCH   9  11
BRANCH  10  20
ATOM     20  C   UNL     1      10.170  -0.530  23.865  0.00  0.00    +0.110 C 
BRANCH  20  21
ATOM     21  S   UNL     1       9.685  -1.972  22.884  0.00  0.00    -0.148 S 
BRANCH  21  22
ATOM     22  C   UNL     1       7.923  -1.647  22.526  0.00  0.00    +0.143 C 
BRANCH  22  23
ATOM     23  C   UNL     1       7.206  -2.955  22.538  0.00  0.00    +0.115 A 
ATOM     24  O   UNL     1       7.959  -4.084  22.707  0.00  0.00    -0.467 OA
ATOM     25  C   UNL     1       7.093  -5.129  22.789  0.00  0.00    +0.195 A 
ATOM     26  C   UNL     1       5.795  -4.693  22.656  0.00  0.00    +0.041 A 
ATOM     27  C   UNL     1       5.867  -3.294  22.472  0.00  0.00    +0.045 A 
ENDBRANCH  22  23
ENDBRANCH  21  22
ENDBRANCH  20  21
ENDBRANCH  10  20
TORSDOF 6
ENDMDL
MODEL 6
REMARK VINA RESULT:      -5.5      3.273      7.030
REMARK  Name = 
REMARK  9 active torsions:
REMARK  status: ('A' for Active; 'I' for Inactive)
REMARK    1  A    between atoms: C_1  and  C_2
REMARK    2  A    between atoms: C_3  and  C_4
REMARK    3  A    between atoms: C_4  and  S_5
REMARK    4  A    between atoms: S_5  and  C_6
REMARK    5  A    between atoms: C_6  and  C_7
REMARK    6  A    between atoms: C_12  and  O_13
REMARK    7  A    between atoms: O_13  and  C_14
REMARK    8  A    between atoms: C_16  and  C_17
REMARK    9  A    between atoms: C_19  and  C_20
REMARK                            x       y       z     vdW  Elec       q    Type
REMARK                         _______ _______ _______ _____ _____    ______ ____
ROOT
ATOM      1  C   UNL     1       5.996  -5.726  21.337  0.00  0.00    +0.064 C 
ATOM      2  C   UNL     1       6.016  -5.901  22.838  0.00  0.00    +0.023 A 
ATOM      3  N   UNL     1       4.998  -6.708  23.277  0.00  0.00    -0.325 N 
ATOM      4  H   UNL     1       4.403  -7.194  22.614  0.00  0.00    +0.169 HD
ATOM      5  C   UNL     1       4.649  -6.906  24.584  0.00  0.00    +0.266 A 
ATOM      6  O   UNL     1       3.748  -7.688  24.862  0.00  0.00    -0.267 OA
ATOM      7  C   UNL     1       5.400  -6.105  25.592  0.00  0.00    +0.120 A 
ATOM      8  I   UNL     1       4.503  -5.963  27.464  0.00  0.00    -0.034 I 
ATOM      9  C   UNL     1       6.519  -5.455  25.194  0.00  0.00    +0.152 A 
ATOM     10  C   UNL     1       6.848  -5.322  23.739  0.00  0.00    +0.025 A 
ENDROOT
BRANCH   9  11
ATOM     11  O   UNL     1       7.274  -4.630  26.025  0.00  0.00    -0.454 OA
BRANCH  11  12
ATOM     12  C   UNL     1       7.044  -3.270  26.140  0.00  0.00    +0.129 A 
ATOM     13  C   UNL     1       8.173  -2.471  25.914  0.00  0.00    +0.049 A 
ATOM     14  C   UNL     1       8.101  -1.074  25.999  0.00  0.00    -0.047 A 
ATOM     15  C   UNL     1       9.337  -0.237  25.846  0.00  0.00    +0.044 C 
ATOM     16  C   UNL     1       6.868  -0.473  26.263  0.00  0.00    +0.007 A 
ATOM     17  C   UNL     1       5.723  -1.253  26.468  0.00  0.00    -0.047 A 
ATOM     18  C   UNL     1       4.405  -0.563  26.665  0.00  0.00    +0.044 C 
ATOM     19  C   UNL     1       5.828  -2.656  26.458  0.00  0.00    +0.049 A 
ENDBRANCH  11  12
ENDBRANCH   9  11
BRANCH  10  20
ATOM     20  C   UNL     1       7.955  -4.373  23.306  0.00  0.00    +0.110 C 
BRANCH  20  21
ATOM     21  S   UNL     1       7.471  -2.860  22.438  0.00  0.00    -0.148 S 
BRANCH  21  22
ATOM     22  C   UNL     1       9.046  -1.941  22.312  0.00  0.00    +0.143 C 
BRANCH  22  23
ATOM     23  C   UNL     1       8.718  -0.496  22.143  0.00  0.00    +0.115 A 
ATOM     24  O   UNL     1       7.542  -0.050  22.680  0.00  0.00    -0.467 OA
ATOM     25  C   UNL     1       7.509   1.297  22.497  0.00  0.00    +0.195 A 
ATOM     26  C   UNL     1       8.636   1.723  21.834  0.00  0.00    +0.041 A 
ATOM     27  C   UNL     1       9.407   0.564  21.585  0.00  0.00    +0.045 A 
ENDBRANCH  22  23
ENDBRANCH  21  22
ENDBRANCH  20  21
ENDBRANCH  10  20
TORSDOF 6
ENDMDL
MODEL 7
REMARK VINA RESULT:      -5.4      3.268      6.784
REMARK  Name = 
REMARK  9 active torsions:
REMARK  status: ('A' for Active; 'I' for Inactive)
REMARK    1  A    between atoms: C_1  and  C_2
REMARK    2  A    between atoms: C_3  and  C_4
REMARK    3  A    between atoms: C_4  and  S_5
REMARK    4  A    between atoms: S_5  and  C_6
REMARK    5  A    between atoms: C_6  and  C_7
REMARK    6  A    between atoms: C_12  and  O_13
REMARK    7  A    between atoms: O_13  and  C_14
REMARK    8  A    between atoms: C_16  and  C_17
REMARK    9  A    between atoms: C_19  and  C_20
REMARK                            x       y       z     vdW  Elec       q    Type
REMARK                         _______ _______ _______ _____ _____    ______ ____
ROOT
ATOM      1  C   UNL     1       9.962  -4.707  25.135  0.00  0.00    +0.064 C 
ATOM      2  C   UNL     1       8.493  -4.848  25.462  0.00  0.00    +0.023 A 
ATOM      3  N   UNL     1       8.290  -5.294  26.743  0.00  0.00    -0.325 N 
ATOM      4  H   UNL     1       9.070  -5.391  27.385  0.00  0.00    +0.169 HD
ATOM      5  C   UNL     1       7.090  -5.688  27.266  0.00  0.00    +0.266 A 
ATOM      6  O   UNL     1       7.019  -6.026  28.441  0.00  0.00    -0.267 OA
ATOM      7  C   UNL     1       5.936  -5.701  26.322  0.00  0.00    +0.120 A 
ATOM      8  I   UNL     1       4.296  -6.826  26.935  0.00  0.00    -0.034 I 
ATOM      9  C   UNL     1       6.079  -5.092  25.122  0.00  0.00    +0.152 A 
ATOM     10  C   UNL     1       7.429  -4.653  24.645  0.00  0.00    +0.025 A 
ENDROOT
BRANCH   9  11
ATOM     11  O   UNL     1       5.097  -5.085  24.134  0.00  0.00    -0.454 OA
BRANCH  11  12
ATOM     12  C   UNL     1       3.807  -4.637  24.363  0.00  0.00    +0.129 A 
ATOM     13  C   UNL     1       2.824  -5.285  23.602  0.00  0.00    +0.049 A 
ATOM     14  C   UNL     1       1.472  -4.939  23.718  0.00  0.00    -0.047 A 
ATOM     15  C   UNL     1       0.443  -5.578  22.832  0.00  0.00    +0.044 C 
ATOM     16  C   UNL     1       1.098  -3.965  24.648  0.00  0.00    +0.007 A 
ATOM     17  C   UNL     1       2.062  -3.322  25.434  0.00  0.00    -0.047 A 
ATOM     18  C   UNL     1       1.607  -2.344  26.478  0.00  0.00    +0.044 C 
ATOM     19  C   UNL     1       3.423  -3.625  25.250  0.00  0.00    +0.049 A 
ENDBRANCH  11  12
ENDBRANCH   9  11
BRANCH  10  20
ATOM     20  C   UNL     1       7.606  -4.215  23.199  0.00  0.00    +0.110 C 
BRANCH  20  21
ATOM     21  S   UNL     1       7.328  -2.468  22.811  0.00  0.00    -0.148 S 
BRANCH  21  22
ATOM     22  C   UNL     1       8.978  -1.906  22.262  0.00  0.00    +0.143 C 
BRANCH  22  23
ATOM     23  C   UNL     1       9.562  -1.071  23.352  0.00  0.00    +0.115 A 
ATOM     24  O   UNL     1      10.462  -0.107  22.992  0.00  0.00    -0.467 OA
ATOM     25  C   UNL     1      10.773   0.585  24.121  0.00  0.00    +0.195 A 
ATOM     26  C   UNL     1      10.101   0.070  25.204  0.00  0.00    +0.041 A 
ATOM     27  C   UNL     1       9.336  -1.013  24.714  0.00  0.00    +0.045 A 
ENDBRANCH  22  23
ENDBRANCH  21  22
ENDBRANCH  20  21
ENDBRANCH  10  20
TORSDOF 6
ENDMDL
MODEL 8
REMARK VINA RESULT:      -5.3      2.342      5.209
REMARK  Name = 
REMARK  9 active torsions:
REMARK  status: ('A' for Active; 'I' for Inactive)
REMARK    1  A    between atoms: C_1  and  C_2
REMARK    2  A    between atoms: C_3  and  C_4
REMARK    3  A    between atoms: C_4  and  S_5
REMARK    4  A    between atoms: S_5  and  C_6
REMARK    5  A    between atoms: C_6  and  C_7
REMARK    6  A    between atoms: C_12  and  O_13
REMARK    7  A    between atoms: O_13  and  C_14
REMARK    8  A    between atoms: C_16  and  C_17
REMARK    9  A    between atoms: C_19  and  C_20
REMARK                            x       y       z     vdW  Elec       q    Type
REMARK                         _______ _______ _______ _____ _____    ______ ____
ROOT
ATOM      1  C   UNL     1       6.448  -5.457  27.453  0.00  0.00    +0.064 C 
ATOM      2  C   UNL     1       6.978  -4.764  26.219  0.00  0.00    +0.023 A 
ATOM      3  N   UNL     1       8.298  -5.058  25.991  0.00  0.00    -0.325 N 
ATOM      4  H   UNL     1       8.776  -5.756  26.551  0.00  0.00    +0.169 HD
ATOM      5  C   UNL     1       9.098  -4.449  25.064  0.00  0.00    +0.266 A 
ATOM      6  O   UNL     1      10.254  -4.827  24.916  0.00  0.00    -0.267 OA
ATOM      7  C   UNL     1       8.485  -3.318  24.311  0.00  0.00    +0.120 A 
ATOM      8  I   UNL     1       9.832  -2.048  23.360  0.00  0.00    -0.034 I 
ATOM      9  C   UNL     1       7.146  -3.142  24.391  0.00  0.00    +0.152 A 
ATOM     10  C   UNL     1       6.338  -3.885  25.409  0.00  0.00    +0.025 A 
ENDROOT
BRANCH   9  11
ATOM     11  O   UNL     1       6.464  -2.092  23.780  0.00  0.00    -0.454 OA
BRANCH  11  12
ATOM     12  C   UNL     1       6.697  -0.764  24.095  0.00  0.00    +0.129 A 
ATOM     13  C   UNL     1       6.818   0.082  22.985  0.00  0.00    +0.049 A 
ATOM     14  C   UNL     1       7.061   1.453  23.141  0.00  0.00    -0.047 A 
ATOM     15  C   UNL     1       7.280   2.330  21.943  0.00  0.00    +0.044 C 
ATOM     16  C   UNL     1       7.130   1.987  24.430  0.00  0.00    +0.007 A 
ATOM     17  C   UNL     1       6.987   1.163  25.553  0.00  0.00    -0.047 A 
ATOM     18  C   UNL     1       6.985   1.791  26.916  0.00  0.00    +0.044 C 
ATOM     19  C   UNL     1       6.823  -0.224  25.380  0.00  0.00    +0.049 A 
ENDBRANCH  11  12
ENDBRANCH   9  11
BRANCH  10  20
ATOM     20  C   UNL     1       4.892  -3.483  25.657  0.00  0.00    +0.110 C 
BRANCH  20  21
ATOM     21  S   UNL     1       3.648  -4.048  24.469  0.00  0.00    -0.148 S 
BRANCH  21  22
ATOM     22  C   UNL     1       4.207  -5.740  24.068  0.00  0.00    +0.143 C 
BRANCH  22  23
ATOM     23  C   UNL     1       5.178  -5.644  22.939  0.00  0.00    +0.115 A 
ATOM     24  O   UNL     1       5.023  -4.607  22.062  0.00  0.00    -0.467 OA
ATOM     25  C   UNL     1       6.068  -4.663  21.194  0.00  0.00    +0.195 A 
ATOM     26  C   UNL     1       6.882  -5.732  21.485  0.00  0.00    +0.041 A 
ATOM     27  C   UNL     1       6.297  -6.379  22.598  0.00  0.00    +0.045 A 
ENDBRANCH  22  23
ENDBRANCH  21  22
ENDBRANCH  20  21
ENDBRANCH  10  20
TORSDOF 6
ENDMDL
MODEL 9
REMARK VINA RESULT:      -5.3      2.345      5.357
REMARK  Name = 
REMARK  9 active torsions:
REMARK  status: ('A' for Active; 'I' for Inactive)
REMARK    1  A    between atoms: C_1  and  C_2
REMARK    2  A    between atoms: C_3  and  C_4
REMARK    3  A    between atoms: C_4  and  S_5
REMARK    4  A    between atoms: S_5  and  C_6
REMARK    5  A    between atoms: C_6  and  C_7
REMARK    6  A    between atoms: C_12  and  O_13
REMARK    7  A    between atoms: O_13  and  C_14
REMARK    8  A    between atoms: C_16  and  C_17
REMARK    9  A    between atoms: C_19  and  C_20
REMARK                            x       y       z     vdW  Elec       q    Type
REMARK                         _______ _______ _______ _____ _____    ______ ____
ROOT
ATOM      1  C   UNL     1       8.706  -3.979  25.801  0.00  0.00    +0.064 C 
ATOM      2  C   UNL     1       8.530  -2.966  24.692  0.00  0.00    +0.023 A 
ATOM      3  N   UNL     1       9.680  -2.794  23.965  0.00  0.00    -0.325 N 
ATOM      4  H   UNL     1      10.486  -3.388  24.126  0.00  0.00    +0.169 HD
ATOM      5  C   UNL     1       9.885  -1.825  23.022  0.00  0.00    +0.266 A 
ATOM      6  O   UNL     1      10.939  -1.795  22.399  0.00  0.00    -0.267 OA
ATOM      7  C   UNL     1       8.783  -0.836  22.847  0.00  0.00    +0.120 A 
ATOM      8  I   UNL     1       9.314   0.926  21.875  0.00  0.00    -0.034 I 
ATOM      9  C   UNL     1       7.584  -1.101  23.415  0.00  0.00    +0.152 A 
ATOM     10  C   UNL     1       7.439  -2.213  24.409  0.00  0.00    +0.025 A 
ENDROOT
BRANCH   9  11
ATOM     11  O   UNL     1       6.496  -0.232  23.372  0.00  0.00    -0.454 OA
BRANCH  11  12
ATOM     12  C   UNL     1       6.490   0.993  24.016  0.00  0.00    +0.129 A 
ATOM     13  C   UNL     1       6.026   2.058  23.231  0.00  0.00    +0.049 A 
ATOM     14  C   UNL     1       5.966   3.362  23.740  0.00  0.00    -0.047 A 
ATOM     15  C   UNL     1       5.553   4.505  22.861  0.00  0.00    +0.044 C 
ATOM     16  C   UNL     1       6.328   3.587  25.071  0.00  0.00    +0.007 A 
ATOM     17  C   UNL     1       6.772   2.534  25.879  0.00  0.00    -0.047 A 
ATOM     18  C   UNL     1       7.071   2.807  27.324  0.00  0.00    +0.044 C 
ATOM     19  C   UNL     1       6.902   1.245  25.329  0.00  0.00    +0.049 A 
ENDBRANCH  11  12
ENDBRANCH   9  11
BRANCH  10  20
ATOM     20  C   UNL     1       6.160  -2.326  25.225  0.00  0.00    +0.110 C 
BRANCH  20  21
ATOM     21  S   UNL     1       4.755  -3.180  24.468  0.00  0.00    -0.148 S 
BRANCH  21  22
ATOM     22  C   UNL     1       5.253  -4.936  24.551  0.00  0.00    +0.143 C 
BRANCH  22  23
ATOM     23  C   UNL     1       5.894  -5.290  23.250  0.00  0.00    +0.115 A 
ATOM     24  O   UNL     1       5.193  -5.017  22.109  0.00  0.00    -0.467 OA
ATOM     25  C   UNL     1       6.006  -5.323  21.062  0.00  0.00    +0.195 A 
ATOM     26  C   UNL     1       7.212  -5.806  21.512  0.00  0.00    +0.041 A 
ATOM     27  C   UNL     1       7.134  -5.806  22.924  0.00  0.00    +0.045 A 
ENDBRANCH  22  23
ENDBRANCH  21  22
ENDBRANCH  20  21
ENDBRANCH  10  20
TORSDOF 6
ENDMDL
