MODEL 1
REMARK VINA RESULT:      -7.6      0.000      0.000
REMARK  Name = 
REMARK  14 active torsions:
REMARK  status: ('A' for Active; 'I' for Inactive)
REMARK    1  A    between atoms: C_5  and  S_6
REMARK    2  A    between atoms: S_6  and  C_7
REMARK    3  A    between atoms: C_9  and  C_12
REMARK    4  A    between atoms: N_15  and  C_16
REMARK    5  A    between atoms: CA_19  and  C_43
REMARK    6  A    between atoms: CA_23  and  N_25
REMARK    7  A    between atoms: C_26  and  C_28
REMARK    8  A    between atoms: C_28  and  C_33
REMARK    9  A    between atoms: N_29  and  O_30
REMARK   10  A    between atoms: O_30  and  C_31
REMARK   11  A    between atoms: C_31  and  C_32
REMARK   12  A    between atoms: N_37  and  P_38
REMARK   13  A    between atoms: P_38  and  O_39
REMARK   14  A    between atoms: P_38  and  O_40
REMARK                            x       y       z     vdW  Elec       q    Type
REMARK                         _______ _______ _______ _____ _____    ______ ____
ROOT
ATOM      1  C   UNL     1       5.569  -2.535  23.902  0.00  0.00    +0.168 C 
ATOM      2  CA  UNL     1       5.130  -3.887  23.259  0.00  0.00    +0.191 C 
ATOM      3  C   UNL     1       6.658  -4.198  23.228  0.00  0.00    +0.244 C 
ATOM      4  O   UNL     1       7.322  -5.143  22.862  0.00  0.00    -0.273 OA
ATOM      5  N   UNL     1       6.907  -3.072  23.931  0.00  0.00    -0.253 N 
ATOM      6  CA  UNL     1       7.993  -2.432  24.467  0.00  0.00    +0.070 C 
ATOM      7  C   UNL     1       7.791  -1.481  25.417  0.00  0.00    +0.025 C 
ATOM      8  C   UNL     1       6.423  -1.144  26.009  0.00  0.00    +0.115 C 
ATOM      9  S   UNL     1       5.035  -2.241  25.602  0.00  0.00    -0.130 S 
ENDROOT
BRANCH   2  10
ATOM     10  N   UNL     1       4.324  -4.827  24.097  0.00  0.00    -0.296 N 
ATOM     11  H   UNL     1       4.349  -4.747  25.110  0.00  0.00    +0.150 HD
ATOM     12  C   UNL     1       3.520  -5.801  23.549  0.00  0.00    +0.270 C 
ATOM     13  O   UNL     1       3.466  -6.052  22.355  0.00  0.00    -0.268 OA
BRANCH  12  14
ATOM     14  C   UNL     1       2.679  -6.593  24.556  0.00  0.00    +0.208 C 
ATOM     15  N   UNL     1       2.079  -7.667  24.117  0.00  0.00    -0.076 NA
BRANCH  14  16
ATOM     16  C   UNL     1       2.608  -6.110  25.942  0.00  0.00    +0.197 A 
ATOM     17  N   UNL     1       3.587  -6.439  26.905  0.00  0.00    -0.202 NA
ATOM     18  C   UNL     1       3.263  -5.901  28.056  0.00  0.00    +0.187 A 
ATOM     19  N   UNL     1       3.932  -6.029  29.213  0.00  0.00    -0.230 N 
ATOM     20  H   UNL     1       3.598  -5.443  29.962  0.00  0.00    +0.160 HD
ATOM     21  S   UNL     1       1.788  -5.023  27.950  0.00  0.00    +0.050 S 
ATOM     22  N   UNL     1       1.589  -5.333  26.334  0.00  0.00    -0.185 NA
BRANCH  19  23
ATOM     23  P   UNL     1       5.540  -6.208  29.153  0.00  0.00    +0.423 P 
ATOM     24  O   UNL     1       6.341  -6.070  30.407  0.00  0.00    -0.237 OA
BRANCH  23  25
ATOM     25  O   UNL     1       6.134  -5.350  27.943  0.00  0.00    -0.310 OA
ATOM     26  H   UNL     1       6.614  -5.919  27.304  0.00  0.00    +0.221 HD
ENDBRANCH  23  25
BRANCH  23  27
ATOM     27  O   UNL     1       5.696  -7.684  28.546  0.00  0.00    -0.310 OA
ATOM     28  H   UNL     1       4.936  -8.253  28.745  0.00  0.00    +0.221 HD
ENDBRANCH  23  27
ENDBRANCH  19  23
ENDBRANCH  14  16
BRANCH  15  29
ATOM     29  O   UNL     1       1.388  -8.340  25.138  0.00  0.00    -0.393 OA
BRANCH  29  30
ATOM     30  C   UNL     1       0.833  -9.557  24.641  0.00  0.00    +0.259 C 
ATOM     31  C   UNL     1       0.981 -10.610  25.725  0.00  0.00    +0.051 C 
ENDBRANCH  29  30
ENDBRANCH  15  29
ENDBRANCH  12  14
ENDBRANCH   2  10
BRANCH   6  32
ATOM     32  C   UNL     1       9.417  -2.861  23.931  0.00  0.00    +0.087 C 
ATOM     33  OXT UNL     1       9.878  -2.218  22.949  0.00  0.00    -0.543 OA
ATOM     34  O   UNL     1       9.922  -3.852  24.551  0.00  0.00    -0.543 OA
ENDBRANCH   6  32
BRANCH   7  35
ATOM     35  S   UNL     1       9.075  -0.649  26.291  0.00  0.00    -0.064 S 
BRANCH  35  36
ATOM     36  C   UNL     1       9.496   0.692  25.250  0.00  0.00    +0.140 A 
ATOM     37  S   UNL     1      10.946   0.622  24.318  0.00  0.00    -0.068 S 
ATOM     38  C   UNL     1      10.485   2.057  23.506  0.00  0.00    +0.076 A 
ATOM     39  C   UNL     1       9.279   2.506  24.002  0.00  0.00    +0.080 A 
ATOM     40  N   UNL     1       8.774   1.774  25.061  0.00  0.00    -0.232 NA
BRANCH  39  41
ATOM     41  C   UNL     1       8.566   3.662  23.480  0.00  0.00    +0.012 A 
ATOM     42  C   UNL     1       9.010   4.947  23.785  0.00  0.00    +0.080 A 
ATOM     43  C   UNL     1       8.386   6.053  23.226  0.00  0.00    +0.309 A 
ATOM     44  N   UNL     1       7.330   5.893  22.395  0.00  0.00    -0.206 N 
ATOM     45  C   UNL     1       6.728   7.075  21.762  0.00  0.00    +0.438 C 
ATOM     46  C   UNL     1       6.850   4.660  22.125  0.00  0.00    +0.309 A 
ATOM     47  C   UNL     1       7.452   3.526  22.656  0.00  0.00    +0.080 A 
ENDBRANCH  39  41
ENDBRANCH  35  36
ENDBRANCH   7  35
TORSDOF 12
ENDMDL
MODEL 2
REMARK VINA RESULT:      -7.0      3.605      8.890
REMARK  Name = 
REMARK  14 active torsions:
REMARK  status: ('A' for Active; 'I' for Inactive)
REMARK    1  A    between atoms: C_5  and  S_6
REMARK    2  A    between atoms: S_6  and  C_7
REMARK    3  A    between atoms: C_9  and  C_12
REMARK    4  A    between atoms: N_15  and  C_16
REMARK    5  A    between atoms: CA_19  and  C_43
REMARK    6  A    between atoms: CA_23  and  N_25
REMARK    7  A    between atoms: C_26  and  C_28
REMARK    8  A    between atoms: C_28  and  C_33
REMARK    9  A    between atoms: N_29  and  O_30
REMARK   10  A    between atoms: O_30  and  C_31
REMARK   11  A    between atoms: C_31  and  C_32
REMARK   12  A    between atoms: N_37  and  P_38
REMARK   13  A    between atoms: P_38  and  O_39
REMARK   14  A    between atoms: P_38  and  O_40
REMARK                            x       y       z     vdW  Elec       q    Type
REMARK                         _______ _______ _______ _____ _____    ______ ____
ROOT
ATOM      1  C   UNL     1       7.583  -4.571  23.681  0.00  0.00    +0.168 C 
ATOM      2  CA  UNL     1       7.722  -3.357  22.712  0.00  0.00    +0.191 C 
ATOM      3  C   UNL     1       6.188  -3.537  22.505  0.00  0.00    +0.244 C 
ATOM      4  O   UNL     1       5.349  -2.959  21.848  0.00  0.00    -0.273 OA
ATOM      5  N   UNL     1       6.160  -4.472  23.479  0.00  0.00    -0.253 N 
ATOM      6  CA  UNL     1       5.225  -5.252  24.107  0.00  0.00    +0.070 C 
ATOM      7  C   UNL     1       5.545  -5.829  25.296  0.00  0.00    +0.025 C 
ATOM      8  C   UNL     1       6.857  -5.580  26.039  0.00  0.00    +0.115 C 
ATOM      9  S   UNL     1       7.935  -4.256  25.425  0.00  0.00    -0.130 S 
ENDROOT
BRANCH   2  10
ATOM     10  N   UNL     1       8.116  -2.040  23.300  0.00  0.00    -0.296 N 
ATOM     11  H   UNL     1       7.447  -1.515  23.856  0.00  0.00    +0.150 HD
ATOM     12  C   UNL     1       9.374  -1.504  23.135  0.00  0.00    +0.270 C 
ATOM     13  O   UNL     1      10.239  -1.993  22.424  0.00  0.00    -0.268 OA
BRANCH  12  14
ATOM     14  C   UNL     1       9.634  -0.204  23.905  0.00  0.00    +0.208 C 
ATOM     15  N   UNL     1      10.620   0.547  23.490  0.00  0.00    -0.076 NA
BRANCH  14  16
ATOM     16  C   UNL     1       8.762   0.123  25.041  0.00  0.00    +0.197 A 
ATOM     17  N   UNL     1       7.759   1.114  24.959  0.00  0.00    -0.202 NA
ATOM     18  C   UNL     1       7.154   1.218  26.118  0.00  0.00    +0.187 A 
ATOM     19  N   UNL     1       6.176   2.081  26.434  0.00  0.00    -0.230 N 
ATOM     20  H   UNL     1       5.751   1.928  27.335  0.00  0.00    +0.160 HD
ATOM     21  S   UNL     1       7.812   0.126  27.273  0.00  0.00    +0.050 S 
ATOM     22  N   UNL     1       8.902  -0.523  26.206  0.00  0.00    -0.185 NA
BRANCH  19  23
ATOM     23  P   UNL     1       5.153   2.540  25.266  0.00  0.00    +0.423 P 
ATOM     24  O   UNL     1       3.872   3.216  25.636  0.00  0.00    -0.237 OA
BRANCH  23  25
ATOM     25  O   UNL     1       4.941   1.339  24.232  0.00  0.00    -0.310 OA
ATOM     26  H   UNL     1       3.987   1.153  24.093  0.00  0.00    +0.221 HD
ENDBRANCH  23  25
BRANCH  23  27
ATOM     27  O   UNL     1       6.065   3.512  24.375  0.00  0.00    -0.310 OA
ATOM     28  H   UNL     1       5.677   4.395  24.269  0.00  0.00    +0.221 HD
ENDBRANCH  23  27
ENDBRANCH  19  23
ENDBRANCH  14  16
BRANCH  15  29
ATOM     29  O   UNL     1      10.726   1.734  24.233  0.00  0.00    -0.393 OA
BRANCH  29  30
ATOM     30  C   UNL     1      10.750   2.863  23.359  0.00  0.00    +0.259 C 
ATOM     31  C   UNL     1       9.713   3.854  23.856  0.00  0.00    +0.051 C 
ENDBRANCH  29  30
ENDBRANCH  15  29
ENDBRANCH  12  14
ENDBRANCH   2  10
BRANCH   6  32
ATOM     32  C   UNL     1       3.827  -5.420  23.388  0.00  0.00    +0.087 C 
ATOM     33  OXT UNL     1       3.770  -6.238  22.430  0.00  0.00    -0.543 OA
ATOM     34  O   UNL     1       2.916  -4.663  23.854  0.00  0.00    -0.543 OA
ENDBRANCH   6  32
BRANCH   7  35
ATOM     35  S   UNL     1       4.428  -6.761  26.289  0.00  0.00    -0.064 S 
BRANCH  35  36
ATOM     36  C   UNL     1       4.077  -5.703  27.637  0.00  0.00    +0.140 A 
ATOM     37  S   UNL     1       3.955  -6.363  29.227  0.00  0.00    -0.068 S 
ATOM     38  C   UNL     1       3.860  -4.780  29.870  0.00  0.00    +0.076 A 
ATOM     39  C   UNL     1       3.906  -3.858  28.845  0.00  0.00    +0.080 A 
ATOM     40  N   UNL     1       3.932  -4.398  27.573  0.00  0.00    -0.232 NA
BRANCH  39  41
ATOM     41  C   UNL     1       3.922  -2.416  29.049  0.00  0.00    +0.012 A 
ATOM     42  C   UNL     1       4.060  -1.563  27.957  0.00  0.00    +0.080 A 
ATOM     43  C   UNL     1       3.993  -0.188  28.133  0.00  0.00    +0.309 A 
ATOM     44  N   UNL     1       3.813   0.334  29.368  0.00  0.00    -0.206 N 
ATOM     45  C   UNL     1       3.680   1.790  29.521  0.00  0.00    +0.438 C 
ATOM     46  C   UNL     1       3.728  -0.472  30.448  0.00  0.00    +0.309 A 
ATOM     47  C   UNL     1       3.779  -1.854  30.315  0.00  0.00    +0.080 A 
ENDBRANCH  39  41
ENDBRANCH  35  36
ENDBRANCH   7  35
TORSDOF 12
ENDMDL
MODEL 3
REMARK VINA RESULT:      -7.0      4.114      7.269
REMARK  Name = 
REMARK  14 active torsions:
REMARK  status: ('A' for Active; 'I' for Inactive)
REMARK    1  A    between atoms: C_5  and  S_6
REMARK    2  A    between atoms: S_6  and  C_7
REMARK    3  A    between atoms: C_9  and  C_12
REMARK    4  A    between atoms: N_15  and  C_16
REMARK    5  A    between atoms: CA_19  and  C_43
REMARK    6  A    between atoms: CA_23  and  N_25
REMARK    7  A    between atoms: C_26  and  C_28
REMARK    8  A    between atoms: C_28  and  C_33
REMARK    9  A    between atoms: N_29  and  O_30
REMARK   10  A    between atoms: O_30  and  C_31
REMARK   11  A    between atoms: C_31  and  C_32
REMARK   12  A    between atoms: N_37  and  P_38
REMARK   13  A    between atoms: P_38  and  O_39
REMARK   14  A    between atoms: P_38  and  O_40
REMARK                            x       y       z     vdW  Elec       q    Type
REMARK                         _______ _______ _______ _____ _____    ______ ____
ROOT
ATOM      1  C   UNL     1       8.465   1.933  21.869  0.00  0.00    +0.168 C 
ATOM      2  CA  UNL     1       9.578   0.929  22.298  0.00  0.00    +0.191 C 
ATOM      3  C   UNL     1      10.013   2.059  23.280  0.00  0.00    +0.244 C 
ATOM      4  O   UNL     1      10.888   2.167  24.112  0.00  0.00    -0.273 OA
ATOM      5  N   UNL     1       8.920   2.778  22.944  0.00  0.00    -0.253 N 
ATOM      6  CA  UNL     1       8.344   3.969  23.300  0.00  0.00    +0.070 C 
ATOM      7  C   UNL     1       7.041   4.188  22.979  0.00  0.00    +0.025 C 
ATOM      8  C   UNL     1       6.134   3.141  22.333  0.00  0.00    +0.115 C 
ATOM      9  S   UNL     1       6.760   1.442  22.213  0.00  0.00    -0.130 S 
ENDROOT
BRANCH   2  10
ATOM     10  N   UNL     1       9.152  -0.340  22.965  0.00  0.00    -0.296 N 
ATOM     11  H   UNL     1       8.318  -0.348  23.547  0.00  0.00    +0.150 HD
ATOM     12  C   UNL     1       9.839  -1.523  22.811  0.00  0.00    +0.270 C 
ATOM     13  O   UNL     1      10.897  -1.627  22.209  0.00  0.00    -0.268 OA
BRANCH  12  14
ATOM     14  C   UNL     1       9.191  -2.743  23.473  0.00  0.00    +0.208 C 
ATOM     15  N   UNL     1       9.983  -3.571  24.101  0.00  0.00    -0.076 NA
BRANCH  14  16
ATOM     16  C   UNL     1       7.733  -2.901  23.377  0.00  0.00    +0.197 A 
ATOM     17  N   UNL     1       6.866  -2.569  24.441  0.00  0.00    -0.202 NA
ATOM     18  C   UNL     1       5.630  -2.834  24.094  0.00  0.00    +0.187 A 
ATOM     19  N   UNL     1       4.538  -2.686  24.861  0.00  0.00    -0.230 N 
ATOM     20  H   UNL     1       3.663  -2.824  24.381  0.00  0.00    +0.160 HD
ATOM     21  S   UNL     1       5.545  -3.480  22.502  0.00  0.00    +0.050 S 
ATOM     22  N   UNL     1       7.180  -3.377  22.252  0.00  0.00    -0.185 NA
BRANCH  19  23
ATOM     23  P   UNL     1       4.531  -1.503  25.966  0.00  0.00    +0.423 P 
ATOM     24  O   UNL     1       3.268  -1.196  26.704  0.00  0.00    -0.237 OA
BRANCH  23  25
ATOM     25  O   UNL     1       5.226  -0.196  25.361  0.00  0.00    -0.310 OA
ATOM     26  H   UNL     1       6.140  -0.387  25.059  0.00  0.00    +0.221 HD
ENDBRANCH  23  25
BRANCH  23  27
ATOM     27  O   UNL     1       5.676  -1.978  26.982  0.00  0.00    -0.310 OA
ATOM     28  H   UNL     1       5.340  -2.572  27.672  0.00  0.00    +0.221 HD
ENDBRANCH  23  27
ENDBRANCH  19  23
ENDBRANCH  14  16
BRANCH  15  29
ATOM     29  O   UNL     1       9.273  -4.616  24.716  0.00  0.00    -0.393 OA
BRANCH  29  30
ATOM     30  C   UNL     1       9.422  -4.548  26.134  0.00  0.00    +0.259 C 
ATOM     31  C   UNL     1       8.133  -5.054  26.758  0.00  0.00    +0.051 C 
ENDBRANCH  29  30
ENDBRANCH  15  29
ENDBRANCH  12  14
ENDBRANCH   2  10
BRANCH   6  32
ATOM     32  C   UNL     1       9.254   5.009  24.068  0.00  0.00    +0.087 C 
ATOM     33  OXT UNL     1      10.023   5.724  23.368  0.00  0.00    -0.543 OA
ATOM     34  O   UNL     1       9.122   4.971  25.333  0.00  0.00    -0.543 OA
ENDBRANCH   6  32
BRANCH   7  35
ATOM     35  S   UNL     1       6.116   5.607  23.462  0.00  0.00    -0.064 S 
BRANCH  35  36
ATOM     36  C   UNL     1       5.664   5.275  25.119  0.00  0.00    +0.140 A 
ATOM     37  S   UNL     1       5.054   6.553  26.106  0.00  0.00    -0.068 S 
ATOM     38  C   UNL     1       4.676   5.417  27.330  0.00  0.00    +0.076 A 
ATOM     39  C   UNL     1       5.051   4.153  26.924  0.00  0.00    +0.080 A 
ATOM     40  N   UNL     1       5.700   4.099  25.704  0.00  0.00    -0.232 NA
BRANCH  39  41
ATOM     41  C   UNL     1       4.803   2.945  27.697  0.00  0.00    +0.012 A 
ATOM     42  C   UNL     1       5.865   2.111  28.040  0.00  0.00    +0.080 A 
ATOM     43  C   UNL     1       5.651   1.002  28.845  0.00  0.00    +0.309 A 
ATOM     44  N   UNL     1       4.407   0.711  29.289  0.00  0.00    -0.206 N 
ATOM     45  C   UNL     1       4.214  -0.430  30.195  0.00  0.00    +0.438 C 
ATOM     46  C   UNL     1       3.353   1.477  28.929  0.00  0.00    +0.309 A 
ATOM     47  C   UNL     1       3.526   2.601  28.131  0.00  0.00    +0.080 A 
ENDBRANCH  39  41
ENDBRANCH  35  36
ENDBRANCH   7  35
TORSDOF 12
ENDMDL
MODEL 4
REMARK VINA RESULT:      -6.9      3.799      7.271
REMARK  Name = 
REMARK  14 active torsions:
REMARK  status: ('A' for Active; 'I' for Inactive)
REMARK    1  A    between atoms: C_5  and  S_6
REMARK    2  A    between atoms: S_6  and  C_7
REMARK    3  A    between atoms: C_9  and  C_12
REMARK    4  A    between atoms: N_15  and  C_16
REMARK    5  A    between atoms: CA_19  and  C_43
REMARK    6  A    between atoms: CA_23  and  N_25
REMARK    7  A    between atoms: C_26  and  C_28
REMARK    8  A    between atoms: C_28  and  C_33
REMARK    9  A    between atoms: N_29  and  O_30
REMARK   10  A    between atoms: O_30  and  C_31
REMARK   11  A    between atoms: C_31  and  C_32
REMARK   12  A    between atoms: N_37  and  P_38
REMARK   13  A    between atoms: P_38  and  O_39
REMARK   14  A    between atoms: P_38  and  O_40
REMARK                            x       y       z     vdW  Elec       q    Type
REMARK                         _______ _______ _______ _____ _____    ______ ____
ROOT
ATOM      1  C   UNL     1       8.664   1.841  21.963  0.00  0.00    +0.168 C 
ATOM      2  CA  UNL     1       9.739   0.827  22.462  0.00  0.00    +0.191 C 
ATOM      3  C   UNL     1      10.193   1.993  23.392  0.00  0.00    +0.244 C 
ATOM      4  O   UNL     1      11.058   2.118  24.232  0.00  0.00    -0.273 OA
ATOM      5  N   UNL     1       9.129   2.727  23.001  0.00  0.00    -0.253 N 
ATOM      6  CA  UNL     1       8.583   3.951  23.285  0.00  0.00    +0.070 C 
ATOM      7  C   UNL     1       7.293   4.192  22.932  0.00  0.00    +0.025 C 
ATOM      8  C   UNL     1       6.365   3.141  22.324  0.00  0.00    +0.115 C 
ATOM      9  S   UNL     1       6.940   1.420  22.302  0.00  0.00    -0.130 S 
ENDROOT
BRANCH   2  10
ATOM     10  N   UNL     1       9.264  -0.392  23.185  0.00  0.00    -0.296 N 
ATOM     11  H   UNL     1       8.464  -0.328  23.809  0.00  0.00    +0.150 HD
ATOM     12  C   UNL     1       9.859  -1.623  23.029  0.00  0.00    +0.270 C 
ATOM     13  O   UNL     1      10.874  -1.815  22.375  0.00  0.00    -0.268 OA
BRANCH  12  14
ATOM     14  C   UNL     1       9.165  -2.779  23.758  0.00  0.00    +0.208 C 
ATOM     15  N   UNL     1       9.910  -3.794  24.110  0.00  0.00    -0.076 NA
BRANCH  14  16
ATOM     16  C   UNL     1       7.725  -2.673  24.027  0.00  0.00    +0.197 A 
ATOM     17  N   UNL     1       6.780  -3.531  23.421  0.00  0.00    -0.202 NA
ATOM     18  C   UNL     1       5.575  -3.198  23.816  0.00  0.00    +0.187 A 
ATOM     19  N   UNL     1       4.422  -3.760  23.420  0.00  0.00    -0.230 N 
ATOM     20  H   UNL     1       3.606  -3.453  23.926  0.00  0.00    +0.160 HD
ATOM     21  S   UNL     1       5.611  -1.862  24.899  0.00  0.00    +0.050 S 
ATOM     22  N   UNL     1       7.264  -1.740  24.871  0.00  0.00    -0.185 NA
BRANCH  19  23
ATOM     23  P   UNL     1       4.431  -5.331  23.029  0.00  0.00    +0.423 P 
ATOM     24  O   UNL     1       3.136  -6.028  22.760  0.00  0.00    -0.237 OA
BRANCH  23  25
ATOM     25  O   UNL     1       5.365  -6.136  24.045  0.00  0.00    -0.310 OA
ATOM     26  H   UNL     1       5.615  -5.580  24.815  0.00  0.00    +0.221 HD
ENDBRANCH  23  25
BRANCH  23  27
ATOM     27  O   UNL     1       5.362  -5.353  21.724  0.00  0.00    -0.310 OA
ATOM     28  H   UNL     1       6.305  -5.265  21.936  0.00  0.00    +0.221 HD
ENDBRANCH  23  27
ENDBRANCH  19  23
ENDBRANCH  14  16
BRANCH  15  29
ATOM     29  O   UNL     1       9.180  -4.762  24.819  0.00  0.00    -0.393 OA
BRANCH  29  30
ATOM     30  C   UNL     1       9.296  -4.538  26.224  0.00  0.00    +0.259 C 
ATOM     31  C   UNL     1       8.027  -5.051  26.880  0.00  0.00    +0.051 C 
ENDBRANCH  29  30
ENDBRANCH  15  29
ENDBRANCH  12  14
ENDBRANCH   2  10
BRANCH   6  32
ATOM     32  C   UNL     1       9.514   5.001  24.015  0.00  0.00    +0.087 C 
ATOM     33  OXT UNL     1      10.405   5.558  23.318  0.00  0.00    -0.543 OA
ATOM     34  O   UNL     1       9.264   5.133  25.256  0.00  0.00    -0.543 OA
ENDBRANCH   6  32
BRANCH   7  35
ATOM     35  S   UNL     1       6.405   5.661  23.325  0.00  0.00    -0.064 S 
BRANCH  35  36
ATOM     36  C   UNL     1       5.623   5.290  24.846  0.00  0.00    +0.140 A 
ATOM     37  S   UNL     1       4.602   6.467  25.586  0.00  0.00    -0.068 S 
ATOM     38  C   UNL     1       4.121   5.307  26.750  0.00  0.00    +0.076 A 
ATOM     39  C   UNL     1       4.775   4.115  26.517  0.00  0.00    +0.080 A 
ATOM     40  N   UNL     1       5.700   4.146  25.490  0.00  0.00    -0.232 NA
BRANCH  39  41
ATOM     41  C   UNL     1       4.540   2.897  27.279  0.00  0.00    +0.012 A 
ATOM     42  C   UNL     1       3.981   1.785  26.653  0.00  0.00    +0.080 A 
ATOM     43  C   UNL     1       3.829   0.595  27.350  0.00  0.00    +0.309 A 
ATOM     44  N   UNL     1       4.205   0.511  28.647  0.00  0.00    -0.206 N 
ATOM     45  C   UNL     1       4.097  -0.778  29.345  0.00  0.00    +0.438 C 
ATOM     46  C   UNL     1       4.703   1.590  29.289  0.00  0.00    +0.309 A 
ATOM     47  C   UNL     1       4.881   2.798  28.625  0.00  0.00    +0.080 A 
ENDBRANCH  39  41
ENDBRANCH  35  36
ENDBRANCH   7  35
TORSDOF 12
ENDMDL
MODEL 5
REMARK VINA RESULT:      -6.8      3.855      8.722
REMARK  Name = 
REMARK  14 active torsions:
REMARK  status: ('A' for Active; 'I' for Inactive)
REMARK    1  A    between atoms: C_5  and  S_6
REMARK    2  A    between atoms: S_6  and  C_7
REMARK    3  A    between atoms: C_9  and  C_12
REMARK    4  A    between atoms: N_15  and  C_16
REMARK    5  A    between atoms: CA_19  and  C_43
REMARK    6  A    between atoms: CA_23  and  N_25
REMARK    7  A    between atoms: C_26  and  C_28
REMARK    8  A    between atoms: C_28  and  C_33
REMARK    9  A    between atoms: N_29  and  O_30
REMARK   10  A    between atoms: O_30  and  C_31
REMARK   11  A    between atoms: C_31  and  C_32
REMARK   12  A    between atoms: N_37  and  P_38
REMARK   13  A    between atoms: P_38  and  O_39
REMARK   14  A    between atoms: P_38  and  O_40
REMARK                            x       y       z     vdW  Elec       q    Type
REMARK                         _______ _______ _______ _____ _____    ______ ____
ROOT
ATOM      1  C   UNL     1       8.147  -4.533  24.538  0.00  0.00    +0.168 C 
ATOM      2  CA  UNL     1       8.107  -3.584  23.300  0.00  0.00    +0.191 C 
ATOM      3  C   UNL     1       6.627  -4.057  23.172  0.00  0.00    +0.244 C 
ATOM      4  O   UNL     1       5.719  -3.800  22.411  0.00  0.00    -0.273 OA
ATOM      5  N   UNL     1       6.731  -4.720  24.345  0.00  0.00    -0.253 N 
ATOM      6  CA  UNL     1       5.923  -5.466  25.161  0.00  0.00    +0.070 C 
ATOM      7  C   UNL     1       6.307  -5.677  26.448  0.00  0.00    +0.025 C 
ATOM      8  C   UNL     1       7.545  -5.044  27.083  0.00  0.00    +0.115 C 
ATOM      9  S   UNL     1       8.406  -3.751  26.145  0.00  0.00    -0.130 S 
ENDROOT
BRANCH   2  10
ATOM     10  N   UNL     1       8.269  -2.118  23.543  0.00  0.00    -0.296 N 
ATOM     11  H   UNL     1       7.495  -1.581  23.926  0.00  0.00    +0.150 HD
ATOM     12  C   UNL     1       9.446  -1.452  23.284  0.00  0.00    +0.270 C 
ATOM     13  O   UNL     1      10.418  -1.962  22.747  0.00  0.00    -0.268 OA
BRANCH  12  14
ATOM     14  C   UNL     1       9.465   0.023  23.703  0.00  0.00    +0.208 C 
ATOM     15  N   UNL     1      10.635   0.596  23.808  0.00  0.00    -0.076 NA
BRANCH  14  16
ATOM     16  C   UNL     1       8.184   0.699  23.945  0.00  0.00    +0.197 A 
ATOM     17  N   UNL     1       7.769   1.086  25.239  0.00  0.00    -0.202 NA
ATOM     18  C   UNL     1       6.582   1.639  25.167  0.00  0.00    +0.187 A 
ATOM     19  N   UNL     1       5.850   2.093  26.197  0.00  0.00    -0.230 N 
ATOM     20  H   UNL     1       5.018   2.598  25.935  0.00  0.00    +0.160 HD
ATOM     21  S   UNL     1       5.997   1.673  23.550  0.00  0.00    +0.050 S 
ATOM     22  N   UNL     1       7.360   0.968  22.923  0.00  0.00    -0.185 NA
BRANCH  19  23
ATOM     23  P   UNL     1       6.629   2.685  27.488  0.00  0.00    +0.423 P 
ATOM     24  O   UNL     1       5.843   3.312  28.594  0.00  0.00    -0.237 OA
BRANCH  23  25
ATOM     25  O   UNL     1       7.855   3.592  27.010  0.00  0.00    -0.310 OA
ATOM     26  H   UNL     1       8.331   3.179  26.258  0.00  0.00    +0.221 HD
ENDBRANCH  23  25
BRANCH  23  27
ATOM     27  O   UNL     1       7.428   1.402  28.023  0.00  0.00    -0.310 OA
ATOM     28  H   UNL     1       7.737   0.828  27.304  0.00  0.00    +0.221 HD
ENDBRANCH  23  27
ENDBRANCH  19  23
ENDBRANCH  14  16
BRANCH  15  29
ATOM     29  O   UNL     1      10.526   1.957  24.140  0.00  0.00    -0.393 OA
BRANCH  29  30
ATOM     30  C   UNL     1      10.731   2.767  22.982  0.00  0.00    +0.259 C 
ATOM     31  C   UNL     1      11.586   3.953  23.394  0.00  0.00    +0.051 C 
ENDBRANCH  29  30
ENDBRANCH  15  29
ENDBRANCH  12  14
ENDBRANCH   2  10
BRANCH   6  32
ATOM     32  C   UNL     1       4.586  -6.028  24.531  0.00  0.00    +0.087 C 
ATOM     33  OXT UNL     1       3.581  -5.266  24.544  0.00  0.00    -0.543 OA
ATOM     34  O   UNL     1       4.682  -7.225  24.108  0.00  0.00    -0.543 OA
ENDBRANCH   6  32
BRANCH   7  35
ATOM     35  S   UNL     1       5.335  -6.509  27.659  0.00  0.00    -0.064 S 
BRANCH  35  36
ATOM     36  C   UNL     1       4.597  -5.213  28.573  0.00  0.00    +0.140 A 
ATOM     37  S   UNL     1       4.547  -5.309  30.295  0.00  0.00    -0.068 S 
ATOM     38  C   UNL     1       3.958  -3.703  30.361  0.00  0.00    +0.076 A 
ATOM     39  C   UNL     1       3.819  -3.206  29.081  0.00  0.00    +0.080 A 
ATOM     40  N   UNL     1       4.094  -4.108  28.070  0.00  0.00    -0.232 NA
BRANCH  39  41
ATOM     41  C   UNL     1       3.410  -1.841  28.780  0.00  0.00    +0.012 A 
ATOM     42  C   UNL     1       4.071  -0.771  29.378  0.00  0.00    +0.080 A 
ATOM     43  C   UNL     1       3.743   0.532  29.035  0.00  0.00    +0.309 A 
ATOM     44  N   UNL     1       2.767   0.774  28.130  0.00  0.00    -0.206 N 
ATOM     45  C   UNL     1       2.482   2.161  27.733  0.00  0.00    +0.438 C 
ATOM     46  C   UNL     1       2.078  -0.246  27.574  0.00  0.00    +0.309 A 
ATOM     47  C   UNL     1       2.381  -1.566  27.883  0.00  0.00    +0.080 A 
ENDBRANCH  39  41
ENDBRANCH  35  36
ENDBRANCH   7  35
TORSDOF 12
ENDMDL
MODEL 6
REMARK VINA RESULT:      -6.8      3.878      9.039
REMARK  Name = 
REMARK  14 active torsions:
REMARK  status: ('A' for Active; 'I' for Inactive)
REMARK    1  A    between atoms: C_5  and  S_6
REMARK    2  A    between atoms: S_6  and  C_7
REMARK    3  A    between atoms: C_9  and  C_12
REMARK    4  A    between atoms: N_15  and  C_16
REMARK    5  A    between atoms: CA_19  and  C_43
REMARK    6  A    between atoms: CA_23  and  N_25
REMARK    7  A    between atoms: C_26  and  C_28
REMARK    8  A    between atoms: C_28  and  C_33
REMARK    9  A    between atoms: N_29  and  O_30
REMARK   10  A    between atoms: O_30  and  C_31
REMARK   11  A    between atoms: C_31  and  C_32
REMARK   12  A    between atoms: N_37  and  P_38
REMARK   13  A    between atoms: P_38  and  O_39
REMARK   14  A    between atoms: P_38  and  O_40
REMARK                            x       y       z     vdW  Elec       q    Type
REMARK                         _______ _______ _______ _____ _____    ______ ____
ROOT
ATOM      1  C   UNL     1       9.447  -2.564  24.620  0.00  0.00    +0.168 C 
ATOM      2  CA  UNL     1       9.763  -1.441  23.584  0.00  0.00    +0.191 C 
ATOM      3  C   UNL     1       8.722  -2.179  22.688  0.00  0.00    +0.244 C 
ATOM      4  O   UNL     1       8.270  -1.985  21.581  0.00  0.00    -0.273 OA
ATOM      5  N   UNL     1       8.414  -3.002  23.715  0.00  0.00    -0.253 N 
ATOM      6  CA  UNL     1       7.544  -4.030  23.961  0.00  0.00    +0.070 C 
ATOM      7  C   UNL     1       7.292  -4.380  25.250  0.00  0.00    +0.025 C 
ATOM      8  C   UNL     1       7.842  -3.628  26.462  0.00  0.00    +0.115 C 
ATOM      9  S   UNL     1       8.669  -2.041  26.163  0.00  0.00    -0.130 S 
ENDROOT
BRANCH   2  10
ATOM     10  N   UNL     1       9.388  -0.039  23.942  0.00  0.00    -0.296 N 
ATOM     11  H   UNL     1       8.926   0.149  24.828  0.00  0.00    +0.150 HD
ATOM     12  C   UNL     1       9.662   1.032  23.121  0.00  0.00    +0.270 C 
ATOM     13  O   UNL     1      10.137   0.931  21.999  0.00  0.00    -0.268 OA
BRANCH  12  14
ATOM     14  C   UNL     1       9.310   2.405  23.703  0.00  0.00    +0.208 C 
ATOM     15  N   UNL     1      10.227   3.334  23.634  0.00  0.00    -0.076 NA
BRANCH  14  16
ATOM     16  C   UNL     1       7.975   2.598  24.284  0.00  0.00    +0.197 A 
ATOM     17  N   UNL     1       7.661   2.197  25.602  0.00  0.00    -0.202 NA
ATOM     18  C   UNL     1       6.401   2.462  25.849  0.00  0.00    +0.187 A 
ATOM     19  N   UNL     1       5.735   2.185  26.980  0.00  0.00    -0.230 N 
ATOM     20  H   UNL     1       4.807   2.575  27.032  0.00  0.00    +0.160 HD
ATOM     21  S   UNL     1       5.628   3.180  24.490  0.00  0.00    +0.050 S 
ATOM     22  N   UNL     1       7.002   3.170  23.562  0.00  0.00    -0.185 NA
BRANCH  19  23
ATOM     23  P   UNL     1       6.557   2.196  28.376  0.00  0.00    +0.423 P 
ATOM     24  O   UNL     1       5.821   2.003  29.662  0.00  0.00    -0.237 OA
BRANCH  23  25
ATOM     25  O   UNL     1       7.543   3.453  28.411  0.00  0.00    -0.310 OA
ATOM     26  H   UNL     1       8.140   3.415  29.190  0.00  0.00    +0.221 HD
ENDBRANCH  23  25
BRANCH  23  27
ATOM     27  O   UNL     1       7.621   1.017  28.155  0.00  0.00    -0.310 OA
ATOM     28  H   UNL     1       7.322   0.361  27.505  0.00  0.00    +0.221 HD
ENDBRANCH  23  27
ENDBRANCH  19  23
ENDBRANCH  14  16
BRANCH  15  29
ATOM     29  O   UNL     1       9.773   4.562  24.144  0.00  0.00    -0.393 OA
BRANCH  29  30
ATOM     30  C   UNL     1      10.682   5.607  23.800  0.00  0.00    +0.259 C 
ATOM     31  C   UNL     1      12.002   4.964  23.415  0.00  0.00    +0.051 C 
ENDBRANCH  29  30
ENDBRANCH  15  29
ENDBRANCH  12  14
ENDBRANCH   2  10
BRANCH   6  32
ATOM     32  C   UNL     1       6.890  -4.736  22.707  0.00  0.00    +0.087 C 
ATOM     33  OXT UNL     1       5.840  -4.217  22.239  0.00  0.00    -0.543 OA
ATOM     34  O   UNL     1       7.501  -5.789  22.334  0.00  0.00    -0.543 OA
ENDBRANCH   6  32
BRANCH   7  35
ATOM     35  S   UNL     1       6.116  -5.595  25.747  0.00  0.00    -0.064 S 
BRANCH  35  36
ATOM     36  C   UNL     1       5.238  -4.827  27.050  0.00  0.00    +0.140 A 
ATOM     37  S   UNL     1       5.229  -5.555  28.614  0.00  0.00    -0.068 S 
ATOM     38  C   UNL     1       4.446  -4.171  29.247  0.00  0.00    +0.076 A 
ATOM     39  C   UNL     1       4.225  -3.258  28.236  0.00  0.00    +0.080 A 
ATOM     40  N   UNL     1       4.593  -3.684  26.973  0.00  0.00    -0.232 NA
BRANCH  39  41
ATOM     41  C   UNL     1       3.645  -1.939  28.444  0.00  0.00    +0.012 A 
ATOM     42  C   UNL     1       3.527  -1.430  29.735  0.00  0.00    +0.080 A 
ATOM     43  C   UNL     1       3.052  -0.142  29.937  0.00  0.00    +0.309 A 
ATOM     44  N   UNL     1       2.681   0.621  28.883  0.00  0.00    -0.206 N 
ATOM     45  C   UNL     1       2.244   2.005  29.116  0.00  0.00    +0.438 C 
ATOM     46  C   UNL     1       2.739   0.131  27.626  0.00  0.00    +0.309 A 
ATOM     47  C   UNL     1       3.218  -1.150  27.380  0.00  0.00    +0.080 A 
ENDBRANCH  39  41
ENDBRANCH  35  36
ENDBRANCH   7  35
TORSDOF 12
ENDMDL
MODEL 7
REMARK VINA RESULT:      -6.7      3.855      6.003
REMARK  Name = 
REMARK  14 active torsions:
REMARK  status: ('A' for Active; 'I' for Inactive)
REMARK    1  A    between atoms: C_5  and  S_6
REMARK    2  A    between atoms: S_6  and  C_7
REMARK    3  A    between atoms: C_9  and  C_12
REMARK    4  A    between atoms: N_15  and  C_16
REMARK    5  A    between atoms: CA_19  and  C_43
REMARK    6  A    between atoms: CA_23  and  N_25
REMARK    7  A    between atoms: C_26  and  C_28
REMARK    8  A    between atoms: C_28  and  C_33
REMARK    9  A    between atoms: N_29  and  O_30
REMARK   10  A    between atoms: O_30  and  C_31
REMARK   11  A    between atoms: C_31  and  C_32
REMARK   12  A    between atoms: N_37  and  P_38
REMARK   13  A    between atoms: P_38  and  O_39
REMARK   14  A    between atoms: P_38  and  O_40
REMARK                            x       y       z     vdW  Elec       q    Type
REMARK                         _______ _______ _______ _____ _____    ______ ____
ROOT
ATOM      1  C   UNL     1       4.926  -0.746  28.123  0.00  0.00    +0.168 C 
ATOM      2  CA  UNL     1       4.265  -2.072  27.635  0.00  0.00    +0.191 C 
ATOM      3  C   UNL     1       3.166  -1.135  27.049  0.00  0.00    +0.244 C 
ATOM      4  O   UNL     1       2.148  -1.317  26.417  0.00  0.00    -0.273 OA
ATOM      5  N   UNL     1       3.904  -0.053  27.380  0.00  0.00    -0.253 N 
ATOM      6  CA  UNL     1       3.820   1.308  27.249  0.00  0.00    +0.070 C 
ATOM      7  C   UNL     1       4.947   2.051  27.407  0.00  0.00    +0.025 C 
ATOM      8  C   UNL     1       6.339   1.457  27.621  0.00  0.00    +0.115 C 
ATOM      9  S   UNL     1       6.532  -0.334  27.406  0.00  0.00    -0.130 S 
ENDROOT
BRANCH   2  10
ATOM     10  N   UNL     1       4.999  -2.880  26.614  0.00  0.00    -0.296 N 
ATOM     11  H   UNL     1       5.920  -2.583  26.302  0.00  0.00    +0.150 HD
ATOM     12  C   UNL     1       4.484  -4.040  26.079  0.00  0.00    +0.270 C 
ATOM     13  O   UNL     1       3.359  -4.458  26.307  0.00  0.00    -0.268 OA
BRANCH  12  14
ATOM     14  C   UNL     1       5.425  -4.796  25.135  0.00  0.00    +0.208 C 
ATOM     15  N   UNL     1       4.875  -5.600  24.264  0.00  0.00    -0.076 NA
BRANCH  14  16
ATOM     16  C   UNL     1       6.871  -4.564  25.253  0.00  0.00    +0.197 A 
ATOM     17  N   UNL     1       7.565  -3.678  24.399  0.00  0.00    -0.202 NA
ATOM     18  C   UNL     1       8.839  -3.685  24.708  0.00  0.00    +0.187 A 
ATOM     19  N   UNL     1       9.813  -3.001  24.089  0.00  0.00    -0.230 N 
ATOM     20  H   UNL     1      10.711  -3.036  24.545  0.00  0.00    +0.160 HD
ATOM     21  S   UNL     1       9.168  -4.759  26.011  0.00  0.00    +0.050 S 
ATOM     22  N   UNL     1       7.581  -5.203  26.194  0.00  0.00    -0.185 NA
BRANCH  19  23
ATOM     23  P   UNL     1       9.443  -1.572  23.424  0.00  0.00    +0.423 P 
ATOM     24  O   UNL     1      10.539  -0.616  23.079  0.00  0.00    -0.237 OA
BRANCH  23  25
ATOM     25  O   UNL     1       8.260  -0.883  24.250  0.00  0.00    -0.310 OA
ATOM     26  H   UNL     1       8.292   0.095  24.168  0.00  0.00    +0.221 HD
ENDBRANCH  23  25
BRANCH  23  27
ATOM     27  O   UNL     1       8.640  -2.007  22.106  0.00  0.00    -0.310 OA
ATOM     28  H   UNL     1       9.227  -2.200  21.357  0.00  0.00    +0.221 HD
ENDBRANCH  23  27
ENDBRANCH  19  23
ENDBRANCH  14  16
BRANCH  15  29
ATOM     29  O   UNL     1       5.828  -6.192  23.418  0.00  0.00    -0.393 OA
BRANCH  29  30
ATOM     30  C   UNL     1       5.611  -5.783  22.067  0.00  0.00    +0.259 C 
ATOM     31  C   UNL     1       6.968  -5.663  21.397  0.00  0.00    +0.051 C 
ENDBRANCH  29  30
ENDBRANCH  15  29
ENDBRANCH  12  14
ENDBRANCH   2  10
BRANCH   6  32
ATOM     32  C   UNL     1       2.398   1.912  26.917  0.00  0.00    +0.087 C 
ATOM     33  OXT UNL     1       1.598   2.058  27.882  0.00  0.00    -0.543 OA
ATOM     34  O   UNL     1       2.217   2.152  25.681  0.00  0.00    -0.543 OA
ENDBRANCH   6  32
BRANCH   7  35
ATOM     35  S   UNL     1       5.040   3.793  27.157  0.00  0.00    -0.064 S 
BRANCH  35  36
ATOM     36  C   UNL     1       5.924   3.960  25.657  0.00  0.00    +0.140 A 
ATOM     37  S   UNL     1       5.067   4.308  24.200  0.00  0.00    -0.068 S 
ATOM     38  C   UNL     1       6.556   4.527  23.385  0.00  0.00    +0.076 A 
ATOM     39  C   UNL     1       7.602   4.304  24.257  0.00  0.00    +0.080 A 
ATOM     40  N   UNL     1       7.229   3.888  25.522  0.00  0.00    -0.232 NA
BRANCH  39  41
ATOM     41  C   UNL     1       9.004   4.478  23.906  0.00  0.00    +0.012 A 
ATOM     42  C   UNL     1       9.562   5.754  23.892  0.00  0.00    +0.080 A 
ATOM     43  C   UNL     1      10.915   5.922  23.638  0.00  0.00    +0.309 A 
ATOM     44  N   UNL     1      11.700   4.849  23.386  0.00  0.00    -0.206 N 
ATOM     45  C   UNL     1      13.143   5.045  23.187  0.00  0.00    +0.438 C 
ATOM     46  C   UNL     1      11.172   3.606  23.346  0.00  0.00    +0.309 A 
ATOM     47  C   UNL     1       9.823   3.394  23.603  0.00  0.00    +0.080 A 
ENDBRANCH  39  41
ENDBRANCH  35  36
ENDBRANCH   7  35
TORSDOF 12
ENDMDL
MODEL 8
REMARK VINA RESULT:      -6.7      4.069      9.298
REMARK  Name = 
REMARK  14 active torsions:
REMARK  status: ('A' for Active; 'I' for Inactive)
REMARK    1  A    between atoms: C_5  and  S_6
REMARK    2  A    between atoms: S_6  and  C_7
REMARK    3  A    between atoms: C_9  and  C_12
REMARK    4  A    between atoms: N_15  and  C_16
REMARK    5  A    between atoms: CA_19  and  C_43
REMARK    6  A    between atoms: CA_23  and  N_25
REMARK    7  A    between atoms: C_26  and  C_28
REMARK    8  A    between atoms: C_28  and  C_33
REMARK    9  A    between atoms: N_29  and  O_30
REMARK   10  A    between atoms: O_30  and  C_31
REMARK   11  A    between atoms: C_31  and  C_32
REMARK   12  A    between atoms: N_37  and  P_38
REMARK   13  A    between atoms: P_38  and  O_39
REMARK   14  A    between atoms: P_38  and  O_40
REMARK                            x       y       z     vdW  Elec       q    Type
REMARK                         _______ _______ _______ _____ _____    ______ ____
ROOT
ATOM      1  C   UNL     1       9.013  -3.540  24.471  0.00  0.00    +0.168 C 
ATOM      2  CA  UNL     1       9.267  -2.487  23.349  0.00  0.00    +0.191 C 
ATOM      3  C   UNL     1       7.933  -3.024  22.748  0.00  0.00    +0.244 C 
ATOM      4  O   UNL     1       7.274  -2.748  21.768  0.00  0.00    -0.273 OA
ATOM      5  N   UNL     1       7.736  -3.783  23.848  0.00  0.00    -0.253 N 
ATOM      6  CA  UNL     1       6.783  -4.641  24.328  0.00  0.00    +0.070 C 
ATOM      7  C   UNL     1       6.784  -4.946  25.653  0.00  0.00    +0.025 C 
ATOM      8  C   UNL     1       7.725  -4.309  26.674  0.00  0.00    +0.115 C 
ATOM      9  S   UNL     1       8.722  -2.893  26.133  0.00  0.00    -0.130 S 
ENDROOT
BRANCH   2  10
ATOM     10  N   UNL     1       9.236  -1.042  23.731  0.00  0.00    -0.296 N 
ATOM     11  H   UNL     1       9.048  -0.778  24.695  0.00  0.00    +0.150 HD
ATOM     12  C   UNL     1       9.474  -0.032  22.825  0.00  0.00    +0.270 C 
ATOM     13  O   UNL     1       9.630  -0.211  21.626  0.00  0.00    -0.268 OA
BRANCH  12  14
ATOM     14  C   UNL     1       9.516   1.380  23.419  0.00  0.00    +0.208 C 
ATOM     15  N   UNL     1      10.568   2.108  23.151  0.00  0.00    -0.076 NA
BRANCH  14  16
ATOM     16  C   UNL     1       8.380   1.831  24.233  0.00  0.00    +0.197 A 
ATOM     17  N   UNL     1       7.391   2.705  23.729  0.00  0.00    -0.202 NA
ATOM     18  C   UNL     1       6.517   2.962  24.672  0.00  0.00    +0.187 A 
ATOM     19  N   UNL     1       5.460   3.784  24.576  0.00  0.00    -0.230 N 
ATOM     20  H   UNL     1       4.832   3.759  25.364  0.00  0.00    +0.160 HD
ATOM     21  S   UNL     1       6.910   2.152  26.137  0.00  0.00    +0.050 S 
ATOM     22  N   UNL     1       8.253   1.416  25.501  0.00  0.00    -0.185 NA
BRANCH  19  23
ATOM     23  P   UNL     1       4.739   3.941  23.135  0.00  0.00    +0.423 P 
ATOM     24  O   UNL     1       3.450   4.691  23.036  0.00  0.00    -0.237 OA
BRANCH  23  25
ATOM     25  O   UNL     1       4.684   2.522  22.401  0.00  0.00    -0.310 OA
ATOM     26  H   UNL     1       4.365   1.819  23.009  0.00  0.00    +0.221 HD
ENDBRANCH  23  25
BRANCH  23  27
ATOM     27  O   UNL     1       5.876   4.658  22.261  0.00  0.00    -0.310 OA
ATOM     28  H   UNL     1       6.221   4.088  21.555  0.00  0.00    +0.221 HD
ENDBRANCH  23  27
ENDBRANCH  19  23
ENDBRANCH  14  16
BRANCH  15  29
ATOM     29  O   UNL     1      10.469   3.398  23.699  0.00  0.00    -0.393 OA
BRANCH  29  30
ATOM     30  C   UNL     1      11.598   4.184  23.319  0.00  0.00    +0.259 C 
ATOM     31  C   UNL     1      11.302   5.627  23.687  0.00  0.00    +0.051 C 
ENDBRANCH  29  30
ENDBRANCH  15  29
ENDBRANCH  12  14
ENDBRANCH   2  10
BRANCH   6  32
ATOM     32  C   UNL     1       5.741  -5.215  23.286  0.00  0.00    +0.087 C 
ATOM     33  OXT UNL     1       4.644  -4.601  23.176  0.00  0.00    -0.543 OA
ATOM     34  O   UNL     1       6.133  -6.273  22.698  0.00  0.00    -0.543 OA
ENDBRANCH   6  32
BRANCH   7  35
ATOM     35  S   UNL     1       5.565  -5.935  26.453  0.00  0.00    -0.064 S 
BRANCH  35  36
ATOM     36  C   UNL     1       4.814  -4.840  27.593  0.00  0.00    +0.140 A 
ATOM     37  S   UNL     1       4.653  -5.313  29.245  0.00  0.00    -0.068 S 
ATOM     38  C   UNL     1       4.115  -3.735  29.636  0.00  0.00    +0.076 A 
ATOM     39  C   UNL     1       4.074  -2.961  28.495  0.00  0.00    +0.080 A 
ATOM     40  N   UNL     1       4.381  -3.629  27.324  0.00  0.00    -0.232 NA
BRANCH  39  41
ATOM     41  C   UNL     1       3.730  -1.546  28.485  0.00  0.00    +0.012 A 
ATOM     42  C   UNL     1       3.412  -0.902  29.678  0.00  0.00    +0.080 A 
ATOM     43  C   UNL     1       3.164   0.463  29.689  0.00  0.00    +0.309 A 
ATOM     44  N   UNL     1       3.211   1.175  28.540  0.00  0.00    -0.206 N 
ATOM     45  C   UNL     1       3.011   2.630  28.586  0.00  0.00    +0.438 C 
ATOM     46  C   UNL     1       3.468   0.563  27.363  0.00  0.00    +0.309 A 
ATOM     47  C   UNL     1       3.732  -0.800  27.309  0.00  0.00    +0.080 A 
ENDBRANCH  39  41
ENDBRANCH  35  36
ENDBRANCH   7  35
TORSDOF 12
ENDMDL
MODEL 9
REMARK VINA RESULT:      -6.5      3.831      6.751
REMARK  Name = 
REMARK  14 active torsions:
REMARK  status: ('A' for Active; 'I' for Inactive)
REMARK    1  A    between atoms: C_5  and  S_6
REMARK    2  A    between atoms: S_6  and  C_7
REMARK    3  A    between atoms: C_9  and  C_12
REMARK    4  A    between atoms: N_15  and  C_16
REMARK    5  A    between atoms: CA_19  and  C_43
REMARK    6  A    between atoms: CA_23  and  N_25
REMARK    7  A    between atoms: C_26  and  C_28
REMARK    8  A    between atoms: C_28  and  C_33
REMARK    9  A    between atoms: N_29  and  O_30
REMARK   10  A    between atoms: O_30  and  C_31
REMARK   11  A    between atoms: C_31  and  C_32
REMARK   12  A    between atoms: N_37  and  P_38
REMARK   13  A    between atoms: P_38  and  O_39
REMARK   14  A    between atoms: P_38  and  O_40
REMARK                            x       y       z     vdW  Elec       q    Type
REMARK                         _______ _______ _______ _____ _____    ______ ____
ROOT
ATOM      1  C   UNL     1       8.468   2.222  21.764  0.00  0.00    +0.168 C 
ATOM      2  CA  UNL     1       9.323   0.986  22.182  0.00  0.00    +0.191 C 
ATOM      3  C   UNL     1       9.908   1.944  23.264  0.00  0.00    +0.244 C 
ATOM      4  O   UNL     1      10.727   1.821  24.150  0.00  0.00    -0.273 OA
ATOM      5  N   UNL     1       9.009   2.891  22.920  0.00  0.00    -0.253 N 
ATOM      6  CA  UNL     1       8.662   4.152  23.327  0.00  0.00    +0.070 C 
ATOM      7  C   UNL     1       7.455   4.653  22.950  0.00  0.00    +0.025 C 
ATOM      8  C   UNL     1       6.403   3.855  22.181  0.00  0.00    +0.115 C 
ATOM      9  S   UNL     1       6.680   2.073  21.976  0.00  0.00    -0.130 S 
ENDROOT
BRANCH   2  10
ATOM     10  N   UNL     1       8.605  -0.204  22.732  0.00  0.00    -0.296 N 
ATOM     11  H   UNL     1       7.676  -0.093  23.130  0.00  0.00    +0.150 HD
ATOM     12  C   UNL     1       9.144  -1.470  22.707  0.00  0.00    +0.270 C 
ATOM     13  O   UNL     1      10.280  -1.723  22.333  0.00  0.00    -0.268 OA
BRANCH  12  14
ATOM     14  C   UNL     1       8.218  -2.583  23.208  0.00  0.00    +0.208 C 
ATOM     15  N   UNL     1       7.938  -3.547  22.371  0.00  0.00    -0.076 NA
BRANCH  14  16
ATOM     16  C   UNL     1       7.716  -2.509  24.586  0.00  0.00    +0.197 A 
ATOM     17  N   UNL     1       7.295  -3.654  25.298  0.00  0.00    -0.202 NA
ATOM     18  C   UNL     1       6.872  -3.296  26.487  0.00  0.00    +0.187 A 
ATOM     19  N   UNL     1       6.359  -4.104  27.427  0.00  0.00    -0.230 N 
ATOM     20  H   UNL     1       6.204  -3.668  28.322  0.00  0.00    +0.160 HD
ATOM     21  S   UNL     1       6.986  -1.595  26.712  0.00  0.00    +0.050 S 
ATOM     22  N   UNL     1       7.642  -1.326  25.213  0.00  0.00    -0.185 NA
BRANCH  19  23
ATOM     23  P   UNL     1       6.891  -5.633  27.498  0.00  0.00    +0.423 P 
ATOM     24  O   UNL     1       6.757  -6.398  28.774  0.00  0.00    -0.237 OA
BRANCH  23  25
ATOM     25  O   UNL     1       8.361  -5.722  26.876  0.00  0.00    -0.310 OA
ATOM     26  H   UNL     1       9.008  -6.048  27.538  0.00  0.00    +0.221 HD
ENDBRANCH  23  25
BRANCH  23  27
ATOM     27  O   UNL     1       6.054  -6.339  26.327  0.00  0.00    -0.310 OA
ATOM     28  H   UNL     1       6.457  -6.218  25.453  0.00  0.00    +0.221 HD
ENDBRANCH  23  27
ENDBRANCH  19  23
ENDBRANCH  14  16
BRANCH  15  29
ATOM     29  O   UNL     1       7.131  -4.536  22.957  0.00  0.00    -0.393 OA
BRANCH  29  30
ATOM     30  C   UNL     1       7.221  -5.752  22.215  0.00  0.00    +0.259 C 
ATOM     31  C   UNL     1       6.248  -5.658  21.053  0.00  0.00    +0.051 C 
ENDBRANCH  29  30
ENDBRANCH  15  29
ENDBRANCH  12  14
ENDBRANCH   2  10
BRANCH   6  32
ATOM     32  C   UNL     1       9.708   4.935  24.217  0.00  0.00    +0.087 C 
ATOM     33  OXT UNL     1      10.805   5.241  23.675  0.00  0.00    -0.543 OA
ATOM     34  O   UNL     1       9.318   5.135  25.411  0.00  0.00    -0.543 OA
ENDBRANCH   6  32
BRANCH   7  35
ATOM     35  S   UNL     1       6.804   6.202  23.480  0.00  0.00    -0.064 S 
BRANCH  35  36
ATOM     36  C   UNL     1       5.793   5.791  24.847  0.00  0.00    +0.140 A 
ATOM     37  S   UNL     1       4.375   6.722  25.165  0.00  0.00    -0.068 S 
ATOM     38  C   UNL     1       3.918   5.600  26.374  0.00  0.00    +0.076 A 
ATOM     39  C   UNL     1       4.872   4.608  26.473  0.00  0.00    +0.080 A 
ATOM     40  N   UNL     1       5.981   4.781  25.666  0.00  0.00    -0.232 NA
BRANCH  39  41
ATOM     41  C   UNL     1       4.756   3.455  27.354  0.00  0.00    +0.012 A 
ATOM     42  C   UNL     1       5.670   3.280  28.391  0.00  0.00    +0.080 A 
ATOM     43  C   UNL     1       5.519   2.229  29.284  0.00  0.00    +0.309 A 
ATOM     44  N   UNL     1       4.495   1.357  29.145  0.00  0.00    -0.206 N 
ATOM     45  C   UNL     1       4.317   0.292  30.143  0.00  0.00    +0.438 C 
ATOM     46  C   UNL     1       3.625   1.477  28.118  0.00  0.00    +0.309 A 
ATOM     47  C   UNL     1       3.735   2.520  27.207  0.00  0.00    +0.080 A 
ENDBRANCH  39  41
ENDBRANCH  35  36
ENDBRANCH   7  35
TORSDOF 12
ENDMDL
