MODEL 1
REMARK VINA RESULT:      -6.6      0.000      0.000
REMARK  Name = 
REMARK  7 active torsions:
REMARK  status: ('A' for Active; 'I' for Inactive)
REMARK    1  A    between atoms: C_1  and  N_2
REMARK    2  A    between atoms: N_2  and  C_3
REMARK    3  A    between atoms: C_4  and  C_16
REMARK    4  A    between atoms: C_6  and  S_7
REMARK    5  A    between atoms: S_7  and  C_8
REMARK    6  A    between atoms: N_12  and  C_13
REMARK    7  A    between atoms: C_21  and  C_22
REMARK                            x       y       z     vdW  Elec       q    Type
REMARK                         _______ _______ _______ _____ _____    ______ ____
ROOT
ATOM      1  C   UNL     1       8.564  -3.841  24.048  0.00  0.00    +0.039 A 
ATOM      2  C   UNL     1       9.756  -3.111  24.179  0.00  0.00    +0.025 A 
ATOM      3  C   UNL     1      10.018  -1.983  23.398  0.00  0.00    +0.017 A 
ATOM      4  C   UNL     1       9.080  -1.523  22.474  0.00  0.00    +0.016 A 
ATOM      5  C   UNL     1       7.852  -2.184  22.392  0.00  0.00    +0.030 A 
ATOM      6  C   UNL     1       7.592  -3.356  23.136  0.00  0.00    +0.059 A 
ENDROOT
BRANCH   6   7
ATOM      7  C   UNL     1       6.274  -4.071  22.961  0.00  0.00    +0.252 C 
ATOM      8  N   UNL     1       5.239  -3.640  23.769  0.00  0.00    -0.261 N 
ATOM      9  H   UNL     1       5.331  -2.859  24.399  0.00  0.00    +0.157 HD
ATOM     10  C   UNL     1       4.015  -4.257  23.771  0.00  0.00    +0.165 A 
ATOM     11  S   UNL     1       2.958  -3.698  24.991  0.00  0.00    -0.060 S 
ATOM     12  C   UNL     1       1.793  -4.852  24.481  0.00  0.00    +0.071 A 
ATOM     13  C   UNL     1       2.266  -5.540  23.378  0.00  0.00    +0.047 A 
ATOM     14  C   UNL     1       1.537  -6.570  22.596  0.00  0.00    +0.066 C 
ATOM     15  N   UNL     1       3.553  -5.205  22.999  0.00  0.00    -0.230 NA
ATOM     16  O   UNL     1       6.197  -4.963  22.121  0.00  0.00    -0.270 OA
ENDBRANCH   6   7
BRANCH   1  18
ATOM     17  C   UNL     1       8.475  -4.825  26.314  0.00  0.00    +0.125 C 
ATOM     18  N   UNL     1       8.335  -4.947  24.876  0.00  0.00    -0.346 N 
ATOM     19  H   UNL     1       8.697  -5.821  24.474  0.00  0.00    +0.146 HD
ENDBRANCH   1  18
BRANCH   4  20
ATOM     20  S   UNL     1       9.488  -0.045  21.564  0.00  0.00    -0.050 S 
BRANCH  20  21
ATOM     21  C   UNL     1       9.358   1.223  22.733  0.00  0.00    +0.196 A 
ATOM     22  N   UNL     1       8.171   1.850  23.001  0.00  0.00    -0.311 N 
ATOM     23  C   UNL     1       6.861   1.528  22.509  0.00  0.00    +0.152 C 
ATOM     24  C   UNL     1       8.474   2.867  23.858  0.00  0.00    +0.225 A 
ATOM     25  N   UNL     1       9.755   2.830  24.150  0.00  0.00    -0.137 NA
ATOM     26  N   UNL     1      10.309   1.783  23.445  0.00  0.00    -0.122 NA
ENDBRANCH  20  21
ENDBRANCH   4  20
TORSDOF 4
ENDMDL
MODEL 2
REMARK VINA RESULT:      -6.4      2.830      4.158
REMARK  Name = 
REMARK  7 active torsions:
REMARK  status: ('A' for Active; 'I' for Inactive)
REMARK    1  A    between atoms: C_1  and  N_2
REMARK    2  A    between atoms: N_2  and  C_3
REMARK    3  A    between atoms: C_4  and  C_16
REMARK    4  A    between atoms: C_6  and  S_7
REMARK    5  A    between atoms: S_7  and  C_8
REMARK    6  A    between atoms: N_12  and  C_13
REMARK    7  A    between atoms: C_21  and  C_22
REMARK                            x       y       z     vdW  Elec       q    Type
REMARK                         _______ _______ _______ _____ _____    ______ ____
ROOT
ATOM      1  C   UNL     1       8.746  -0.371  22.002  0.00  0.00    +0.039 A 
ATOM      2  C   UNL     1       9.211   0.865  21.526  0.00  0.00    +0.025 A 
ATOM      3  C   UNL     1       8.508   2.050  21.749  0.00  0.00    +0.017 A 
ATOM      4  C   UNL     1       7.324   2.049  22.486  0.00  0.00    +0.016 A 
ATOM      5  C   UNL     1       6.892   0.842  23.041  0.00  0.00    +0.030 A 
ATOM      6  C   UNL     1       7.562  -0.373  22.782  0.00  0.00    +0.059 A 
ENDROOT
BRANCH   6   7
ATOM      7  C   UNL     1       7.016  -1.660  23.352  0.00  0.00    +0.252 C 
ATOM      8  N   UNL     1       7.631  -2.123  24.500  0.00  0.00    -0.261 N 
ATOM      9  H   UNL     1       8.362  -1.612  24.969  0.00  0.00    +0.157 HD
ATOM     10  C   UNL     1       7.289  -3.320  25.073  0.00  0.00    +0.165 A 
ATOM     11  S   UNL     1       8.314  -3.794  26.354  0.00  0.00    -0.060 S 
ATOM     12  C   UNL     1       7.421  -5.253  26.503  0.00  0.00    +0.071 A 
ATOM     13  C   UNL     1       6.366  -5.250  25.609  0.00  0.00    +0.047 A 
ATOM     14  C   UNL     1       5.319  -6.293  25.469  0.00  0.00    +0.066 C 
ATOM     15  N   UNL     1       6.319  -4.146  24.777  0.00  0.00    -0.230 NA
ATOM     16  O   UNL     1       6.070  -2.200  22.784  0.00  0.00    -0.270 OA
ENDBRANCH   6   7
BRANCH   1  18
ATOM     17  C   UNL     1      10.568  -1.892  22.693  0.00  0.00    +0.125 C 
ATOM     18  N   UNL     1       9.503  -1.529  21.778  0.00  0.00    -0.346 N 
ATOM     19  H   UNL     1       9.712  -1.677  20.783  0.00  0.00    +0.146 HD
ENDBRANCH   1  18
BRANCH   4  20
ATOM     20  S   UNL     1       6.530   3.622  22.758  0.00  0.00    -0.050 S 
BRANCH  20  21
ATOM     21  C   UNL     1       7.805   4.652  23.308  0.00  0.00    +0.196 A 
ATOM     22  N   UNL     1       8.006   5.904  22.792  0.00  0.00    -0.311 N 
ATOM     23  C   UNL     1       7.189   6.625  21.858  0.00  0.00    +0.152 C 
ATOM     24  C   UNL     1       9.162   6.357  23.358  0.00  0.00    +0.225 A 
ATOM     25  N   UNL     1       9.611   5.468  24.215  0.00  0.00    -0.137 NA
ATOM     26  N   UNL     1       8.745   4.395  24.189  0.00  0.00    -0.122 NA
ENDBRANCH  20  21
ENDBRANCH   4  20
TORSDOF 4
ENDMDL
MODEL 3
REMARK VINA RESULT:      -6.4      3.162      7.780
REMARK  Name = 
REMARK  7 active torsions:
REMARK  status: ('A' for Active; 'I' for Inactive)
REMARK    1  A    between atoms: C_1  and  N_2
REMARK    2  A    between atoms: N_2  and  C_3
REMARK    3  A    between atoms: C_4  and  C_16
REMARK    4  A    between atoms: C_6  and  S_7
REMARK    5  A    between atoms: S_7  and  C_8
REMARK    6  A    between atoms: N_12  and  C_13
REMARK    7  A    between atoms: C_21  and  C_22
REMARK                            x       y       z     vdW  Elec       q    Type
REMARK                         _______ _______ _______ _____ _____    ______ ____
ROOT
ATOM      1  C   UNL     1       6.179  -5.042  23.033  0.00  0.00    +0.039 A 
ATOM      2  C   UNL     1       5.365  -6.092  23.487  0.00  0.00    +0.025 A 
ATOM      3  C   UNL     1       4.708  -6.034  24.717  0.00  0.00    +0.017 A 
ATOM      4  C   UNL     1       4.815  -4.906  25.530  0.00  0.00    +0.016 A 
ATOM      5  C   UNL     1       5.549  -3.816  25.056  0.00  0.00    +0.030 A 
ATOM      6  C   UNL     1       6.262  -3.877  23.839  0.00  0.00    +0.059 A 
ENDROOT
BRANCH   6   7
ATOM      7  C   UNL     1       7.094  -2.695  23.404  0.00  0.00    +0.252 C 
ATOM      8  N   UNL     1       7.856  -2.095  24.389  0.00  0.00    -0.261 N 
ATOM      9  H   UNL     1       7.905  -2.451  25.330  0.00  0.00    +0.157 HD
ATOM     10  C   UNL     1       8.593  -0.965  24.148  0.00  0.00    +0.165 A 
ATOM     11  S   UNL     1       9.284  -0.276  25.549  0.00  0.00    -0.060 S 
ATOM     12  C   UNL     1       9.914   0.999  24.586  0.00  0.00    +0.071 A 
ATOM     13  C   UNL     1       9.607   0.778  23.256  0.00  0.00    +0.047 A 
ATOM     14  C   UNL     1      10.027   1.608  22.099  0.00  0.00    +0.066 C 
ATOM     15  N   UNL     1       8.826  -0.340  23.023  0.00  0.00    -0.230 NA
ATOM     16  O   UNL     1       7.058  -2.354  22.225  0.00  0.00    -0.270 OA
ENDBRANCH   6   7
BRANCH   1  18
ATOM     17  C   UNL     1       6.202  -5.948  20.734  0.00  0.00    +0.125 C 
ATOM     18  N   UNL     1       6.793  -5.133  21.777  0.00  0.00    -0.346 N 
ATOM     19  H   UNL     1       7.818  -5.183  21.843  0.00  0.00    +0.146 HD
ENDBRANCH   1  18
BRANCH   4  20
ATOM     20  S   UNL     1       3.895  -4.910  27.058  0.00  0.00    -0.050 S 
BRANCH  20  21
ATOM     21  C   UNL     1       4.864  -5.856  28.134  0.00  0.00    +0.196 A 
ATOM     22  N   UNL     1       5.067  -5.497  29.439  0.00  0.00    -0.311 N 
ATOM     23  C   UNL     1       4.462  -4.421  30.173  0.00  0.00    +0.152 C 
ATOM     24  C   UNL     1       5.976  -6.388  29.932  0.00  0.00    +0.225 A 
ATOM     25  N   UNL     1       6.267  -7.276  29.008  0.00  0.00    -0.137 NA
ATOM     26  N   UNL     1       5.554  -6.944  27.876  0.00  0.00    -0.122 NA
ENDBRANCH  20  21
ENDBRANCH   4  20
TORSDOF 4
ENDMDL
MODEL 4
REMARK VINA RESULT:      -6.3      3.502      6.823
REMARK  Name = 
REMARK  7 active torsions:
REMARK  status: ('A' for Active; 'I' for Inactive)
REMARK    1  A    between atoms: C_1  and  N_2
REMARK    2  A    between atoms: N_2  and  C_3
REMARK    3  A    between atoms: C_4  and  C_16
REMARK    4  A    between atoms: C_6  and  S_7
REMARK    5  A    between atoms: S_7  and  C_8
REMARK    6  A    between atoms: N_12  and  C_13
REMARK    7  A    between atoms: C_21  and  C_22
REMARK                            x       y       z     vdW  Elec       q    Type
REMARK                         _______ _______ _______ _____ _____    ______ ____
ROOT
ATOM      1  C   UNL     1       9.342   0.631  22.137  0.00  0.00    +0.039 A 
ATOM      2  C   UNL     1      10.104  -0.544  22.049  0.00  0.00    +0.025 A 
ATOM      3  C   UNL     1       9.547  -1.802  22.287  0.00  0.00    +0.017 A 
ATOM      4  C   UNL     1       8.193  -1.935  22.594  0.00  0.00    +0.016 A 
ATOM      5  C   UNL     1       7.399  -0.784  22.600  0.00  0.00    +0.030 A 
ATOM      6  C   UNL     1       7.957   0.499  22.413  0.00  0.00    +0.059 A 
ENDROOT
BRANCH   6   7
ATOM      7  C   UNL     1       7.067   1.716  22.495  0.00  0.00    +0.252 C 
ATOM      8  N   UNL     1       6.239   1.787  23.599  0.00  0.00    -0.261 N 
ATOM      9  H   UNL     1       6.259   1.103  24.339  0.00  0.00    +0.157 HD
ATOM     10  C   UNL     1       5.324   2.795  23.755  0.00  0.00    +0.165 A 
ATOM     11  S   UNL     1       4.265   2.573  25.076  0.00  0.00    -0.060 S 
ATOM     12  C   UNL     1       3.448   4.019  24.639  0.00  0.00    +0.071 A 
ATOM     13  C   UNL     1       4.078   4.603  23.555  0.00  0.00    +0.047 A 
ATOM     14  C   UNL     1       3.726   5.897  22.917  0.00  0.00    +0.066 C 
ATOM     15  N   UNL     1       5.136   3.875  23.043  0.00  0.00    -0.230 NA
ATOM     16  O   UNL     1       7.142   2.559  21.605  0.00  0.00    -0.270 OA
ENDBRANCH   6   7
BRANCH   1  18
ATOM     17  C   UNL     1      10.568   2.629  22.921  0.00  0.00    +0.125 C 
ATOM     18  N   UNL     1       9.940   1.867  21.859  0.00  0.00    -0.346 N 
ATOM     19  H   UNL     1       9.400   2.423  21.183  0.00  0.00    +0.146 HD
ENDBRANCH   1  18
BRANCH   4  20
ATOM     20  S   UNL     1       7.567  -3.587  22.830  0.00  0.00    -0.050 S 
BRANCH  20  21
ATOM     21  C   UNL     1       8.293  -4.108  24.311  0.00  0.00    +0.196 A 
ATOM     22  N   UNL     1       7.812  -3.724  25.534  0.00  0.00    -0.311 N 
ATOM     23  C   UNL     1       6.621  -2.979  25.831  0.00  0.00    +0.152 C 
ATOM     24  C   UNL     1       8.700  -4.207  26.450  0.00  0.00    +0.225 A 
ATOM     25  N   UNL     1       9.634  -4.897  25.836  0.00  0.00    -0.137 NA
ATOM     26  N   UNL     1       9.368  -4.843  24.485  0.00  0.00    -0.122 NA
ENDBRANCH  20  21
ENDBRANCH   4  20
TORSDOF 4
ENDMDL
MODEL 5
REMARK VINA RESULT:      -6.3      3.060      7.683
REMARK  Name = 
REMARK  7 active torsions:
REMARK  status: ('A' for Active; 'I' for Inactive)
REMARK    1  A    between atoms: C_1  and  N_2
REMARK    2  A    between atoms: N_2  and  C_3
REMARK    3  A    between atoms: C_4  and  C_16
REMARK    4  A    between atoms: C_6  and  S_7
REMARK    5  A    between atoms: S_7  and  C_8
REMARK    6  A    between atoms: N_12  and  C_13
REMARK    7  A    between atoms: C_21  and  C_22
REMARK                            x       y       z     vdW  Elec       q    Type
REMARK                         _______ _______ _______ _____ _____    ______ ____
ROOT
ATOM      1  C   UNL     1       9.184  -0.547  23.490  0.00  0.00    +0.039 A 
ATOM      2  C   UNL     1       9.215  -1.917  23.793  0.00  0.00    +0.025 A 
ATOM      3  C   UNL     1       8.045  -2.669  23.922  0.00  0.00    +0.017 A 
ATOM      4  C   UNL     1       6.795  -2.082  23.722  0.00  0.00    +0.016 A 
ATOM      5  C   UNL     1       6.748  -0.741  23.334  0.00  0.00    +0.030 A 
ATOM      6  C   UNL     1       7.917   0.046  23.250  0.00  0.00    +0.059 A 
ENDROOT
BRANCH   6   7
ATOM      7  C   UNL     1       7.806   1.508  22.891  0.00  0.00    +0.252 C 
ATOM      8  N   UNL     1       6.985   2.270  23.701  0.00  0.00    -0.261 N 
ATOM      9  H   UNL     1       6.528   1.895  24.518  0.00  0.00    +0.157 HD
ATOM     10  C   UNL     1       6.731   3.591  23.439  0.00  0.00    +0.165 A 
ATOM     11  S   UNL     1       5.530   4.278  24.440  0.00  0.00    -0.060 S 
ATOM     12  C   UNL     1       5.679   5.752  23.572  0.00  0.00    +0.071 A 
ATOM     13  C   UNL     1       6.677   5.638  22.621  0.00  0.00    +0.047 A 
ATOM     14  C   UNL     1       7.164   6.706  21.713  0.00  0.00    +0.066 C 
ATOM     15  N   UNL     1       7.253   4.383  22.539  0.00  0.00    -0.230 NA
ATOM     16  O   UNL     1       8.448   1.928  21.932  0.00  0.00    -0.270 OA
ENDBRANCH   6   7
BRANCH   1  18
ATOM     17  C   UNL     1      11.001   0.799  24.485  0.00  0.00    +0.125 C 
ATOM     18  N   UNL     1      10.385   0.158  23.340  0.00  0.00    -0.346 N 
ATOM     19  H   UNL     1      10.419   0.697  22.466  0.00  0.00    +0.146 HD
ENDBRANCH   1  18
BRANCH   4  20
ATOM     20  S   UNL     1       5.366  -3.139  23.860  0.00  0.00    -0.050 S 
BRANCH  20  21
ATOM     21  C   UNL     1       5.532  -4.250  22.545  0.00  0.00    +0.196 A 
ATOM     22  N   UNL     1       5.448  -5.605  22.720  0.00  0.00    -0.311 N 
ATOM     23  C   UNL     1       5.099  -6.332  23.908  0.00  0.00    +0.152 C 
ATOM     24  C   UNL     1       5.758  -6.155  21.510  0.00  0.00    +0.225 A 
ATOM     25  N   UNL     1       5.959  -5.200  20.630  0.00  0.00    -0.137 NA
ATOM     26  N   UNL     1       5.805  -3.996  21.285  0.00  0.00    -0.122 NA
ENDBRANCH  20  21
ENDBRANCH   4  20
TORSDOF 4
ENDMDL
MODEL 6
REMARK VINA RESULT:      -6.3      2.834      3.814
REMARK  Name = 
REMARK  7 active torsions:
REMARK  status: ('A' for Active; 'I' for Inactive)
REMARK    1  A    between atoms: C_1  and  N_2
REMARK    2  A    between atoms: N_2  and  C_3
REMARK    3  A    between atoms: C_4  and  C_16
REMARK    4  A    between atoms: C_6  and  S_7
REMARK    5  A    between atoms: S_7  and  C_8
REMARK    6  A    between atoms: N_12  and  C_13
REMARK    7  A    between atoms: C_21  and  C_22
REMARK                            x       y       z     vdW  Elec       q    Type
REMARK                         _______ _______ _______ _____ _____    ______ ____
ROOT
ATOM      1  C   UNL     1       8.289  -2.833  23.095  0.00  0.00    +0.039 A 
ATOM      2  C   UNL     1       8.836  -1.963  22.138  0.00  0.00    +0.025 A 
ATOM      3  C   UNL     1       9.579  -0.839  22.505  0.00  0.00    +0.017 A 
ATOM      4  C   UNL     1       9.831  -0.559  23.848  0.00  0.00    +0.016 A 
ATOM      5  C   UNL     1       9.370  -1.461  24.810  0.00  0.00    +0.030 A 
ATOM      6  C   UNL     1       8.573  -2.572  24.461  0.00  0.00    +0.059 A 
ENDROOT
BRANCH   6   7
ATOM      7  C   UNL     1       8.044  -3.479  25.545  0.00  0.00    +0.252 C 
ATOM      8  N   UNL     1       6.804  -3.148  26.059  0.00  0.00    -0.261 N 
ATOM      9  H   UNL     1       6.254  -2.384  25.701  0.00  0.00    +0.157 HD
ATOM     10  C   UNL     1       6.245  -3.838  27.103  0.00  0.00    +0.165 A 
ATOM     11  S   UNL     1       4.815  -3.132  27.714  0.00  0.00    -0.060 S 
ATOM     12  C   UNL     1       4.745  -4.360  28.913  0.00  0.00    +0.071 A 
ATOM     13  C   UNL     1       5.781  -5.258  28.725  0.00  0.00    +0.047 A 
ATOM     14  C   UNL     1       6.033  -6.496  29.504  0.00  0.00    +0.066 C 
ATOM     15  N   UNL     1       6.648  -4.930  27.699  0.00  0.00    -0.230 NA
ATOM     16  O   UNL     1       8.722  -4.444  25.887  0.00  0.00    -0.270 OA
ENDBRANCH   6   7
BRANCH   1  18
ATOM     17  C   UNL     1       6.263  -3.818  22.079  0.00  0.00    +0.125 C 
ATOM     18  N   UNL     1       7.576  -3.963  22.677  0.00  0.00    -0.346 N 
ATOM     19  H   UNL     1       7.675  -4.754  23.326  0.00  0.00    +0.146 HD
ENDBRANCH   1  18
BRANCH   4  20
ATOM     20  S   UNL     1      10.835   0.870  24.209  0.00  0.00    -0.050 S 
BRANCH  20  21
ATOM     21  C   UNL     1       9.716   2.189  24.191  0.00  0.00    +0.196 A 
ATOM     22  N   UNL     1      10.093   3.461  23.853  0.00  0.00    -0.311 N 
ATOM     23  C   UNL     1      11.361   3.913  23.353  0.00  0.00    +0.152 C 
ATOM     24  C   UNL     1       9.000   4.245  24.079  0.00  0.00    +0.225 A 
ATOM     25  N   UNL     1       7.994   3.495  24.471  0.00  0.00    -0.137 NA
ATOM     26  N   UNL     1       8.447   2.194  24.530  0.00  0.00    -0.122 NA
ENDBRANCH  20  21
ENDBRANCH   4  20
TORSDOF 4
ENDMDL
MODEL 7
REMARK VINA RESULT:      -6.0      3.079      8.194
REMARK  Name = 
REMARK  7 active torsions:
REMARK  status: ('A' for Active; 'I' for Inactive)
REMARK    1  A    between atoms: C_1  and  N_2
REMARK    2  A    between atoms: N_2  and  C_3
REMARK    3  A    between atoms: C_4  and  C_16
REMARK    4  A    between atoms: C_6  and  S_7
REMARK    5  A    between atoms: S_7  and  C_8
REMARK    6  A    between atoms: N_12  and  C_13
REMARK    7  A    between atoms: C_21  and  C_22
REMARK                            x       y       z     vdW  Elec       q    Type
REMARK                         _______ _______ _______ _____ _____    ______ ____
ROOT
ATOM      1  C   UNL     1       9.281  -1.730  23.814  0.00  0.00    +0.039 A 
ATOM      2  C   UNL     1       8.701  -2.995  23.996  0.00  0.00    +0.025 A 
ATOM      3  C   UNL     1       7.744  -3.231  24.985  0.00  0.00    +0.017 A 
ATOM      4  C   UNL     1       7.308  -2.198  25.814  0.00  0.00    +0.016 A 
ATOM      5  C   UNL     1       7.809  -0.913  25.592  0.00  0.00    +0.030 A 
ATOM      6  C   UNL     1       8.814  -0.668  24.631  0.00  0.00    +0.059 A 
ENDROOT
BRANCH   6   7
ATOM      7  C   UNL     1       9.371   0.727  24.475  0.00  0.00    +0.252 C 
ATOM      8  N   UNL     1       8.442   1.730  24.271  0.00  0.00    -0.261 N 
ATOM      9  H   UNL     1       7.449   1.561  24.281  0.00  0.00    +0.157 HD
ATOM     10  C   UNL     1       8.816   3.027  24.032  0.00  0.00    +0.165 A 
ATOM     11  S   UNL     1       7.522   4.054  23.600  0.00  0.00    -0.060 S 
ATOM     12  C   UNL     1       8.639   5.342  23.398  0.00  0.00    +0.071 A 
ATOM     13  C   UNL     1       9.911   4.917  23.735  0.00  0.00    +0.047 A 
ATOM     14  C   UNL     1      11.144   5.743  23.763  0.00  0.00    +0.066 C 
ATOM     15  N   UNL     1      10.001   3.578  24.071  0.00  0.00    -0.230 NA
ATOM     16  O   UNL     1      10.586   0.886  24.553  0.00  0.00    -0.270 OA
ENDBRANCH   6   7
BRANCH   1  18
ATOM     17  C   UNL     1       9.781  -1.068  21.486  0.00  0.00    +0.125 C 
ATOM     18  N   UNL     1      10.215  -1.536  22.788  0.00  0.00    -0.346 N 
ATOM     19  H   UNL     1      10.939  -2.265  22.771  0.00  0.00    +0.146 HD
ENDBRANCH   1  18
BRANCH   4  20
ATOM     20  S   UNL     1       6.046  -2.590  27.012  0.00  0.00    -0.050 S 
BRANCH  20  21
ATOM     21  C   UNL     1       6.070  -4.317  27.103  0.00  0.00    +0.196 A 
ATOM     22  N   UNL     1       5.205  -5.098  26.385  0.00  0.00    -0.311 N 
ATOM     23  C   UNL     1       4.260  -4.694  25.383  0.00  0.00    +0.152 C 
ATOM     24  C   UNL     1       5.423  -6.377  26.807  0.00  0.00    +0.225 A 
ATOM     25  N   UNL     1       6.403  -6.392  27.683  0.00  0.00    -0.137 NA
ATOM     26  N   UNL     1       6.817  -5.089  27.860  0.00  0.00    -0.122 NA
ENDBRANCH  20  21
ENDBRANCH   4  20
TORSDOF 4
ENDMDL
MODEL 8
REMARK VINA RESULT:      -6.0      2.369      8.086
REMARK  Name = 
REMARK  7 active torsions:
REMARK  status: ('A' for Active; 'I' for Inactive)
REMARK    1  A    between atoms: C_1  and  N_2
REMARK    2  A    between atoms: N_2  and  C_3
REMARK    3  A    between atoms: C_4  and  C_16
REMARK    4  A    between atoms: C_6  and  S_7
REMARK    5  A    between atoms: S_7  and  C_8
REMARK    6  A    between atoms: N_12  and  C_13
REMARK    7  A    between atoms: C_21  and  C_22
REMARK                            x       y       z     vdW  Elec       q    Type
REMARK                         _______ _______ _______ _____ _____    ______ ____
ROOT
ATOM      1  C   UNL     1       7.194  -4.364  25.739  0.00  0.00    +0.039 A 
ATOM      2  C   UNL     1       6.539  -5.603  25.818  0.00  0.00    +0.025 A 
ATOM      3  C   UNL     1       5.346  -5.850  25.135  0.00  0.00    +0.017 A 
ATOM      4  C   UNL     1       4.776  -4.873  24.320  0.00  0.00    +0.016 A 
ATOM      5  C   UNL     1       5.458  -3.664  24.160  0.00  0.00    +0.030 A 
ATOM      6  C   UNL     1       6.637  -3.379  24.882  0.00  0.00    +0.059 A 
ENDROOT
BRANCH   6   7
ATOM      7  C   UNL     1       7.299  -2.032  24.724  0.00  0.00    +0.252 C 
ATOM      8  N   UNL     1       7.830  -1.760  23.477  0.00  0.00    -0.261 N 
ATOM      9  H   UNL     1       7.737  -2.392  22.698  0.00  0.00    +0.157 HD
ATOM     10  C   UNL     1       8.530  -0.610  23.222  0.00  0.00    +0.165 A 
ATOM     11  S   UNL     1       9.274  -0.578  21.685  0.00  0.00    -0.060 S 
ATOM     12  C   UNL     1       9.954   0.951  22.068  0.00  0.00    +0.071 A 
ATOM     13  C   UNL     1       9.517   1.359  23.316  0.00  0.00    +0.047 A 
ATOM     14  C   UNL     1       9.819   2.651  23.983  0.00  0.00    +0.066 C 
ATOM     15  N   UNL     1       8.722   0.440  23.976  0.00  0.00    -0.230 NA
ATOM     16  O   UNL     1       7.314  -1.268  25.686  0.00  0.00    -0.270 OA
ENDBRANCH   6   7
BRANCH   1  18
ATOM     17  C   UNL     1       9.606  -4.848  25.967  0.00  0.00    +0.125 C 
ATOM     18  N   UNL     1       8.404  -4.174  26.417  0.00  0.00    -0.346 N 
ATOM     19  H   UNL     1       8.282  -4.135  27.437  0.00  0.00    +0.146 HD
ENDBRANCH   1  18
BRANCH   4  20
ATOM     20  S   UNL     1       3.280  -5.305  23.452  0.00  0.00    -0.050 S 
BRANCH  20  21
ATOM     21  C   UNL     1       2.699  -6.707  24.280  0.00  0.00    +0.196 A 
ATOM     22  N   UNL     1       1.974  -6.623  25.438  0.00  0.00    -0.311 N 
ATOM     23  C   UNL     1       1.466  -5.448  26.089  0.00  0.00    +0.152 C 
ATOM     24  C   UNL     1       1.810  -7.907  25.867  0.00  0.00    +0.225 A 
ATOM     25  N   UNL     1       2.344  -8.735  24.997  0.00  0.00    -0.137 NA
ATOM     26  N   UNL     1       2.896  -7.973  23.989  0.00  0.00    -0.122 NA
ENDBRANCH  20  21
ENDBRANCH   4  20
TORSDOF 4
ENDMDL
MODEL 9
REMARK VINA RESULT:      -6.0      3.079      6.767
REMARK  Name = 
REMARK  7 active torsions:
REMARK  status: ('A' for Active; 'I' for Inactive)
REMARK    1  A    between atoms: C_1  and  N_2
REMARK    2  A    between atoms: N_2  and  C_3
REMARK    3  A    between atoms: C_4  and  C_16
REMARK    4  A    between atoms: C_6  and  S_7
REMARK    5  A    between atoms: S_7  and  C_8
REMARK    6  A    between atoms: N_12  and  C_13
REMARK    7  A    between atoms: C_21  and  C_22
REMARK                            x       y       z     vdW  Elec       q    Type
REMARK                         _______ _______ _______ _____ _____    ______ ____
ROOT
ATOM      1  C   UNL     1       9.580   0.723  22.454  0.00  0.00    +0.039 A 
ATOM      2  C   UNL     1      10.497  -0.334  22.562  0.00  0.00    +0.025 A 
ATOM      3  C   UNL     1      10.106  -1.606  22.986  0.00  0.00    +0.017 A 
ATOM      4  C   UNL     1       8.772  -1.877  23.291  0.00  0.00    +0.016 A 
ATOM      5  C   UNL     1       7.831  -0.861  23.105  0.00  0.00    +0.030 A 
ATOM      6  C   UNL     1       8.216   0.444  22.727  0.00  0.00    +0.059 A 
ENDROOT
BRANCH   6   7
ATOM      7  C   UNL     1       7.168   1.523  22.605  0.00  0.00    +0.252 C 
ATOM      8  N   UNL     1       6.358   1.709  23.710  0.00  0.00    -0.261 N 
ATOM      9  H   UNL     1       6.486   1.199  24.569  0.00  0.00    +0.157 HD
ATOM     10  C   UNL     1       5.315   2.598  23.702  0.00  0.00    +0.165 A 
ATOM     11  S   UNL     1       4.322   2.513  25.089  0.00  0.00    -0.060 S 
ATOM     12  C   UNL     1       3.305   3.718  24.410  0.00  0.00    +0.071 A 
ATOM     13  C   UNL     1       3.827   4.146  23.202  0.00  0.00    +0.047 A 
ATOM     14  C   UNL     1       3.287   5.223  22.335  0.00  0.00    +0.066 C 
ATOM     15  N   UNL     1       4.967   3.475  22.798  0.00  0.00    -0.230 NA
ATOM     16  O   UNL     1       7.109   2.169  21.562  0.00  0.00    -0.270 OA
ENDBRANCH   6   7
BRANCH   1  18
ATOM     17  C   UNL     1      10.576   2.937  22.922  0.00  0.00    +0.125 C 
ATOM     18  N   UNL     1      10.015   1.973  21.995  0.00  0.00    -0.346 N 
ATOM     19  H   UNL     1       9.392   2.368  21.278  0.00  0.00    +0.146 HD
ENDBRANCH   1  18
BRANCH   4  20
ATOM     20  S   UNL     1       8.367  -3.545  23.773  0.00  0.00    -0.050 S 
BRANCH  20  21
ATOM     21  C   UNL     1       6.719  -3.739  23.285  0.00  0.00    +0.196 A 
ATOM     22  N   UNL     1       5.684  -3.713  24.181  0.00  0.00    -0.311 N 
ATOM     23  C   UNL     1       5.727  -3.408  25.584  0.00  0.00    +0.152 C 
ATOM     24  C   UNL     1       4.566  -4.030  23.467  0.00  0.00    +0.225 A 
ATOM     25  N   UNL     1       4.882  -4.182  22.200  0.00  0.00    -0.137 NA
ATOM     26  N   UNL     1       6.242  -3.986  22.086  0.00  0.00    -0.122 NA
ENDBRANCH  20  21
ENDBRANCH   4  20
TORSDOF 4
ENDMDL
