MODEL 1
REMARK VINA RESULT:      -5.6      0.000      0.000
REMARK  Name = 
REMARK  9 active torsions:
REMARK  status: ('A' for Active; 'I' for Inactive)
REMARK    1  A    between atoms: C_1  and  C_2
REMARK    2  A    between atoms: C_2  and  C_3
REMARK    3  A    between atoms: C_2  and  N_4
REMARK    4  A    between atoms: N_4  and  C_5
REMARK    5  A    between atoms: C_5  and  C_6
REMARK    6  A    between atoms: C_6  and  O_7
REMARK    7  A    between atoms: C_6  and  C_8
REMARK    8  A    between atoms: C_8  and  O_9
REMARK    9  A    between atoms: O_9  and  C_10
REMARK                            x       y       z     vdW  Elec       q    Type
REMARK                         _______ _______ _______ _____ _____    ______ ____
ROOT
ATOM      1  C   UNL     1       9.646  -3.205  24.289  0.00  0.00    +0.261 C 
ENDROOT
BRANCH   1   2
ATOM      2  C   UNL     1       9.175  -4.442  25.071  0.00  0.00    +0.166 C 
BRANCH   2   3
ATOM      3  O   UNL     1      10.144  -5.500  25.049  0.00  0.00    -0.387 OA
ATOM      4  H   UNL     1      10.383  -5.675  24.125  0.00  0.00    +0.210 HD
ENDBRANCH   2   3
BRANCH   2   5
ATOM      5  C   UNL     1       7.863  -4.941  24.423  0.00  0.00    +0.115 C 
BRANCH   5   6
ATOM      6  N   UNL     1       7.775  -4.552  23.015  0.00  0.00    -0.311 NA
ATOM      7  H   UNL     1       8.105  -3.586  22.933  0.00  0.00    +0.122 HD
BRANCH   6   9
ATOM      8  C   UNL     1       5.952  -3.296  22.027  0.00  0.00    +0.023 C 
ATOM      9  C   UNL     1       6.428  -4.686  22.453  0.00  0.00    +0.048 C 
ATOM     10  C   UNL     1       6.394  -5.629  21.246  0.00  0.00    +0.023 C 
ENDBRANCH   6   9
ENDBRANCH   5   6
ENDBRANCH   2   5
ENDBRANCH   1   2
BRANCH   1  11
ATOM     11  O   UNL     1       8.765  -2.090  24.459  0.00  0.00    -0.489 OA
BRANCH  11  12
ATOM     12  C   UNL     1       8.950  -1.107  23.517  0.00  0.00    +0.128 A 
ATOM     13  C   UNL     1       8.814   0.220  23.904  0.00  0.00    +0.020 A 
ATOM     14  C   UNL     1       8.481   0.806  25.197  0.00  0.00    +0.008 C 
ATOM     15  C   UNL     1       8.500   2.144  25.064  0.00  0.00    -0.021 C 
ATOM     16  C   UNL     1       8.854   2.586  23.667  0.00  0.00    +0.063 C 
ATOM     17  C   UNL     1       9.031   1.264  22.987  0.00  0.00    -0.033 A 
ATOM     18  C   UNL     1       9.365   1.017  21.666  0.00  0.00    +0.005 A 
ATOM     19  C   UNL     1       9.460  -0.310  21.257  0.00  0.00    +0.004 A 
ATOM     20  C   UNL     1       9.247  -1.359  22.168  0.00  0.00    +0.046 A 
ENDBRANCH  11  12
ENDBRANCH   1  11
TORSDOF 7
ENDMDL
MODEL 2
REMARK VINA RESULT:      -5.5      2.233      5.652
REMARK  Name = 
REMARK  9 active torsions:
REMARK  status: ('A' for Active; 'I' for Inactive)
REMARK    1  A    between atoms: C_1  and  C_2
REMARK    2  A    between atoms: C_2  and  C_3
REMARK    3  A    between atoms: C_2  and  N_4
REMARK    4  A    between atoms: N_4  and  C_5
REMARK    5  A    between atoms: C_5  and  C_6
REMARK    6  A    between atoms: C_6  and  O_7
REMARK    7  A    between atoms: C_6  and  C_8
REMARK    8  A    between atoms: C_8  and  O_9
REMARK    9  A    between atoms: O_9  and  C_10
REMARK                            x       y       z     vdW  Elec       q    Type
REMARK                         _______ _______ _______ _____ _____    ______ ____
ROOT
ATOM      1  C   UNL     1       9.579  -0.287  22.019  0.00  0.00    +0.261 C 
ENDROOT
BRANCH   1   2
ATOM      2  C   UNL     1       8.951   1.081  21.706  0.00  0.00    +0.166 C 
BRANCH   2   3
ATOM      3  O   UNL     1       9.942   2.079  21.420  0.00  0.00    -0.387 OA
ATOM      4  H   UNL     1      10.817   1.666  21.480  0.00  0.00    +0.210 HD
ENDBRANCH   2   3
BRANCH   2   5
ATOM      5  C   UNL     1       8.128   1.519  22.939  0.00  0.00    +0.115 C 
BRANCH   5   6
ATOM      6  N   UNL     1       6.967   0.654  23.146  0.00  0.00    -0.311 NA
ATOM      7  H   UNL     1       6.163   1.087  22.683  0.00  0.00    +0.122 HD
BRANCH   6   9
ATOM      8  C   UNL     1       5.843  -0.884  24.646  0.00  0.00    +0.023 C 
ATOM      9  C   UNL     1       6.671   0.399  24.559  0.00  0.00    +0.048 C 
ATOM     10  C   UNL     1       7.943   0.244  25.399  0.00  0.00    +0.023 C 
ENDBRANCH   6   9
ENDBRANCH   5   6
ENDBRANCH   2   5
ENDBRANCH   1   2
BRANCH   1  11
ATOM     11  O   UNL     1       8.692  -1.371  21.715  0.00  0.00    -0.489 OA
BRANCH  11  12
ATOM     12  C   UNL     1       8.695  -2.355  22.675  0.00  0.00    +0.128 A 
ATOM     13  C   UNL     1       7.639  -3.256  22.706  0.00  0.00    +0.020 A 
ATOM     14  C   UNL     1       6.449  -3.357  21.871  0.00  0.00    +0.008 C 
ATOM     15  C   UNL     1       5.739  -4.421  22.287  0.00  0.00    -0.021 C 
ATOM     16  C   UNL     1       6.391  -5.143  23.439  0.00  0.00    +0.063 C 
ATOM     17  C   UNL     1       7.614  -4.303  23.644  0.00  0.00    -0.033 A 
ATOM     18  C   UNL     1       8.619  -4.468  24.581  0.00  0.00    +0.005 A 
ATOM     19  C   UNL     1       9.660  -3.544  24.587  0.00  0.00    +0.004 A 
ATOM     20  C   UNL     1       9.694  -2.495  23.651  0.00  0.00    +0.046 A 
ENDBRANCH  11  12
ENDBRANCH   1  11
TORSDOF 7
ENDMDL
MODEL 3
REMARK VINA RESULT:      -5.5      1.978      6.282
REMARK  Name = 
REMARK  9 active torsions:
REMARK  status: ('A' for Active; 'I' for Inactive)
REMARK    1  A    between atoms: C_1  and  C_2
REMARK    2  A    between atoms: C_2  and  C_3
REMARK    3  A    between atoms: C_2  and  N_4
REMARK    4  A    between atoms: N_4  and  C_5
REMARK    5  A    between atoms: C_5  and  C_6
REMARK    6  A    between atoms: C_6  and  O_7
REMARK    7  A    between atoms: C_6  and  C_8
REMARK    8  A    between atoms: C_8  and  O_9
REMARK    9  A    between atoms: O_9  and  C_10
REMARK                            x       y       z     vdW  Elec       q    Type
REMARK                         _______ _______ _______ _____ _____    ______ ____
ROOT
ATOM      1  C   UNL     1       9.441  -2.440  23.929  0.00  0.00    +0.261 C 
ENDROOT
BRANCH   1   2
ATOM      2  C   UNL     1       9.267  -1.953  22.482  0.00  0.00    +0.166 C 
BRANCH   2   3
ATOM      3  O   UNL     1      10.526  -1.774  21.815  0.00  0.00    -0.387 OA
ATOM      4  H   UNL     1      10.433  -2.086  20.901  0.00  0.00    +0.210 HD
ENDBRANCH   2   3
BRANCH   2   5
ATOM      5  C   UNL     1       8.517  -0.602  22.522  0.00  0.00    +0.115 C 
BRANCH   5   6
ATOM      6  N   UNL     1       8.765   0.115  23.773  0.00  0.00    -0.311 NA
ATOM      7  H   UNL     1       7.861   0.400  24.159  0.00  0.00    +0.122 HD
BRANCH   6   9
ATOM      8  C   UNL     1      10.994   0.938  24.259  0.00  0.00    +0.023 C 
ATOM      9  C   UNL     1       9.647   1.276  23.616  0.00  0.00    +0.048 C 
ATOM     10  C   UNL     1       9.864   1.645  22.145  0.00  0.00    +0.023 C 
ENDBRANCH   6   9
ENDBRANCH   5   6
ENDBRANCH   2   5
ENDBRANCH   1   2
BRANCH   1  11
ATOM     11  O   UNL     1       9.454  -3.869  24.021  0.00  0.00    -0.489 OA
BRANCH  11  12
ATOM     12  C   UNL     1       8.339  -4.380  24.640  0.00  0.00    +0.128 A 
ATOM     13  C   UNL     1       7.357  -4.973  23.857  0.00  0.00    +0.020 A 
ATOM     14  C   UNL     1       7.273  -5.159  22.414  0.00  0.00    +0.008 C 
ATOM     15  C   UNL     1       6.131  -5.817  22.146  0.00  0.00    -0.021 C 
ATOM     16  C   UNL     1       5.340  -6.143  23.387  0.00  0.00    +0.063 C 
ATOM     17  C   UNL     1       6.215  -5.546  24.446  0.00  0.00    -0.033 A 
ATOM     18  C   UNL     1       6.011  -5.524  25.814  0.00  0.00    +0.005 A 
ATOM     19  C   UNL     1       6.967  -4.893  26.604  0.00  0.00    +0.004 A 
ATOM     20  C   UNL     1       8.113  -4.320  26.024  0.00  0.00    +0.046 A 
ENDBRANCH  11  12
ENDBRANCH   1  11
TORSDOF 7
ENDMDL
MODEL 4
REMARK VINA RESULT:      -5.5      1.703      3.389
REMARK  Name = 
REMARK  9 active torsions:
REMARK  status: ('A' for Active; 'I' for Inactive)
REMARK    1  A    between atoms: C_1  and  C_2
REMARK    2  A    between atoms: C_2  and  C_3
REMARK    3  A    between atoms: C_2  and  N_4
REMARK    4  A    between atoms: N_4  and  C_5
REMARK    5  A    between atoms: C_5  and  C_6
REMARK    6  A    between atoms: C_6  and  O_7
REMARK    7  A    between atoms: C_6  and  C_8
REMARK    8  A    between atoms: C_8  and  O_9
REMARK    9  A    between atoms: O_9  and  C_10
REMARK                            x       y       z     vdW  Elec       q    Type
REMARK                         _______ _______ _______ _____ _____    ______ ____
ROOT
ATOM      1  C   UNL     1       6.977  -2.701  22.744  0.00  0.00    +0.261 C 
ENDROOT
BRANCH   1   2
ATOM      2  C   UNL     1       6.735  -4.028  22.006  0.00  0.00    +0.166 C 
BRANCH   2   3
ATOM      3  O   UNL     1       5.361  -4.194  21.625  0.00  0.00    -0.387 OA
ATOM      4  H   UNL     1       5.241  -3.808  20.744  0.00  0.00    +0.210 HD
ENDBRANCH   2   3
BRANCH   2   5
ATOM      5  C   UNL     1       7.143  -5.179  22.953  0.00  0.00    +0.115 C 
BRANCH   5   6
ATOM      6  N   UNL     1       8.409  -4.895  23.631  0.00  0.00    -0.311 NA
ATOM      7  H   UNL     1       9.166  -5.287  23.064  0.00  0.00    +0.122 HD
BRANCH   6   9
ATOM      8  C   UNL     1       9.824  -5.030  25.595  0.00  0.00    +0.023 C 
ATOM      9  C   UNL     1       8.468  -5.416  25.001  0.00  0.00    +0.048 C 
ATOM     10  C   UNL     1       7.347  -4.857  25.883  0.00  0.00    +0.023 C 
ENDBRANCH   6   9
ENDBRANCH   5   6
ENDBRANCH   2   5
ENDBRANCH   1   2
BRANCH   1  11
ATOM     11  O   UNL     1       8.231  -2.107  22.389  0.00  0.00    -0.489 OA
BRANCH  11  12
ATOM     12  C   UNL     1       8.723  -1.267  23.359  0.00  0.00    +0.128 A 
ATOM     13  C   UNL     1       9.276  -0.054  22.970  0.00  0.00    +0.020 A 
ATOM     14  C   UNL     1       9.457   0.530  21.647  0.00  0.00    +0.008 C 
ATOM     15  C   UNL     1      10.020   1.741  21.801  0.00  0.00    -0.021 C 
ATOM     16  C   UNL     1      10.268   2.090  23.246  0.00  0.00    +0.063 C 
ATOM     17  C   UNL     1       9.759   0.857  23.927  0.00  0.00    -0.033 A 
ATOM     18  C   UNL     1       9.724   0.579  25.282  0.00  0.00    +0.005 A 
ATOM     19  C   UNL     1       9.211  -0.653  25.680  0.00  0.00    +0.004 A 
ATOM     20  C   UNL     1       8.725  -1.568  24.730  0.00  0.00    +0.046 A 
ENDBRANCH  11  12
ENDBRANCH   1  11
TORSDOF 7
ENDMDL
MODEL 5
REMARK VINA RESULT:      -5.5      2.863      4.776
REMARK  Name = 
REMARK  9 active torsions:
REMARK  status: ('A' for Active; 'I' for Inactive)
REMARK    1  A    between atoms: C_1  and  C_2
REMARK    2  A    between atoms: C_2  and  C_3
REMARK    3  A    between atoms: C_2  and  N_4
REMARK    4  A    between atoms: N_4  and  C_5
REMARK    5  A    between atoms: C_5  and  C_6
REMARK    6  A    between atoms: C_6  and  O_7
REMARK    7  A    between atoms: C_6  and  C_8
REMARK    8  A    between atoms: C_8  and  O_9
REMARK    9  A    between atoms: O_9  and  C_10
REMARK                            x       y       z     vdW  Elec       q    Type
REMARK                         _______ _______ _______ _____ _____    ______ ____
ROOT
ATOM      1  C   UNL     1       8.987  -3.591  25.871  0.00  0.00    +0.261 C 
ENDROOT
BRANCH   1   2
ATOM      2  C   UNL     1       8.667  -4.863  26.672  0.00  0.00    +0.166 C 
BRANCH   2   3
ATOM      3  O   UNL     1       9.077  -6.054  25.985  0.00  0.00    -0.387 OA
ATOM      4  H   UNL     1       9.088  -5.868  25.033  0.00  0.00    +0.210 HD
ENDBRANCH   2   3
BRANCH   2   5
ATOM      5  C   UNL     1       7.139  -4.909  26.901  0.00  0.00    +0.115 C 
BRANCH   5   6
ATOM      6  N   UNL     1       6.518  -6.017  26.174  0.00  0.00    -0.311 NA
ATOM      7  H   UNL     1       7.024  -6.139  25.292  0.00  0.00    +0.122 HD
BRANCH   6   9
ATOM      8  C   UNL     1       4.865  -4.358  25.548  0.00  0.00    +0.023 C 
ATOM      9  C   UNL     1       5.087  -5.824  25.924  0.00  0.00    +0.048 C 
ATOM     10  C   UNL     1       4.569  -6.724  24.796  0.00  0.00    +0.023 C 
ENDBRANCH   6   9
ENDBRANCH   5   6
ENDBRANCH   2   5
ENDBRANCH   1   2
BRANCH   1  11
ATOM     11  O   UNL     1       9.160  -3.860  24.475  0.00  0.00    -0.489 OA
BRANCH  11  12
ATOM     12  C   UNL     1       8.072  -3.499  23.717  0.00  0.00    +0.128 A 
ATOM     13  C   UNL     1       7.459  -4.466  22.930  0.00  0.00    +0.020 A 
ATOM     14  C   UNL     1       7.775  -5.875  22.735  0.00  0.00    +0.008 C 
ATOM     15  C   UNL     1       6.864  -6.392  21.891  0.00  0.00    -0.021 C 
ATOM     16  C   UNL     1       5.842  -5.378  21.444  0.00  0.00    +0.063 C 
ATOM     17  C   UNL     1       6.320  -4.156  22.166  0.00  0.00    -0.033 A 
ATOM     18  C   UNL     1       5.778  -2.883  22.147  0.00  0.00    +0.005 A 
ATOM     19  C   UNL     1       6.411  -1.896  22.897  0.00  0.00    +0.004 A 
ATOM     20  C   UNL     1       7.549  -2.197  23.666  0.00  0.00    +0.046 A 
ENDBRANCH  11  12
ENDBRANCH   1  11
TORSDOF 7
ENDMDL
MODEL 6
REMARK VINA RESULT:      -5.4      0.840      2.442
REMARK  Name = 
REMARK  9 active torsions:
REMARK  status: ('A' for Active; 'I' for Inactive)
REMARK    1  A    between atoms: C_1  and  C_2
REMARK    2  A    between atoms: C_2  and  C_3
REMARK    3  A    between atoms: C_2  and  N_4
REMARK    4  A    between atoms: N_4  and  C_5
REMARK    5  A    between atoms: C_5  and  C_6
REMARK    6  A    between atoms: C_6  and  O_7
REMARK    7  A    between atoms: C_6  and  C_8
REMARK    8  A    between atoms: C_8  and  O_9
REMARK    9  A    between atoms: O_9  and  C_10
REMARK                            x       y       z     vdW  Elec       q    Type
REMARK                         _______ _______ _______ _____ _____    ______ ____
ROOT
ATOM      1  C   UNL     1       8.779  -3.581  25.616  0.00  0.00    +0.261 C 
ENDROOT
BRANCH   1   2
ATOM      2  C   UNL     1       8.903  -5.096  25.389  0.00  0.00    +0.166 C 
BRANCH   2   3
ATOM      3  O   UNL     1      10.267  -5.541  25.433  0.00  0.00    -0.387 OA
ATOM      4  H   UNL     1      10.359  -6.300  24.836  0.00  0.00    +0.210 HD
ENDBRANCH   2   3
BRANCH   2   5
ATOM      5  C   UNL     1       8.308  -5.418  23.999  0.00  0.00    +0.115 C 
BRANCH   5   6
ATOM      6  N   UNL     1       7.147  -4.577  23.703  0.00  0.00    -0.311 NA
ATOM      7  H   UNL     1       6.308  -5.079  24.005  0.00  0.00    +0.122 HD
BRANCH   6   9
ATOM      8  C   UNL     1       6.737  -5.467  21.485  0.00  0.00    +0.023 C 
ATOM      9  C   UNL     1       7.043  -4.202  22.289  0.00  0.00    +0.048 C 
ATOM     10  C   UNL     1       5.942  -3.164  22.045  0.00  0.00    +0.023 C 
ENDBRANCH   6   9
ENDBRANCH   5   6
ENDBRANCH   2   5
ENDBRANCH   1   2
BRANCH   1  11
ATOM     11  O   UNL     1       9.417  -2.825  24.581  0.00  0.00    -0.489 OA
BRANCH  11  12
ATOM     12  C   UNL     1       9.072  -1.494  24.594  0.00  0.00    +0.128 A 
ATOM     13  C   UNL     1       9.132  -0.780  23.404  0.00  0.00    +0.020 A 
ATOM     14  C   UNL     1       9.524  -1.195  22.063  0.00  0.00    +0.008 C 
ATOM     15  C   UNL     1       9.384  -0.137  21.244  0.00  0.00    -0.021 C 
ATOM     16  C   UNL     1       8.878   1.090  21.958  0.00  0.00    +0.063 C 
ATOM     17  C   UNL     1       8.753   0.573  23.358  0.00  0.00    -0.033 A 
ATOM     18  C   UNL     1       8.330   1.252  24.488  0.00  0.00    +0.005 A 
ATOM     19  C   UNL     1       8.310   0.558  25.694  0.00  0.00    +0.004 A 
ATOM     20  C   UNL     1       8.684  -0.796  25.749  0.00  0.00    +0.046 A 
ENDBRANCH  11  12
ENDBRANCH   1  11
TORSDOF 7
ENDMDL
MODEL 7
REMARK VINA RESULT:      -5.4      3.822      5.825
REMARK  Name = 
REMARK  9 active torsions:
REMARK  status: ('A' for Active; 'I' for Inactive)
REMARK    1  A    between atoms: C_1  and  C_2
REMARK    2  A    between atoms: C_2  and  C_3
REMARK    3  A    between atoms: C_2  and  N_4
REMARK    4  A    between atoms: N_4  and  C_5
REMARK    5  A    between atoms: C_5  and  C_6
REMARK    6  A    between atoms: C_6  and  O_7
REMARK    7  A    between atoms: C_6  and  C_8
REMARK    8  A    between atoms: C_8  and  O_9
REMARK    9  A    between atoms: O_9  and  C_10
REMARK                            x       y       z     vdW  Elec       q    Type
REMARK                         _______ _______ _______ _____ _____    ______ ____
ROOT
ATOM      1  C   UNL     1       4.400  -5.080  26.650  0.00  0.00    +0.261 C 
ENDROOT
BRANCH   1   2
ATOM      2  C   UNL     1       5.572  -6.058  26.830  0.00  0.00    +0.166 C 
BRANCH   2   3
ATOM      3  O   UNL     1       5.187  -7.239  27.549  0.00  0.00    -0.387 OA
ATOM      4  H   UNL     1       5.905  -7.887  27.477  0.00  0.00    +0.210 HD
ENDBRANCH   2   3
BRANCH   2   5
ATOM      5  C   UNL     1       6.685  -5.326  27.614  0.00  0.00    +0.115 C 
BRANCH   5   6
ATOM      6  N   UNL     1       8.016  -5.790  27.219  0.00  0.00    -0.311 NA
ATOM      7  H   UNL     1       8.512  -6.085  28.064  0.00  0.00    +0.122 HD
BRANCH   6   9
ATOM      8  C   UNL     1       8.953  -5.260  25.046  0.00  0.00    +0.023 C 
ATOM      9  C   UNL     1       8.794  -4.783  26.491  0.00  0.00    +0.048 C 
ATOM     10  C   UNL     1       8.118  -3.408  26.502  0.00  0.00    +0.023 C 
ENDBRANCH   6   9
ENDBRANCH   5   6
ENDBRANCH   2   5
ENDBRANCH   1   2
BRANCH   1  11
ATOM     11  O   UNL     1       3.983  -4.982  25.283  0.00  0.00    -0.489 OA
BRANCH  11  12
ATOM     12  C   UNL     1       4.808  -4.189  24.522  0.00  0.00    +0.128 A 
ATOM     13  C   UNL     1       5.550  -4.781  23.508  0.00  0.00    +0.020 A 
ATOM     14  C   UNL     1       5.634  -6.170  23.076  0.00  0.00    +0.008 C 
ATOM     15  C   UNL     1       6.476  -6.230  22.029  0.00  0.00    -0.021 C 
ATOM     16  C   UNL     1       7.034  -4.881  21.652  0.00  0.00    +0.063 C 
ATOM     17  C   UNL     1       6.380  -4.007  22.677  0.00  0.00    -0.033 A 
ATOM     18  C   UNL     1       6.509  -2.639  22.846  0.00  0.00    +0.005 A 
ATOM     19  C   UNL     1       5.805  -2.043  23.887  0.00  0.00    +0.004 A 
ATOM     20  C   UNL     1       4.971  -2.809  24.721  0.00  0.00    +0.046 A 
ENDBRANCH  11  12
ENDBRANCH   1  11
TORSDOF 7
ENDMDL
MODEL 8
REMARK VINA RESULT:      -5.3      2.092      5.705
REMARK  Name = 
REMARK  9 active torsions:
REMARK  status: ('A' for Active; 'I' for Inactive)
REMARK    1  A    between atoms: C_1  and  C_2
REMARK    2  A    between atoms: C_2  and  C_3
REMARK    3  A    between atoms: C_2  and  N_4
REMARK    4  A    between atoms: N_4  and  C_5
REMARK    5  A    between atoms: C_5  and  C_6
REMARK    6  A    between atoms: C_6  and  O_7
REMARK    7  A    between atoms: C_6  and  C_8
REMARK    8  A    between atoms: C_8  and  O_9
REMARK    9  A    between atoms: O_9  and  C_10
REMARK                            x       y       z     vdW  Elec       q    Type
REMARK                         _______ _______ _______ _____ _____    ______ ____
ROOT
ATOM      1  C   UNL     1       9.746  -2.483  23.955  0.00  0.00    +0.261 C 
ENDROOT
BRANCH   1   2
ATOM      2  C   UNL     1       9.225  -2.046  22.576  0.00  0.00    +0.166 C 
BRANCH   2   3
ATOM      3  O   UNL     1      10.281  -1.594  21.716  0.00  0.00    -0.387 OA
ATOM      4  H   UNL     1      10.136  -1.968  20.833  0.00  0.00    +0.210 HD
ENDBRANCH   2   3
BRANCH   2   5
ATOM      5  C   UNL     1       8.217  -0.895  22.793  0.00  0.00    +0.115 C 
BRANCH   5   6
ATOM      6  N   UNL     1       6.881  -1.402  23.109  0.00  0.00    -0.311 NA
ATOM      7  H   UNL     1       6.224  -1.010  22.429  0.00  0.00    +0.122 HD
BRANCH   6   9
ATOM      8  C   UNL     1       6.033   0.374  24.526  0.00  0.00    +0.023 C 
ATOM      9  C   UNL     1       6.448  -1.098  24.477  0.00  0.00    +0.048 C 
ATOM     10  C   UNL     1       5.273  -1.975  24.922  0.00  0.00    +0.023 C 
ENDBRANCH   6   9
ENDBRANCH   5   6
ENDBRANCH   2   5
ENDBRANCH   1   2
BRANCH   1  11
ATOM     11  O   UNL     1       9.696  -3.904  24.127  0.00  0.00    -0.489 OA
BRANCH  11  12
ATOM     12  C   UNL     1       8.612  -4.320  24.862  0.00  0.00    +0.128 A 
ATOM     13  C   UNL     1       7.542  -4.904  24.195  0.00  0.00    +0.020 A 
ATOM     14  C   UNL     1       7.331  -5.165  22.777  0.00  0.00    +0.008 C 
ATOM     15  C   UNL     1       6.141  -5.775  22.640  0.00  0.00    -0.021 C 
ATOM     16  C   UNL     1       5.439  -5.989  23.957  0.00  0.00    +0.063 C 
ATOM     17  C   UNL     1       6.426  -5.381  24.906  0.00  0.00    -0.033 A 
ATOM     18  C   UNL     1       6.336  -5.272  26.282  0.00  0.00    +0.005 A 
ATOM     19  C   UNL     1       7.383  -4.649  26.955  0.00  0.00    +0.004 A 
ATOM     20  C   UNL     1       8.503  -4.171  26.253  0.00  0.00    +0.046 A 
ENDBRANCH  11  12
ENDBRANCH   1  11
TORSDOF 7
ENDMDL
MODEL 9
REMARK VINA RESULT:      -5.3      2.019      5.898
REMARK  Name = 
REMARK  9 active torsions:
REMARK  status: ('A' for Active; 'I' for Inactive)
REMARK    1  A    between atoms: C_1  and  C_2
REMARK    2  A    between atoms: C_2  and  C_3
REMARK    3  A    between atoms: C_2  and  N_4
REMARK    4  A    between atoms: N_4  and  C_5
REMARK    5  A    between atoms: C_5  and  C_6
REMARK    6  A    between atoms: C_6  and  O_7
REMARK    7  A    between atoms: C_6  and  C_8
REMARK    8  A    between atoms: C_8  and  O_9
REMARK    9  A    between atoms: O_9  and  C_10
REMARK                            x       y       z     vdW  Elec       q    Type
REMARK                         _______ _______ _______ _____ _____    ______ ____
ROOT
ATOM      1  C   UNL     1       8.233  -1.813  22.260  0.00  0.00    +0.261 C 
ENDROOT
BRANCH   1   2
ATOM      2  C   UNL     1       9.446  -1.056  21.696  0.00  0.00    +0.166 C 
BRANCH   2   3
ATOM      3  O   UNL     1      10.678  -1.754  21.930  0.00  0.00    -0.387 OA
ATOM      4  H   UNL     1      10.754  -1.927  22.881  0.00  0.00    +0.210 HD
ENDBRANCH   2   3
BRANCH   2   5
ATOM      5  C   UNL     1       9.506   0.326  22.386  0.00  0.00    +0.115 C 
BRANCH   5   6
ATOM      6  N   UNL     1       8.673   0.364  23.589  0.00  0.00    -0.311 NA
ATOM      7  H   UNL     1       7.948   1.072  23.448  0.00  0.00    +0.122 HD
BRANCH   6   9
ATOM      8  C   UNL     1       9.166  -0.507  25.797  0.00  0.00    +0.023 C 
ATOM      9  C   UNL     1       9.428   0.636  24.816  0.00  0.00    +0.048 C 
ATOM     10  C   UNL     1      10.934   0.750  24.556  0.00  0.00    +0.023 C 
ENDBRANCH   6   9
ENDBRANCH   5   6
ENDBRANCH   2   5
ENDBRANCH   1   2
BRANCH   1  11
ATOM     11  O   UNL     1       8.619  -2.872  23.143  0.00  0.00    -0.489 OA
BRANCH  11  12
ATOM     12  C   UNL     1       7.652  -3.839  23.281  0.00  0.00    +0.128 A 
ATOM     13  C   UNL     1       7.396  -4.348  24.547  0.00  0.00    +0.020 A 
ATOM     14  C   UNL     1       8.002  -4.041  25.837  0.00  0.00    +0.008 C 
ATOM     15  C   UNL     1       7.386  -4.786  26.772  0.00  0.00    -0.021 C 
ATOM     16  C   UNL     1       6.300  -5.661  26.200  0.00  0.00    +0.063 C 
ATOM     17  C   UNL     1       6.391  -5.311  24.747  0.00  0.00    -0.033 A 
ATOM     18  C   UNL     1       5.635  -5.805  23.698  0.00  0.00    +0.005 A 
ATOM     19  C   UNL     1       5.913  -5.334  22.418  0.00  0.00    +0.004 A 
ATOM     20  C   UNL     1       6.915  -4.370  22.210  0.00  0.00    +0.046 A 
ENDBRANCH  11  12
ENDBRANCH   1  11
TORSDOF 7
ENDMDL
