MODEL 1
REMARK VINA RESULT:      -7.3      0.000      0.000
REMARK  Name = 
REMARK  14 active torsions:
REMARK  status: ('A' for Active; 'I' for Inactive)
REMARK    1  A    between atoms: C_1  and  C_2
REMARK    2  A    between atoms: C_2  and  O_3
REMARK    3  A    between atoms: O_3  and  C_4
REMARK    4  A    between atoms: C_4  and  O_6
REMARK    5  A    between atoms: O_6  and  C_7
REMARK    6  A    between atoms: C_7  and  C_28
REMARK    7  A    between atoms: C_20  and  C_21
REMARK    8  A    between atoms: C_23  and  O_24
REMARK    9  A    between atoms: C_26  and  C_27
REMARK   10  A    between atoms: C_28  and  C_30
REMARK   11  A    between atoms: C_30  and  O_31
REMARK   12  A    between atoms: O_31  and  C_32
REMARK   13  A    between atoms: C_32  and  C_34
REMARK   14  A    between atoms: C_34  and  C_35
REMARK                            x       y       z     vdW  Elec       q    Type
REMARK                         _______ _______ _______ _____ _____    ______ ____
ROOT
ATOM      1  C   UNL     1       5.737  -4.257  25.698  0.00  0.00    +0.183 C 
ATOM      2  C   UNL     1       7.168  -3.544  25.645  0.00  0.00    +0.020 C 
ATOM      3  C   UNL     1       8.259  -4.194  26.560  0.00  0.00    +0.016 C 
ATOM      4  C   UNL     1       6.926  -2.131  26.250  0.00  0.00    +0.003 C 
ATOM      5  C   UNL     1       7.017  -0.975  25.213  0.00  0.00    -0.000 C 
ATOM      6  C   UNL     1       8.376  -1.091  24.440  0.00  0.00    +0.035 C 
ATOM      7  C   UNL     1       8.485  -2.416  23.667  0.00  0.00    +0.120 C 
ATOM      8  C   UNL     1       8.996   0.173  23.672  0.00  0.00    +0.013 C 
ATOM      9  C   UNL     1      10.498  -0.278  23.461  0.00  0.00    +0.020 C 
ATOM     10  C   UNL     1       8.673   1.375  24.574  0.00  0.00    -0.056 C 
ATOM     11  C   UNL     1       9.416   2.491  24.524  0.00  0.00    +0.051 C 
ATOM     12  C   UNL     1      10.093   2.646  23.206  0.00  0.00    +0.179 C 
ATOM     13  C   UNL     1       9.351   1.991  22.057  0.00  0.00    +0.047 C 
ATOM     14  O   UNL     1      11.122   3.288  23.075  0.00  0.00    -0.288 OA
ATOM     15  C   UNL     1       7.221   1.482  24.993  0.00  0.00    +0.032 C 
ATOM     16  C   UNL     1       8.736   0.803  22.291  0.00  0.00    -0.012 C 
ATOM     17  C   UNL     1       6.877   0.368  25.944  0.00  0.00    +0.008 C 
ATOM     18  C   UNL     1       5.646  -2.268  27.111  0.00  0.00    +0.009 C 
ATOM     19  C   UNL     1       7.689  -3.602  24.212  0.00  0.00    +0.043 C 
ATOM     20  C   UNL     1       5.281  -3.759  27.089  0.00  0.00    +0.057 C 
ENDROOT
BRANCH   1  21
ATOM     21  C   UNL     1       4.728  -3.685  24.611  0.00  0.00    +0.214 C 
ATOM     22  O   UNL     1       3.878  -2.834  24.916  0.00  0.00    -0.289 OA
BRANCH  21  23
ATOM     23  C   UNL     1       4.698  -4.143  23.133  0.00  0.00    +0.310 C 
BRANCH  23  24
ATOM     24  O   UNL     1       5.300  -3.566  22.000  0.00  0.00    -0.457 OA
BRANCH  24  25
ATOM     25  C   UNL     1       5.719  -4.440  21.037  0.00  0.00    +0.307 C 
ATOM     26  O   UNL     1       5.808  -4.133  19.851  0.00  0.00    -0.251 OA
BRANCH  25  27
ATOM     27  C   UNL     1       5.972  -5.826  21.521  0.00  0.00    +0.117 C 
ATOM     28  C   UNL     1       7.390  -6.168  21.913  0.00  0.00    +0.015 C 
ENDBRANCH  25  27
ENDBRANCH  24  25
ENDBRANCH  23  24
ENDBRANCH  21  23
ENDBRANCH   1  21
BRANCH   7  29
ATOM     29  O   UNL     1       8.099  -2.212  22.309  0.00  0.00    -0.391 OA
ATOM     30  H   UNL     1       7.330  -2.784  22.122  0.00  0.00    +0.210 HD
ENDBRANCH   7  29
BRANCH   1  31
ATOM     31  O   UNL     1       5.914  -5.677  25.645  0.00  0.00    -0.419 OA
BRANCH  31  32
ATOM     32  C   UNL     1       5.173  -6.403  26.524  0.00  0.00    +0.511 C 
ATOM     33  O   UNL     1       5.594  -6.903  27.553  0.00  0.00    -0.203 OA
BRANCH  32  34
ATOM     34  O   UNL     1       3.901  -6.500  26.064  0.00  0.00    -0.434 OA
BRANCH  34  36
ATOM     35  C   UNL     1       2.616  -7.015  24.028  0.00  0.00    +0.048 C 
ATOM     36  C   UNL     1       3.756  -7.390  24.960  0.00  0.00    +0.232 C 
ENDBRANCH  34  36
ENDBRANCH  32  34
ENDBRANCH  31  32
ENDBRANCH   1  31
TORSDOF 10
ENDMDL
MODEL 2
REMARK VINA RESULT:      -7.0      1.964      7.226
REMARK  Name = 
REMARK  14 active torsions:
REMARK  status: ('A' for Active; 'I' for Inactive)
REMARK    1  A    between atoms: C_1  and  C_2
REMARK    2  A    between atoms: C_2  and  O_3
REMARK    3  A    between atoms: O_3  and  C_4
REMARK    4  A    between atoms: C_4  and  O_6
REMARK    5  A    between atoms: O_6  and  C_7
REMARK    6  A    between atoms: C_7  and  C_28
REMARK    7  A    between atoms: C_20  and  C_21
REMARK    8  A    between atoms: C_23  and  O_24
REMARK    9  A    between atoms: C_26  and  C_27
REMARK   10  A    between atoms: C_28  and  C_30
REMARK   11  A    between atoms: C_30  and  O_31
REMARK   12  A    between atoms: O_31  and  C_32
REMARK   13  A    between atoms: C_32  and  C_34
REMARK   14  A    between atoms: C_34  and  C_35
REMARK                            x       y       z     vdW  Elec       q    Type
REMARK                         _______ _______ _______ _____ _____    ______ ____
ROOT
ATOM      1  C   UNL     1       8.372  -1.777  23.975  0.00  0.00    +0.183 C 
ATOM      2  C   UNL     1       7.791  -1.854  25.464  0.00  0.00    +0.020 C 
ATOM      3  C   UNL     1       8.619  -1.063  26.532  0.00  0.00    +0.016 C 
ATOM      4  C   UNL     1       7.939  -3.348  25.868  0.00  0.00    +0.003 C 
ATOM      5  C   UNL     1       6.587  -4.110  25.981  0.00  0.00    -0.000 C 
ATOM      6  C   UNL     1       5.628  -3.307  26.926  0.00  0.00    +0.035 C 
ATOM      7  C   UNL     1       5.324  -1.902  26.376  0.00  0.00    +0.120 C 
ATOM      8  C   UNL     1       4.379  -4.023  27.631  0.00  0.00    +0.013 C 
ATOM      9  C   UNL     1       4.017  -2.994  28.777  0.00  0.00    +0.020 C 
ATOM     10  C   UNL     1       4.886  -5.429  27.990  0.00  0.00    -0.056 C 
ATOM     11  C   UNL     1       4.321  -6.130  28.985  0.00  0.00    +0.051 C 
ATOM     12  C   UNL     1       2.913  -5.707  29.229  0.00  0.00    +0.179 C 
ATOM     13  C   UNL     1       2.223  -5.143  28.003  0.00  0.00    +0.047 C 
ATOM     14  O   UNL     1       2.368  -5.856  30.310  0.00  0.00    -0.288 OA
ATOM     15  C   UNL     1       5.541  -6.178  26.848  0.00  0.00    +0.032 C 
ATOM     16  C   UNL     1       2.954  -4.370  27.158  0.00  0.00    -0.012 C 
ATOM     17  C   UNL     1       6.853  -5.532  26.494  0.00  0.00    +0.008 C 
ATOM     18  C   UNL     1       9.046  -3.915  24.945  0.00  0.00    +0.009 C 
ATOM     19  C   UNL     1       6.380  -1.272  25.468  0.00  0.00    +0.043 C 
ATOM     20  C   UNL     1       9.588  -2.717  24.153  0.00  0.00    +0.057 C 
ENDROOT
BRANCH   1  21
ATOM     21  C   UNL     1       7.395  -2.427  22.904  0.00  0.00    +0.214 C 
ATOM     22  O   UNL     1       6.311  -1.892  22.622  0.00  0.00    -0.289 OA
BRANCH  21  23
ATOM     23  C   UNL     1       7.683  -3.755  22.163  0.00  0.00    +0.310 C 
BRANCH  23  24
ATOM     24  O   UNL     1       7.278  -5.066  22.474  0.00  0.00    -0.457 OA
BRANCH  24  25
ATOM     25  C   UNL     1       6.072  -5.455  21.961  0.00  0.00    +0.307 C 
ATOM     26  O   UNL     1       5.839  -5.483  20.756  0.00  0.00    -0.251 OA
BRANCH  25  27
ATOM     27  C   UNL     1       5.029  -5.754  22.982  0.00  0.00    +0.117 C 
ATOM     28  C   UNL     1       4.106  -4.623  23.371  0.00  0.00    +0.015 C 
ENDBRANCH  25  27
ENDBRANCH  24  25
ENDBRANCH  23  24
ENDBRANCH  21  23
ENDBRANCH   1  21
BRANCH   7  29
ATOM     29  O   UNL     1       4.087  -1.923  25.667  0.00  0.00    -0.391 OA
ATOM     30  H   UNL     1       3.714  -1.021  25.680  0.00  0.00    +0.210 HD
ENDBRANCH   7  29
BRANCH   1  31
ATOM     31  O   UNL     1       8.748  -0.427  23.683  0.00  0.00    -0.419 OA
BRANCH  31  32
ATOM     32  C   UNL     1       9.823  -0.273  22.863  0.00  0.00    +0.511 C 
ATOM     33  O   UNL     1       9.846  -0.546  21.675  0.00  0.00    -0.203 OA
BRANCH  32  34
ATOM     34  O   UNL     1      10.868   0.210  23.581  0.00  0.00    -0.434 OA
BRANCH  34  36
ATOM     35  C   UNL     1      10.568   2.645  23.385  0.00  0.00    +0.048 C 
ATOM     36  C   UNL     1      10.575   1.418  24.280  0.00  0.00    +0.232 C 
ENDBRANCH  34  36
ENDBRANCH  32  34
ENDBRANCH  31  32
ENDBRANCH   1  31
TORSDOF 10
ENDMDL
MODEL 3
REMARK VINA RESULT:      -7.0      2.317      8.718
REMARK  Name = 
REMARK  14 active torsions:
REMARK  status: ('A' for Active; 'I' for Inactive)
REMARK    1  A    between atoms: C_1  and  C_2
REMARK    2  A    between atoms: C_2  and  O_3
REMARK    3  A    between atoms: O_3  and  C_4
REMARK    4  A    between atoms: C_4  and  O_6
REMARK    5  A    between atoms: O_6  and  C_7
REMARK    6  A    between atoms: C_7  and  C_28
REMARK    7  A    between atoms: C_20  and  C_21
REMARK    8  A    between atoms: C_23  and  O_24
REMARK    9  A    between atoms: C_26  and  C_27
REMARK   10  A    between atoms: C_28  and  C_30
REMARK   11  A    between atoms: C_30  and  O_31
REMARK   12  A    between atoms: O_31  and  C_32
REMARK   13  A    between atoms: C_32  and  C_34
REMARK   14  A    between atoms: C_34  and  C_35
REMARK                            x       y       z     vdW  Elec       q    Type
REMARK                         _______ _______ _______ _____ _____    ______ ____
ROOT
ATOM      1  C   UNL     1       9.298   2.154  23.507  0.00  0.00    +0.183 C 
ATOM      2  C   UNL     1       9.377   0.748  24.266  0.00  0.00    +0.020 C 
ATOM      3  C   UNL     1      10.779   0.409  24.873  0.00  0.00    +0.016 C 
ATOM      4  C   UNL     1       9.154  -0.314  23.152  0.00  0.00    +0.003 C 
ATOM      5  C   UNL     1       7.790  -1.057  23.250  0.00  0.00    -0.000 C 
ATOM      6  C   UNL     1       7.630  -1.638  24.696  0.00  0.00    +0.035 C 
ATOM      7  C   UNL     1       7.631  -0.529  25.763  0.00  0.00    +0.120 C 
ATOM      8  C   UNL     1       6.608  -2.836  24.993  0.00  0.00    +0.013 C 
ATOM      9  C   UNL     1       7.113  -3.356  26.399  0.00  0.00    +0.020 C 
ATOM     10  C   UNL     1       6.702  -3.746  23.757  0.00  0.00    -0.056 C 
ATOM     11  C   UNL     1       6.383  -5.047  23.834  0.00  0.00    +0.051 C 
ATOM     12  C   UNL     1       5.430  -5.316  24.947  0.00  0.00    +0.179 C 
ATOM     13  C   UNL     1       4.543  -4.136  25.292  0.00  0.00    +0.047 C 
ATOM     14  O   UNL     1       5.350  -6.408  25.485  0.00  0.00    -0.288 OA
ATOM     15  C   UNL     1       6.544  -3.032  22.431  0.00  0.00    +0.032 C 
ATOM     16  C   UNL     1       5.089  -2.893  25.244  0.00  0.00    -0.012 C 
ATOM     17  C   UNL     1       7.738  -2.151  22.174  0.00  0.00    +0.008 C 
ATOM     18  C   UNL     1       9.529   0.396  21.828  0.00  0.00    +0.009 C 
ATOM     19  C   UNL     1       8.378   0.760  25.420  0.00  0.00    +0.043 C 
ATOM     20  C   UNL     1      10.081   1.772  22.230  0.00  0.00    +0.057 C 
ENDROOT
BRANCH   1  21
ATOM     21  C   UNL     1       7.815   2.538  23.084  0.00  0.00    +0.214 C 
ATOM     22  O   UNL     1       7.430   2.400  21.912  0.00  0.00    -0.289 OA
BRANCH  21  23
ATOM     23  C   UNL     1       6.762   3.124  24.056  0.00  0.00    +0.310 C 
BRANCH  23  24
ATOM     24  O   UNL     1       6.754   4.354  24.737  0.00  0.00    -0.457 OA
BRANCH  24  25
ATOM     25  C   UNL     1       7.121   4.310  26.053  0.00  0.00    +0.307 C 
ATOM     26  O   UNL     1       8.119   4.880  26.485  0.00  0.00    -0.251 OA
BRANCH  25  27
ATOM     27  C   UNL     1       6.269   3.437  26.908  0.00  0.00    +0.117 C 
ATOM     28  C   UNL     1       6.906   2.862  28.152  0.00  0.00    +0.015 C 
ENDBRANCH  25  27
ENDBRANCH  24  25
ENDBRANCH  23  24
ENDBRANCH  21  23
ENDBRANCH   1  21
BRANCH   7  29
ATOM     29  O   UNL     1       6.288  -0.185  26.098  0.00  0.00    -0.391 OA
ATOM     30  H   UNL     1       6.259   0.043  27.046  0.00  0.00    +0.210 HD
ENDBRANCH   7  29
BRANCH   1  31
ATOM     31  O   UNL     1       9.961   3.152  24.290  0.00  0.00    -0.419 OA
BRANCH  31  32
ATOM     32  C   UNL     1      10.374   4.260  23.617  0.00  0.00    +0.511 C 
ATOM     33  O   UNL     1       9.669   5.214  23.334  0.00  0.00    -0.203 OA
BRANCH  32  34
ATOM     34  O   UNL     1      11.684   4.125  23.293  0.00  0.00    -0.434 OA
BRANCH  34  36
ATOM     35  C   UNL     1      13.280   5.606  22.146  0.00  0.00    +0.048 C 
ATOM     36  C   UNL     1      12.423   5.341  23.372  0.00  0.00    +0.232 C 
ENDBRANCH  34  36
ENDBRANCH  32  34
ENDBRANCH  31  32
ENDBRANCH   1  31
TORSDOF 10
ENDMDL
MODEL 4
REMARK VINA RESULT:      -6.8      2.254      4.009
REMARK  Name = 
REMARK  14 active torsions:
REMARK  status: ('A' for Active; 'I' for Inactive)
REMARK    1  A    between atoms: C_1  and  C_2
REMARK    2  A    between atoms: C_2  and  O_3
REMARK    3  A    between atoms: O_3  and  C_4
REMARK    4  A    between atoms: C_4  and  O_6
REMARK    5  A    between atoms: O_6  and  C_7
REMARK    6  A    between atoms: C_7  and  C_28
REMARK    7  A    between atoms: C_20  and  C_21
REMARK    8  A    between atoms: C_23  and  O_24
REMARK    9  A    between atoms: C_26  and  C_27
REMARK   10  A    between atoms: C_28  and  C_30
REMARK   11  A    between atoms: C_30  and  O_31
REMARK   12  A    between atoms: O_31  and  C_32
REMARK   13  A    between atoms: C_32  and  C_34
REMARK   14  A    between atoms: C_34  and  C_35
REMARK                            x       y       z     vdW  Elec       q    Type
REMARK                         _______ _______ _______ _____ _____    ______ ____
ROOT
ATOM      1  C   UNL     1       6.655  -3.136  25.726  0.00  0.00    +0.183 C 
ATOM      2  C   UNL     1       5.915  -1.717  25.720  0.00  0.00    +0.020 C 
ATOM      3  C   UNL     1       4.378  -1.779  26.006  0.00  0.00    +0.016 C 
ATOM      4  C   UNL     1       6.030  -1.220  24.250  0.00  0.00    +0.003 C 
ATOM      5  C   UNL     1       6.988  -0.009  24.066  0.00  0.00    -0.000 C 
ATOM      6  C   UNL     1       6.577   1.123  25.069  0.00  0.00    +0.035 C 
ATOM      7  C   UNL     1       6.691   0.661  26.532  0.00  0.00    +0.120 C 
ATOM      8  C   UNL     1       7.021   2.643  24.822  0.00  0.00    +0.013 C 
ATOM      9  C   UNL     1       6.037   3.431  25.778  0.00  0.00    +0.020 C 
ATOM     10  C   UNL     1       6.931   2.834  23.299  0.00  0.00    -0.056 C 
ATOM     11  C   UNL     1       6.757   4.054  22.768  0.00  0.00    +0.051 C 
ATOM     12  C   UNL     1       7.253   5.127  23.675  0.00  0.00    +0.179 C 
ATOM     13  C   UNL     1       8.375   4.682  24.592  0.00  0.00    +0.047 C 
ATOM     14  O   UNL     1       6.819   6.266  23.632  0.00  0.00    -0.288 OA
ATOM     15  C   UNL     1       7.647   1.777  22.484  0.00  0.00    +0.032 C 
ATOM     16  C   UNL     1       8.316   3.427  25.108  0.00  0.00    -0.012 C 
ATOM     17  C   UNL     1       6.929   0.460  22.605  0.00  0.00    +0.008 C 
ATOM     18  C   UNL     1       6.260  -2.496  23.403  0.00  0.00    +0.009 C 
ATOM     19  C   UNL     1       6.539  -0.836  26.799  0.00  0.00    +0.043 C 
ATOM     20  C   UNL     1       6.131  -3.677  24.376  0.00  0.00    +0.057 C 
ENDROOT
BRANCH   1  21
ATOM     21  C   UNL     1       8.236  -3.001  25.627  0.00  0.00    +0.214 C 
ATOM     22  O   UNL     1       8.896  -2.538  26.571  0.00  0.00    -0.289 OA
BRANCH  21  23
ATOM     23  C   UNL     1       9.061  -3.394  24.378  0.00  0.00    +0.310 C 
BRANCH  23  24
ATOM     24  O   UNL     1      10.195  -2.778  23.819  0.00  0.00    -0.457 OA
BRANCH  24  25
ATOM     25  C   UNL     1       9.948  -1.764  22.935  0.00  0.00    +0.307 C 
ATOM     26  O   UNL     1       9.329  -1.930  21.888  0.00  0.00    -0.251 OA
BRANCH  25  27
ATOM     27  C   UNL     1      10.569  -0.458  23.296  0.00  0.00    +0.117 C 
ATOM     28  C   UNL     1      10.356   0.035  24.708  0.00  0.00    +0.015 C 
ENDBRANCH  25  27
ENDBRANCH  24  25
ENDBRANCH  23  24
ENDBRANCH  21  23
ENDBRANCH   1  21
BRANCH   7  29
ATOM     29  O   UNL     1       7.943   1.081  27.071  0.00  0.00    -0.391 OA
ATOM     30  H   UNL     1       8.530   1.318  26.328  0.00  0.00    +0.210 HD
ENDBRANCH   7  29
BRANCH   1  31
ATOM     31  O   UNL     1       6.201  -3.900  26.848  0.00  0.00    -0.419 OA
BRANCH  31  32
ATOM     32  C   UNL     1       6.096  -5.242  26.650  0.00  0.00    +0.511 C 
ATOM     33  O   UNL     1       7.034  -6.016  26.566  0.00  0.00    -0.203 OA
BRANCH  32  34
ATOM     34  O   UNL     1       4.786  -5.577  26.539  0.00  0.00    -0.434 OA
BRANCH  34  36
ATOM     35  C   UNL     1       4.215  -6.787  24.473  0.00  0.00    +0.048 C 
ATOM     36  C   UNL     1       4.569  -6.857  25.949  0.00  0.00    +0.232 C 
ENDBRANCH  34  36
ENDBRANCH  32  34
ENDBRANCH  31  32
ENDBRANCH   1  31
TORSDOF 10
ENDMDL
MODEL 5
REMARK VINA RESULT:      -6.8      1.936      4.058
REMARK  Name = 
REMARK  14 active torsions:
REMARK  status: ('A' for Active; 'I' for Inactive)
REMARK    1  A    between atoms: C_1  and  C_2
REMARK    2  A    between atoms: C_2  and  O_3
REMARK    3  A    between atoms: O_3  and  C_4
REMARK    4  A    between atoms: C_4  and  O_6
REMARK    5  A    between atoms: O_6  and  C_7
REMARK    6  A    between atoms: C_7  and  C_28
REMARK    7  A    between atoms: C_20  and  C_21
REMARK    8  A    between atoms: C_23  and  O_24
REMARK    9  A    between atoms: C_26  and  C_27
REMARK   10  A    between atoms: C_28  and  C_30
REMARK   11  A    between atoms: C_30  and  O_31
REMARK   12  A    between atoms: O_31  and  C_32
REMARK   13  A    between atoms: C_32  and  C_34
REMARK   14  A    between atoms: C_34  and  C_35
REMARK                            x       y       z     vdW  Elec       q    Type
REMARK                         _______ _______ _______ _____ _____    ______ ____
ROOT
ATOM      1  C   UNL     1       6.737  -4.819  24.441  0.00  0.00    +0.183 C 
ATOM      2  C   UNL     1       6.953  -3.540  23.504  0.00  0.00    +0.020 C 
ATOM      3  C   UNL     1       6.964  -3.847  21.969  0.00  0.00    +0.016 C 
ATOM      4  C   UNL     1       8.396  -3.056  23.826  0.00  0.00    +0.003 C 
ATOM      5  C   UNL     1       8.452  -1.708  24.600  0.00  0.00    -0.000 C 
ATOM      6  C   UNL     1       7.602  -0.641  23.827  0.00  0.00    +0.035 C 
ATOM      7  C   UNL     1       6.123  -1.054  23.722  0.00  0.00    +0.120 C 
ATOM      8  C   UNL     1       7.833   0.926  24.068  0.00  0.00    +0.013 C 
ATOM      9  C   UNL     1       7.121   1.559  22.804  0.00  0.00    +0.020 C 
ATOM     10  C   UNL     1       9.353   1.074  24.250  0.00  0.00    -0.056 C 
ATOM     11  C   UNL     1       9.965   2.240  23.995  0.00  0.00    +0.051 C 
ATOM     12  C   UNL     1       9.033   3.395  24.128  0.00  0.00    +0.179 C 
ATOM     13  C   UNL     1       7.898   3.154  25.104  0.00  0.00    +0.047 C 
ATOM     14  O   UNL     1       9.213   4.447  23.538  0.00  0.00    -0.288 OA
ATOM     15  C   UNL     1       9.964   0.135  25.268  0.00  0.00    +0.032 C 
ATOM     16  C   UNL     1       7.343   1.915  25.143  0.00  0.00    -0.012 C 
ATOM     17  C   UNL     1       9.919  -1.280  24.756  0.00  0.00    +0.008 C 
ATOM     18  C   UNL     1       9.121  -4.291  24.415  0.00  0.00    +0.009 C 
ATOM     19  C   UNL     1       5.819  -2.551  23.758  0.00  0.00    +0.043 C 
ATOM     20  C   UNL     1       8.135  -5.461  24.283  0.00  0.00    +0.057 C 
ENDROOT
BRANCH   1  21
ATOM     21  C   UNL     1       6.538  -4.430  25.969  0.00  0.00    +0.214 C 
ATOM     22  O   UNL     1       5.875  -3.432  26.292  0.00  0.00    -0.289 OA
BRANCH  21  23
ATOM     23  C   UNL     1       7.156  -5.217  27.150  0.00  0.00    +0.310 C 
BRANCH  23  24
ATOM     24  O   UNL     1       6.752  -5.284  28.495  0.00  0.00    -0.457 OA
BRANCH  24  25
ATOM     25  C   UNL     1       5.879  -6.289  28.807  0.00  0.00    +0.307 C 
ATOM     26  O   UNL     1       6.235  -7.452  28.972  0.00  0.00    -0.251 OA
BRANCH  25  27
ATOM     27  C   UNL     1       4.447  -5.881  28.840  0.00  0.00    +0.117 C 
ATOM     28  C   UNL     1       4.148  -4.458  29.250  0.00  0.00    +0.015 C 
ENDBRANCH  25  27
ENDBRANCH  24  25
ENDBRANCH  23  24
ENDBRANCH  21  23
ENDBRANCH   1  21
BRANCH   7  29
ATOM     29  O   UNL     1       5.376  -0.427  24.763  0.00  0.00    -0.391 OA
ATOM     30  H   UNL     1       5.943   0.249  25.180  0.00  0.00    +0.210 HD
ENDBRANCH   7  29
BRANCH   1  31
ATOM     31  O   UNL     1       5.687  -5.628  23.900  0.00  0.00    -0.419 OA
BRANCH  31  32
ATOM     32  C   UNL     1       4.743  -6.047  24.785  0.00  0.00    +0.511 C 
ATOM     33  O   UNL     1       4.840  -7.024  25.509  0.00  0.00    -0.203 OA
BRANCH  32  34
ATOM     34  O   UNL     1       3.669  -5.221  24.719  0.00  0.00    -0.434 OA
BRANCH  34  36
ATOM     35  C   UNL     1       2.143  -6.163  23.033  0.00  0.00    +0.048 C 
ATOM     36  C   UNL     1       3.137  -5.076  23.404  0.00  0.00    +0.232 C 
ENDBRANCH  34  36
ENDBRANCH  32  34
ENDBRANCH  31  32
ENDBRANCH   1  31
TORSDOF 10
ENDMDL
MODEL 6
REMARK VINA RESULT:      -6.6      1.788      3.594
REMARK  Name = 
REMARK  14 active torsions:
REMARK  status: ('A' for Active; 'I' for Inactive)
REMARK    1  A    between atoms: C_1  and  C_2
REMARK    2  A    between atoms: C_2  and  O_3
REMARK    3  A    between atoms: O_3  and  C_4
REMARK    4  A    between atoms: C_4  and  O_6
REMARK    5  A    between atoms: O_6  and  C_7
REMARK    6  A    between atoms: C_7  and  C_28
REMARK    7  A    between atoms: C_20  and  C_21
REMARK    8  A    between atoms: C_23  and  O_24
REMARK    9  A    between atoms: C_26  and  C_27
REMARK   10  A    between atoms: C_28  and  C_30
REMARK   11  A    between atoms: C_30  and  O_31
REMARK   12  A    between atoms: O_31  and  C_32
REMARK   13  A    between atoms: C_32  and  C_34
REMARK   14  A    between atoms: C_34  and  C_35
REMARK                            x       y       z     vdW  Elec       q    Type
REMARK                         _______ _______ _______ _____ _____    ______ ____
ROOT
ATOM      1  C   UNL     1       5.309  -5.417  24.345  0.00  0.00    +0.183 C 
ATOM      2  C   UNL     1       6.597  -4.716  23.707  0.00  0.00    +0.020 C 
ATOM      3  C   UNL     1       7.534  -5.677  22.901  0.00  0.00    +0.016 C 
ATOM      4  C   UNL     1       7.445  -4.263  24.931  0.00  0.00    +0.003 C 
ATOM      5  C   UNL     1       7.490  -2.721  25.133  0.00  0.00    -0.000 C 
ATOM      6  C   UNL     1       7.935  -2.046  23.790  0.00  0.00    +0.035 C 
ATOM      7  C   UNL     1       6.946  -2.334  22.647  0.00  0.00    +0.120 C 
ATOM      8  C   UNL     1       8.541  -0.562  23.778  0.00  0.00    +0.013 C 
ATOM      9  C   UNL     1       9.232  -0.503  22.356  0.00  0.00    +0.020 C 
ATOM     10  C   UNL     1       9.395  -0.477  25.054  0.00  0.00    -0.056 C 
ATOM     11  C   UNL     1      10.410   0.395  25.145  0.00  0.00    +0.051 C 
ATOM     12  C   UNL     1      10.219   1.562  24.238  0.00  0.00    +0.179 C 
ATOM     13  C   UNL     1       8.765   1.880  23.950  0.00  0.00    +0.047 C 
ATOM     14  O   UNL     1      11.157   2.220  23.819  0.00  0.00    -0.288 OA
ATOM     15  C   UNL     1       8.687  -0.910  26.321  0.00  0.00    +0.032 C 
ATOM     16  C   UNL     1       7.904   0.841  23.796  0.00  0.00    -0.012 C 
ATOM     17  C   UNL     1       8.442  -2.395  26.292  0.00  0.00    +0.008 C 
ATOM     18  C   UNL     1       6.981  -5.161  26.105  0.00  0.00    +0.009 C 
ATOM     19  C   UNL     1       6.135  -3.626  22.745  0.00  0.00    +0.043 C 
ATOM     20  C   UNL     1       6.004  -6.178  25.497  0.00  0.00    +0.057 C 
ENDROOT
BRANCH   1  21
ATOM     21  C   UNL     1       4.295  -4.371  24.981  0.00  0.00    +0.214 C 
ATOM     22  O   UNL     1       3.910  -3.384  24.335  0.00  0.00    -0.289 OA
BRANCH  21  23
ATOM     23  C   UNL     1       3.740  -4.471  26.422  0.00  0.00    +0.310 C 
BRANCH  23  24
ATOM     24  O   UNL     1       3.413  -3.449  27.332  0.00  0.00    -0.457 OA
BRANCH  24  25
ATOM     25  C   UNL     1       4.389  -2.518  27.558  0.00  0.00    +0.307 C 
ATOM     26  O   UNL     1       5.446  -2.784  28.123  0.00  0.00    -0.251 OA
BRANCH  25  27
ATOM     27  C   UNL     1       4.031  -1.130  27.149  0.00  0.00    +0.117 C 
ATOM     28  C   UNL     1       4.970  -0.434  26.191  0.00  0.00    +0.015 C 
ENDBRANCH  25  27
ENDBRANCH  24  25
ENDBRANCH  23  24
ENDBRANCH  21  23
ENDBRANCH   1  21
BRANCH   7  29
ATOM     29  O   UNL     1       6.032  -1.247  22.519  0.00  0.00    -0.391 OA
ATOM     30  H   UNL     1       5.545  -1.356  21.680  0.00  0.00    +0.210 HD
ENDBRANCH   7  29
BRANCH   1  31
ATOM     31  O   UNL     1       4.718  -6.291  23.376  0.00  0.00    -0.419 OA
BRANCH  31  32
ATOM     32  C   UNL     1       3.552  -6.886  23.744  0.00  0.00    +0.511 C 
ATOM     33  O   UNL     1       3.449  -7.796  24.548  0.00  0.00    -0.203 OA
BRANCH  32  34
ATOM     34  O   UNL     1       2.526  -6.321  23.058  0.00  0.00    -0.434 OA
BRANCH  34  36
ATOM     35  C   UNL     1       1.098  -7.937  21.871  0.00  0.00    +0.048 C 
ATOM     36  C   UNL     1       1.319  -7.078  23.105  0.00  0.00    +0.232 C 
ENDBRANCH  34  36
ENDBRANCH  32  34
ENDBRANCH  31  32
ENDBRANCH   1  31
TORSDOF 10
ENDMDL
MODEL 7
REMARK VINA RESULT:      -6.5      1.882      4.030
REMARK  Name = 
REMARK  14 active torsions:
REMARK  status: ('A' for Active; 'I' for Inactive)
REMARK    1  A    between atoms: C_1  and  C_2
REMARK    2  A    between atoms: C_2  and  O_3
REMARK    3  A    between atoms: O_3  and  C_4
REMARK    4  A    between atoms: C_4  and  O_6
REMARK    5  A    between atoms: O_6  and  C_7
REMARK    6  A    between atoms: C_7  and  C_28
REMARK    7  A    between atoms: C_20  and  C_21
REMARK    8  A    between atoms: C_23  and  O_24
REMARK    9  A    between atoms: C_26  and  C_27
REMARK   10  A    between atoms: C_28  and  C_30
REMARK   11  A    between atoms: C_30  and  O_31
REMARK   12  A    between atoms: O_31  and  C_32
REMARK   13  A    between atoms: C_32  and  C_34
REMARK   14  A    between atoms: C_34  and  C_35
REMARK                            x       y       z     vdW  Elec       q    Type
REMARK                         _______ _______ _______ _____ _____    ______ ____
ROOT
ATOM      1  C   UNL     1       6.979  -3.614  24.628  0.00  0.00    +0.183 C 
ATOM      2  C   UNL     1       7.038  -2.326  23.682  0.00  0.00    +0.020 C 
ATOM      3  C   UNL     1       6.669  -2.595  22.185  0.00  0.00    +0.016 C 
ATOM      4  C   UNL     1       8.540  -1.923  23.659  0.00  0.00    +0.003 C 
ATOM      5  C   UNL     1       8.852  -0.599  24.413  0.00  0.00    -0.000 C 
ATOM      6  C   UNL     1       7.903   0.528  23.876  0.00  0.00    +0.035 C 
ATOM      7  C   UNL     1       6.421   0.193  24.120  0.00  0.00    +0.120 C 
ATOM      8  C   UNL     1       8.270   2.076  24.074  0.00  0.00    +0.013 C 
ATOM      9  C   UNL     1       7.316   2.774  23.022  0.00  0.00    +0.020 C 
ATOM     10  C   UNL     1       9.795   2.142  23.892  0.00  0.00    -0.056 C 
ATOM     11  C   UNL     1      10.394   3.281  23.513  0.00  0.00    +0.051 C 
ATOM     12  C   UNL     1       9.584   4.478  23.877  0.00  0.00    +0.179 C 
ATOM     13  C   UNL     1       8.700   4.271  25.091  0.00  0.00    +0.047 C 
ATOM     14  O   UNL     1       9.677   5.534  23.274  0.00  0.00    -0.288 OA
ATOM     15  C   UNL     1      10.577   1.148  24.726  0.00  0.00    +0.032 C 
ATOM     16  C   UNL     1       8.102   3.061  25.246  0.00  0.00    -0.012 C 
ATOM     17  C   UNL     1      10.335  -0.250  24.222  0.00  0.00    +0.008 C 
ATOM     18  C   UNL     1       9.315  -3.207  24.045  0.00  0.00    +0.009 C 
ATOM     19  C   UNL     1       6.052  -1.287  24.209  0.00  0.00    +0.043 C 
ATOM     20  C   UNL     1       8.263  -4.322  24.137  0.00  0.00    +0.057 C 
ENDROOT
BRANCH   1  21
ATOM     21  C   UNL     1       7.168  -3.253  26.165  0.00  0.00    +0.214 C 
ATOM     22  O   UNL     1       8.258  -3.433  26.732  0.00  0.00    -0.289 OA
BRANCH  21  23
ATOM     23  C   UNL     1       6.043  -2.692  27.067  0.00  0.00    +0.310 C 
BRANCH  23  24
ATOM     24  O   UNL     1       4.648  -2.719  26.886  0.00  0.00    -0.457 OA
BRANCH  24  25
ATOM     25  C   UNL     1       3.970  -3.654  27.617  0.00  0.00    +0.307 C 
ATOM     26  O   UNL     1       4.232  -3.899  28.791  0.00  0.00    -0.251 OA
BRANCH  25  27
ATOM     27  C   UNL     1       2.947  -4.421  26.852  0.00  0.00    +0.117 C 
ATOM     28  C   UNL     1       2.493  -3.834  25.536  0.00  0.00    +0.015 C 
ENDBRANCH  25  27
ENDBRANCH  24  25
ENDBRANCH  23  24
ENDBRANCH  21  23
ENDBRANCH   1  21
BRANCH   7  29
ATOM     29  O   UNL     1       5.976   0.832  25.315  0.00  0.00    -0.391 OA
ATOM     30  H   UNL     1       5.074   0.515  25.512  0.00  0.00    +0.210 HD
ENDBRANCH   7  29
BRANCH   1  31
ATOM     31  O   UNL     1       5.789  -4.356  24.343  0.00  0.00    -0.419 OA
BRANCH  31  32
ATOM     32  C   UNL     1       5.797  -5.663  24.720  0.00  0.00    +0.511 C 
ATOM     33  O   UNL     1       5.909  -6.064  25.866  0.00  0.00    -0.203 OA
BRANCH  32  34
ATOM     34  O   UNL     1       5.684  -6.447  23.619  0.00  0.00    -0.434 OA
BRANCH  34  36
ATOM     35  C   UNL     1       6.051  -5.959  21.234  0.00  0.00    +0.048 C 
ATOM     36  C   UNL     1       5.192  -5.759  22.471  0.00  0.00    +0.232 C 
ENDBRANCH  34  36
ENDBRANCH  32  34
ENDBRANCH  31  32
ENDBRANCH   1  31
TORSDOF 10
ENDMDL
MODEL 8
REMARK VINA RESULT:      -6.3      2.262      8.106
REMARK  Name = 
REMARK  14 active torsions:
REMARK  status: ('A' for Active; 'I' for Inactive)
REMARK    1  A    between atoms: C_1  and  C_2
REMARK    2  A    between atoms: C_2  and  O_3
REMARK    3  A    between atoms: O_3  and  C_4
REMARK    4  A    between atoms: C_4  and  O_6
REMARK    5  A    between atoms: O_6  and  C_7
REMARK    6  A    between atoms: C_7  and  C_28
REMARK    7  A    between atoms: C_20  and  C_21
REMARK    8  A    between atoms: C_23  and  O_24
REMARK    9  A    between atoms: C_26  and  C_27
REMARK   10  A    between atoms: C_28  and  C_30
REMARK   11  A    between atoms: C_30  and  O_31
REMARK   12  A    between atoms: O_31  and  C_32
REMARK   13  A    between atoms: C_32  and  C_34
REMARK   14  A    between atoms: C_34  and  C_35
REMARK                            x       y       z     vdW  Elec       q    Type
REMARK                         _______ _______ _______ _____ _____    ______ ____
ROOT
ATOM      1  C   UNL     1       8.639   1.354  23.674  0.00  0.00    +0.183 C 
ATOM      2  C   UNL     1       8.553  -0.070  24.398  0.00  0.00    +0.020 C 
ATOM      3  C   UNL     1       9.750  -0.392  25.354  0.00  0.00    +0.016 C 
ATOM      4  C   UNL     1       8.672  -1.106  23.244  0.00  0.00    +0.003 C 
ATOM      5  C   UNL     1       7.355  -1.884  22.956  0.00  0.00    -0.000 C 
ATOM      6  C   UNL     1       6.829  -2.509  24.294  0.00  0.00    +0.035 C 
ATOM      7  C   UNL     1       6.509  -1.429  25.343  0.00  0.00    +0.120 C 
ATOM      8  C   UNL     1       5.802  -3.739  24.279  0.00  0.00    +0.013 C 
ATOM      9  C   UNL     1       5.925  -4.284  25.759  0.00  0.00    +0.020 C 
ATOM     10  C   UNL     1       6.253  -4.611  23.097  0.00  0.00    -0.056 C 
ATOM     11  C   UNL     1       5.964  -5.921  23.059  0.00  0.00    +0.051 C 
ATOM     12  C   UNL     1       4.756  -6.244  23.869  0.00  0.00    +0.179 C 
ATOM     13  C   UNL     1       3.773  -5.095  23.985  0.00  0.00    +0.047 C 
ATOM     14  O   UNL     1       4.568  -7.352  24.343  0.00  0.00    -0.288 OA
ATOM     15  C   UNL     1       6.436  -3.865  21.792  0.00  0.00    +0.032 C 
ATOM     16  C   UNL     1       4.274  -3.838  24.111  0.00  0.00    -0.012 C 
ATOM     17  C   UNL     1       7.627  -2.950  21.884  0.00  0.00    +0.008 C 
ATOM     18  C   UNL     1       9.367  -0.351  22.085  0.00  0.00    +0.009 C 
ATOM     19  C   UNL     1       7.281  -0.114  25.240  0.00  0.00    +0.043 C 
ATOM     20  C   UNL     1       9.748   1.025  22.648  0.00  0.00    +0.057 C 
ENDROOT
BRANCH   1  21
ATOM     21  C   UNL     1       7.313   1.713  22.874  0.00  0.00    +0.214 C 
ATOM     22  O   UNL     1       7.227   1.499  21.655  0.00  0.00    -0.289 OA
BRANCH  21  23
ATOM     23  C   UNL     1       6.065   2.366  23.516  0.00  0.00    +0.310 C 
BRANCH  23  24
ATOM     24  O   UNL     1       4.941   1.764  24.110  0.00  0.00    -0.457 OA
BRANCH  24  25
ATOM     25  C   UNL     1       4.581   2.254  25.335  0.00  0.00    +0.307 C 
ATOM     26  O   UNL     1       3.562   1.898  25.920  0.00  0.00    -0.251 OA
BRANCH  25  27
ATOM     27  C   UNL     1       5.472   3.324  25.865  0.00  0.00    +0.117 C 
ATOM     28  C   UNL     1       6.293   2.989  27.088  0.00  0.00    +0.015 C 
ENDBRANCH  25  27
ENDBRANCH  24  25
ENDBRANCH  23  24
ENDBRANCH  21  23
ENDBRANCH   1  21
BRANCH   7  29
ATOM     29  O   UNL     1       5.115  -1.127  25.310  0.00  0.00    -0.391 OA
ATOM     30  H   UNL     1       4.998  -0.284  24.832  0.00  0.00    +0.210 HD
ENDBRANCH   7  29
BRANCH   1  31
ATOM     31  O   UNL     1       9.036   2.346  24.627  0.00  0.00    -0.419 OA
BRANCH  31  32
ATOM     32  C   UNL     1       9.504   3.514  24.110  0.00  0.00    +0.511 C 
ATOM     33  O   UNL     1      10.597   3.666  23.593  0.00  0.00    -0.203 OA
BRANCH  32  34
ATOM     34  O   UNL     1       8.571   4.484  24.282  0.00  0.00    -0.434 OA
BRANCH  34  36
ATOM     35  C   UNL     1       7.515   5.686  22.411  0.00  0.00    +0.048 C 
ATOM     36  C   UNL     1       8.694   5.567  23.362  0.00  0.00    +0.232 C 
ENDBRANCH  34  36
ENDBRANCH  32  34
ENDBRANCH  31  32
ENDBRANCH   1  31
TORSDOF 10
ENDMDL
MODEL 9
REMARK VINA RESULT:      -6.3      2.378      4.525
REMARK  Name = 
REMARK  14 active torsions:
REMARK  status: ('A' for Active; 'I' for Inactive)
REMARK    1  A    between atoms: C_1  and  C_2
REMARK    2  A    between atoms: C_2  and  O_3
REMARK    3  A    between atoms: O_3  and  C_4
REMARK    4  A    between atoms: C_4  and  O_6
REMARK    5  A    between atoms: O_6  and  C_7
REMARK    6  A    between atoms: C_7  and  C_28
REMARK    7  A    between atoms: C_20  and  C_21
REMARK    8  A    between atoms: C_23  and  O_24
REMARK    9  A    between atoms: C_26  and  C_27
REMARK   10  A    between atoms: C_28  and  C_30
REMARK   11  A    between atoms: C_30  and  O_31
REMARK   12  A    between atoms: O_31  and  C_32
REMARK   13  A    between atoms: C_32  and  C_34
REMARK   14  A    between atoms: C_34  and  C_35
REMARK                            x       y       z     vdW  Elec       q    Type
REMARK                         _______ _______ _______ _____ _____    ______ ____
ROOT
ATOM      1  C   UNL     1       8.138  -2.809  24.450  0.00  0.00    +0.183 C 
ATOM      2  C   UNL     1       7.738  -1.640  23.434  0.00  0.00    +0.020 C 
ATOM      3  C   UNL     1       7.737  -2.055  21.925  0.00  0.00    +0.016 C 
ATOM      4  C   UNL     1       8.886  -0.598  23.562  0.00  0.00    +0.003 C 
ATOM      5  C   UNL     1       8.462   0.727  24.259  0.00  0.00    -0.000 C 
ATOM      6  C   UNL     1       7.190   1.296  23.540  0.00  0.00    +0.035 C 
ATOM      7  C   UNL     1       6.000   0.325  23.628  0.00  0.00    +0.120 C 
ATOM      8  C   UNL     1       6.790   2.842  23.677  0.00  0.00    +0.013 C 
ATOM      9  C   UNL     1       5.777   3.024  22.476  0.00  0.00    +0.020 C 
ATOM     10  C   UNL     1       8.131   3.594  23.673  0.00  0.00    -0.056 C 
ATOM     11  C   UNL     1       8.198   4.879  23.293  0.00  0.00    +0.051 C 
ATOM     12  C   UNL     1       6.895   5.578  23.479  0.00  0.00    +0.179 C 
ATOM     13  C   UNL     1       6.043   4.998  24.590  0.00  0.00    +0.047 C 
ATOM     14  O   UNL     1       6.584   6.558  22.822  0.00  0.00    -0.288 OA
ATOM     15  C   UNL     1       9.155   3.069  24.658  0.00  0.00    +0.032 C 
ATOM     16  C   UNL     1       6.040   3.649  24.753  0.00  0.00    -0.012 C 
ATOM     17  C   UNL     1       9.639   1.712  24.223  0.00  0.00    +0.008 C 
ATOM     18  C   UNL     1      10.095  -1.387  24.122  0.00  0.00    +0.009 C 
ATOM     19  C   UNL     1       6.329  -1.161  23.770  0.00  0.00    +0.043 C 
ATOM     20  C   UNL     1       9.656  -2.858  24.162  0.00  0.00    +0.057 C 
ENDROOT
BRANCH   1  21
ATOM     21  C   UNL     1       7.934  -2.394  25.970  0.00  0.00    +0.214 C 
ATOM     22  O   UNL     1       8.871  -1.921  26.633  0.00  0.00    -0.289 OA
BRANCH  21  23
ATOM     23  C   UNL     1       6.603  -2.563  26.742  0.00  0.00    +0.310 C 
BRANCH  23  24
ATOM     24  O   UNL     1       5.691  -3.634  26.739  0.00  0.00    -0.457 OA
BRANCH  24  25
ATOM     25  C   UNL     1       6.202  -4.852  27.092  0.00  0.00    +0.307 C 
ATOM     26  O   UNL     1       7.129  -4.981  27.887  0.00  0.00    -0.251 OA
BRANCH  25  27
ATOM     27  C   UNL     1       5.609  -6.010  26.365  0.00  0.00    +0.117 C 
ATOM     28  C   UNL     1       4.448  -6.714  27.028  0.00  0.00    +0.015 C 
ENDBRANCH  25  27
ENDBRANCH  24  25
ENDBRANCH  23  24
ENDBRANCH  21  23
ENDBRANCH   1  21
BRANCH   7  29
ATOM     29  O   UNL     1       5.158   0.697  24.717  0.00  0.00    -0.391 OA
ATOM     30  H   UNL     1       4.251   0.815  24.374  0.00  0.00    +0.210 HD
ENDBRANCH   7  29
BRANCH   1  31
ATOM     31  O   UNL     1       7.461  -4.013  24.075  0.00  0.00    -0.419 OA
BRANCH  31  32
ATOM     32  C   UNL     1       8.236  -5.127  23.977  0.00  0.00    +0.511 C 
ATOM     33  O   UNL     1       8.898  -5.604  24.882  0.00  0.00    -0.203 OA
BRANCH  32  34
ATOM     34  O   UNL     1       8.172  -5.607  22.710  0.00  0.00    -0.434 OA
BRANCH  34  36
ATOM     35  C   UNL     1       6.292  -5.571  21.121  0.00  0.00    +0.048 C 
ATOM     36  C   UNL     1       6.907  -6.172  22.373  0.00  0.00    +0.232 C 
ENDBRANCH  34  36
ENDBRANCH  32  34
ENDBRANCH  31  32
ENDBRANCH   1  31
TORSDOF 10
ENDMDL
