MODEL 1
REMARK VINA RESULT:      -4.2      0.000      0.000
REMARK  Name = 
REMARK  7 active torsions:
REMARK  status: ('A' for Active; 'I' for Inactive)
REMARK    1  A    between atoms: C_1  and  P_2
REMARK    2  A    between atoms: P_2  and  O_3
REMARK    3  A    between atoms: P_2  and  C_5
REMARK    4  A    between atoms: C_5  and  C_6
REMARK    5  A    between atoms: C_6  and  C_8
REMARK    6  A    between atoms: C_8  and  C_9
REMARK    7  A    between atoms: C_9  and  O_10
REMARK                            x       y       z     vdW  Elec       q    Type
REMARK                         _______ _______ _______ _____ _____    ______ ____
ROOT
ATOM      1  C   UNL     1       8.114  -4.762  24.459  0.00  0.00    +0.153 C 
ATOM      2  O   UNL     1       9.035  -5.507  24.111  0.00  0.00    -0.296 OA
ENDROOT
BRANCH   1   3
ATOM      3  C   UNL     1       7.753  -3.465  23.734  0.00  0.00    +0.171 C 
BRANCH   3   5
ATOM      4  C   UNL     1      10.036  -0.671  24.344  0.00  0.00    +0.111 C 
ATOM      5  P   UNL     1       8.895  -2.068  24.039  0.00  0.00    +0.206 P 
ATOM      6  O   UNL     1       8.634  -2.177  25.549  0.00  0.00    -0.291 OA
BRANCH   5   7
ATOM      7  O   UNL     1      10.235  -3.000  23.811  0.00  0.00    -0.343 OA
ATOM      8  H   UNL     1      10.726  -2.812  22.988  0.00  0.00    +0.218 HD
ENDBRANCH   5   7
ENDBRANCH   3   5
ENDBRANCH   1   3
BRANCH   1   9
ATOM      9  C   UNL     1       7.239  -5.202  25.601  0.00  0.00    +0.195 C 
BRANCH   9  10
ATOM     10  C   UNL     1       7.892  -5.332  26.958  0.00  0.00    +0.312 C 
ATOM     11  O   UNL     1       7.307  -5.862  27.902  0.00  0.00    -0.251 OA
BRANCH  10  12
ATOM     12  O   UNL     1       9.132  -4.824  27.097  0.00  0.00    -0.480 OA
ATOM     13  H   UNL     1       9.422  -4.256  26.341  0.00  0.00    +0.295 HD
ENDBRANCH  10  12
ENDBRANCH   9  10
ENDBRANCH   1   9
TORSDOF 6
ENDMDL
MODEL 2
REMARK VINA RESULT:      -4.2      2.872      5.533
REMARK  Name = 
REMARK  7 active torsions:
REMARK  status: ('A' for Active; 'I' for Inactive)
REMARK    1  A    between atoms: C_1  and  P_2
REMARK    2  A    between atoms: P_2  and  O_3
REMARK    3  A    between atoms: P_2  and  C_5
REMARK    4  A    between atoms: C_5  and  C_6
REMARK    5  A    between atoms: C_6  and  C_8
REMARK    6  A    between atoms: C_8  and  C_9
REMARK    7  A    between atoms: C_9  and  O_10
REMARK                            x       y       z     vdW  Elec       q    Type
REMARK                         _______ _______ _______ _____ _____    ______ ____
ROOT
ATOM      1  C   UNL     1       9.656  -1.435  22.077  0.00  0.00    +0.153 C 
ATOM      2  O   UNL     1      10.833  -1.778  22.230  0.00  0.00    -0.296 OA
ENDROOT
BRANCH   1   3
ATOM      3  C   UNL     1       8.463  -2.258  22.563  0.00  0.00    +0.171 C 
BRANCH   3   5
ATOM      4  C   UNL     1       8.429  -2.951  26.157  0.00  0.00    +0.111 C 
ATOM      5  P   UNL     1       8.446  -2.605  24.360  0.00  0.00    +0.206 P 
ATOM      6  O   UNL     1       9.253  -3.890  24.126  0.00  0.00    -0.291 OA
BRANCH   5   7
ATOM      7  O   UNL     1       9.604  -1.475  24.677  0.00  0.00    -0.343 OA
ATOM      8  H   UNL     1       9.362  -0.828  25.368  0.00  0.00    +0.218 HD
ENDBRANCH   5   7
ENDBRANCH   3   5
ENDBRANCH   1   3
BRANCH   1   9
ATOM      9  C   UNL     1       9.384  -0.088  21.464  0.00  0.00    +0.195 C 
BRANCH   9  10
ATOM     10  C   UNL     1       9.860   1.125  22.229  0.00  0.00    +0.312 C 
ATOM     11  O   UNL     1       9.933   1.120  23.457  0.00  0.00    -0.251 OA
BRANCH  10  12
ATOM     12  O   UNL     1      10.180   2.220  21.512  0.00  0.00    -0.480 OA
ATOM     13  H   UNL     1       9.894   2.180  20.565  0.00  0.00    +0.295 HD
ENDBRANCH  10  12
ENDBRANCH   9  10
ENDBRANCH   1   9
TORSDOF 6
ENDMDL
MODEL 3
REMARK VINA RESULT:      -4.0      1.738      2.044
REMARK  Name = 
REMARK  7 active torsions:
REMARK  status: ('A' for Active; 'I' for Inactive)
REMARK    1  A    between atoms: C_1  and  P_2
REMARK    2  A    between atoms: P_2  and  O_3
REMARK    3  A    between atoms: P_2  and  C_5
REMARK    4  A    between atoms: C_5  and  C_6
REMARK    5  A    between atoms: C_6  and  C_8
REMARK    6  A    between atoms: C_8  and  C_9
REMARK    7  A    between atoms: C_9  and  O_10
REMARK                            x       y       z     vdW  Elec       q    Type
REMARK                         _______ _______ _______ _____ _____    ______ ____
ROOT
ATOM      1  C   UNL     1       8.929  -3.372  23.875  0.00  0.00    +0.153 C 
ATOM      2  O   UNL     1      10.150  -3.368  24.058  0.00  0.00    -0.296 OA
ENDROOT
BRANCH   1   3
ATOM      3  C   UNL     1       8.248  -2.713  22.675  0.00  0.00    +0.171 C 
BRANCH   3   5
ATOM      4  C   UNL     1       9.621   0.543  21.720  0.00  0.00    +0.111 C 
ATOM      5  P   UNL     1       8.935  -1.085  22.198  0.00  0.00    +0.206 P 
ATOM      6  O   UNL     1       8.960  -0.656  23.673  0.00  0.00    -0.291 OA
BRANCH   5   7
ATOM      7  O   UNL     1      10.445  -1.697  21.949  0.00  0.00    -0.343 OA
ATOM      8  H   UNL     1      10.516  -2.312  21.193  0.00  0.00    +0.218 HD
ENDBRANCH   5   7
ENDBRANCH   3   5
ENDBRANCH   1   3
BRANCH   1   9
ATOM      9  C   UNL     1       8.071  -4.149  24.837  0.00  0.00    +0.195 C 
BRANCH   9  10
ATOM     10  C   UNL     1       8.783  -4.942  25.908  0.00  0.00    +0.312 C 
ATOM     11  O   UNL     1       8.462  -4.851  27.092  0.00  0.00    -0.251 OA
BRANCH  10  12
ATOM     12  O   UNL     1       9.798  -5.736  25.515  0.00  0.00    -0.480 OA
ATOM     13  H   UNL     1       9.570  -6.344  24.768  0.00  0.00    +0.295 HD
ENDBRANCH  10  12
ENDBRANCH   9  10
ENDBRANCH   1   9
TORSDOF 6
ENDMDL
MODEL 4
REMARK VINA RESULT:      -4.0      2.530      5.132
REMARK  Name = 
REMARK  7 active torsions:
REMARK  status: ('A' for Active; 'I' for Inactive)
REMARK    1  A    between atoms: C_1  and  P_2
REMARK    2  A    between atoms: P_2  and  O_3
REMARK    3  A    between atoms: P_2  and  C_5
REMARK    4  A    between atoms: C_5  and  C_6
REMARK    5  A    between atoms: C_6  and  C_8
REMARK    6  A    between atoms: C_8  and  C_9
REMARK    7  A    between atoms: C_9  and  O_10
REMARK                            x       y       z     vdW  Elec       q    Type
REMARK                         _______ _______ _______ _____ _____    ______ ____
ROOT
ATOM      1  C   UNL     1       9.350  -2.423  23.988  0.00  0.00    +0.153 C 
ATOM      2  O   UNL     1      10.333  -3.168  23.936  0.00  0.00    -0.296 OA
ENDROOT
BRANCH   1   3
ATOM      3  C   UNL     1       7.964  -2.878  24.447  0.00  0.00    +0.171 C 
BRANCH   3   5
ATOM      4  C   UNL     1       6.489  -5.573  22.459  0.00  0.00    +0.111 C 
ATOM      5  P   UNL     1       7.226  -4.225  23.453  0.00  0.00    +0.206 P 
ATOM      6  O   UNL     1       7.647  -3.510  22.160  0.00  0.00    -0.291 OA
BRANCH   5   7
ATOM      7  O   UNL     1       8.482  -5.251  23.752  0.00  0.00    -0.343 OA
ATOM      8  H   UNL     1       8.521  -5.591  24.667  0.00  0.00    +0.218 HD
ENDBRANCH   5   7
ENDBRANCH   3   5
ENDBRANCH   1   3
BRANCH   1   9
ATOM      9  C   UNL     1       9.548  -0.965  23.672  0.00  0.00    +0.195 C 
BRANCH   9  10
ATOM     10  C   UNL     1       9.871  -0.609  22.239  0.00  0.00    +0.312 C 
ATOM     11  O   UNL     1      10.012   0.561  21.887  0.00  0.00    -0.251 OA
BRANCH  10  12
ATOM     12  O   UNL     1       9.977  -1.624  21.360  0.00  0.00    -0.480 OA
ATOM     13  H   UNL     1       9.874  -1.352  20.415  0.00  0.00    +0.295 HD
ENDBRANCH  10  12
ENDBRANCH   9  10
ENDBRANCH   1   9
TORSDOF 6
ENDMDL
MODEL 5
REMARK VINA RESULT:      -3.8      3.167      6.011
REMARK  Name = 
REMARK  7 active torsions:
REMARK  status: ('A' for Active; 'I' for Inactive)
REMARK    1  A    between atoms: C_1  and  P_2
REMARK    2  A    between atoms: P_2  and  O_3
REMARK    3  A    between atoms: P_2  and  C_5
REMARK    4  A    between atoms: C_5  and  C_6
REMARK    5  A    between atoms: C_6  and  C_8
REMARK    6  A    between atoms: C_8  and  C_9
REMARK    7  A    between atoms: C_9  and  O_10
REMARK                            x       y       z     vdW  Elec       q    Type
REMARK                         _______ _______ _______ _____ _____    ______ ____
ROOT
ATOM      1  C   UNL     1       9.956  -0.556  23.086  0.00  0.00    +0.153 C 
ATOM      2  O   UNL     1       9.997   0.270  24.003  0.00  0.00    -0.296 OA
ENDROOT
BRANCH   1   3
ATOM      3  C   UNL     1      10.219  -2.050  23.278  0.00  0.00    +0.171 C 
BRANCH   3   5
ATOM      4  C   UNL     1       7.751  -3.797  25.341  0.00  0.00    +0.111 C 
ATOM      5  P   UNL     1       8.985  -2.924  24.310  0.00  0.00    +0.206 P 
ATOM      6  O   UNL     1       8.191  -3.302  23.050  0.00  0.00    -0.291 OA
BRANCH   5   7
ATOM      7  O   UNL     1       9.973  -4.222  24.546  0.00  0.00    -0.343 OA
ATOM      8  H   UNL     1      10.767  -4.037  25.084  0.00  0.00    +0.218 HD
ENDBRANCH   5   7
ENDBRANCH   3   5
ENDBRANCH   1   3
BRANCH   1   9
ATOM      9  C   UNL     1       9.531  -0.082  21.723  0.00  0.00    +0.195 C 
BRANCH   9  10
ATOM     10  C   UNL     1       9.224   1.390  21.571  0.00  0.00    +0.312 C 
ATOM     11  O   UNL     1       8.081   1.785  21.346  0.00  0.00    -0.251 OA
BRANCH  10  12
ATOM     12  O   UNL     1      10.256   2.249  21.671  0.00  0.00    -0.480 OA
ATOM     13  H   UNL     1      10.828   2.103  22.465  0.00  0.00    +0.295 HD
ENDBRANCH  10  12
ENDBRANCH   9  10
ENDBRANCH   1   9
TORSDOF 6
ENDMDL
MODEL 6
REMARK VINA RESULT:      -3.8      6.022      8.157
REMARK  Name = 
REMARK  7 active torsions:
REMARK  status: ('A' for Active; 'I' for Inactive)
REMARK    1  A    between atoms: C_1  and  P_2
REMARK    2  A    between atoms: P_2  and  O_3
REMARK    3  A    between atoms: P_2  and  C_5
REMARK    4  A    between atoms: C_5  and  C_6
REMARK    5  A    between atoms: C_6  and  C_8
REMARK    6  A    between atoms: C_8  and  C_9
REMARK    7  A    between atoms: C_9  and  O_10
REMARK                            x       y       z     vdW  Elec       q    Type
REMARK                         _______ _______ _______ _____ _____    ______ ____
ROOT
ATOM      1  C   UNL     1      10.400   3.571  23.697  0.00  0.00    +0.153 C 
ATOM      2  O   UNL     1      11.516   3.835  23.240  0.00  0.00    -0.296 OA
ENDROOT
BRANCH   1   3
ATOM      3  C   UNL     1       9.964   2.164  24.111  0.00  0.00    +0.171 C 
BRANCH   3   5
ATOM      4  C   UNL     1       9.418  -0.158  21.335  0.00  0.00    +0.111 C 
ATOM      5  P   UNL     1       9.691   1.003  22.723  0.00  0.00    +0.206 P 
ATOM      6  O   UNL     1       8.172   1.166  22.878  0.00  0.00    -0.291 OA
BRANCH   5   7
ATOM      7  O   UNL     1      10.086   2.130  21.587  0.00  0.00    -0.343 OA
ATOM      8  H   UNL     1       9.426   2.842  21.473  0.00  0.00    +0.218 HD
ENDBRANCH   5   7
ENDBRANCH   3   5
ENDBRANCH   1   3
BRANCH   1   9
ATOM      9  C   UNL     1       9.450   4.709  23.951  0.00  0.00    +0.195 C 
BRANCH   9  10
ATOM     10  C   UNL     1       8.062   4.591  23.363  0.00  0.00    +0.312 C 
ATOM     11  O   UNL     1       7.061   4.845  24.030  0.00  0.00    -0.251 OA
BRANCH  10  12
ATOM     12  O   UNL     1       7.967   4.174  22.086  0.00  0.00    -0.480 OA
ATOM     13  H   UNL     1       8.290   4.832  21.421  0.00  0.00    +0.295 HD
ENDBRANCH  10  12
ENDBRANCH   9  10
ENDBRANCH   1   9
TORSDOF 6
ENDMDL
MODEL 7
REMARK VINA RESULT:      -3.7      2.766      3.814
REMARK  Name = 
REMARK  7 active torsions:
REMARK  status: ('A' for Active; 'I' for Inactive)
REMARK    1  A    between atoms: C_1  and  P_2
REMARK    2  A    between atoms: P_2  and  O_3
REMARK    3  A    between atoms: P_2  and  C_5
REMARK    4  A    between atoms: C_5  and  C_6
REMARK    5  A    between atoms: C_6  and  C_8
REMARK    6  A    between atoms: C_8  and  C_9
REMARK    7  A    between atoms: C_9  and  O_10
REMARK                            x       y       z     vdW  Elec       q    Type
REMARK                         _______ _______ _______ _____ _____    ______ ____
ROOT
ATOM      1  C   UNL     1       8.083  -4.430  24.073  0.00  0.00    +0.153 C 
ATOM      2  O   UNL     1       9.243  -4.012  24.134  0.00  0.00    -0.296 OA
ENDROOT
BRANCH   1   3
ATOM      3  C   UNL     1       7.424  -4.919  22.782  0.00  0.00    +0.171 C 
BRANCH   3   5
ATOM      4  C   UNL     1       3.897  -5.843  23.106  0.00  0.00    +0.111 C 
ATOM      5  P   UNL     1       5.661  -5.381  22.944  0.00  0.00    +0.206 P 
ATOM      6  O   UNL     1       5.263  -4.204  22.040  0.00  0.00    -0.291 OA
BRANCH   5   7
ATOM      7  O   UNL     1       5.804  -6.642  21.893  0.00  0.00    -0.343 OA
ATOM      8  H   UNL     1       4.999  -6.835  21.376  0.00  0.00    +0.218 HD
ENDBRANCH   5   7
ENDBRANCH   3   5
ENDBRANCH   1   3
BRANCH   1   9
ATOM      9  C   UNL     1       7.306  -4.556  25.355  0.00  0.00    +0.195 C 
BRANCH   9  10
ATOM     10  C   UNL     1       7.987  -5.261  26.506  0.00  0.00    +0.312 C 
ATOM     11  O   UNL     1       7.350  -5.952  27.300  0.00  0.00    -0.251 OA
BRANCH  10  12
ATOM     12  O   UNL     1       9.315  -5.083  26.639  0.00  0.00    -0.480 OA
ATOM     13  H   UNL     1       9.691  -5.457  27.475  0.00  0.00    +0.295 HD
ENDBRANCH  10  12
ENDBRANCH   9  10
ENDBRANCH   1   9
TORSDOF 6
ENDMDL
MODEL 8
REMARK VINA RESULT:      -3.7      2.799      4.628
REMARK  Name = 
REMARK  7 active torsions:
REMARK  status: ('A' for Active; 'I' for Inactive)
REMARK    1  A    between atoms: C_1  and  P_2
REMARK    2  A    between atoms: P_2  and  O_3
REMARK    3  A    between atoms: P_2  and  C_5
REMARK    4  A    between atoms: C_5  and  C_6
REMARK    5  A    between atoms: C_6  and  C_8
REMARK    6  A    between atoms: C_8  and  C_9
REMARK    7  A    between atoms: C_9  and  O_10
REMARK                            x       y       z     vdW  Elec       q    Type
REMARK                         _______ _______ _______ _____ _____    ______ ____
ROOT
ATOM      1  C   UNL     1       7.820  -4.972  24.098  0.00  0.00    +0.153 C 
ATOM      2  O   UNL     1       9.032  -4.788  24.238  0.00  0.00    -0.296 OA
ENDROOT
BRANCH   1   3
ATOM      3  C   UNL     1       6.761  -4.397  25.040  0.00  0.00    +0.171 C 
BRANCH   3   5
ATOM      4  C   UNL     1       6.517  -6.067  28.288  0.00  0.00    +0.111 C 
ATOM      5  P   UNL     1       6.639  -5.232  26.664  0.00  0.00    +0.206 P 
ATOM      6  O   UNL     1       5.807  -6.357  26.030  0.00  0.00    -0.291 OA
BRANCH   5   7
ATOM      7  O   UNL     1       8.183  -5.803  26.584  0.00  0.00    -0.343 OA
ATOM      8  H   UNL     1       8.262  -6.717  26.249  0.00  0.00    +0.218 HD
ENDBRANCH   5   7
ENDBRANCH   3   5
ENDBRANCH   1   3
BRANCH   1   9
ATOM      9  C   UNL     1       7.352  -5.724  22.882  0.00  0.00    +0.195 C 
BRANCH   9  10
ATOM     10  C   UNL     1       5.867  -5.725  22.602  0.00  0.00    +0.312 C 
ATOM     11  O   UNL     1       5.343  -4.845  21.921  0.00  0.00    -0.251 OA
BRANCH  10  12
ATOM     12  O   UNL     1       5.137  -6.717  23.148  0.00  0.00    -0.480 OA
ATOM     13  H   UNL     1       4.395  -6.404  23.723  0.00  0.00    +0.295 HD
ENDBRANCH  10  12
ENDBRANCH   9  10
ENDBRANCH   1   9
TORSDOF 6
ENDMDL
MODEL 9
REMARK VINA RESULT:      -3.7      2.091      4.636
REMARK  Name = 
REMARK  7 active torsions:
REMARK  status: ('A' for Active; 'I' for Inactive)
REMARK    1  A    between atoms: C_1  and  P_2
REMARK    2  A    between atoms: P_2  and  O_3
REMARK    3  A    between atoms: P_2  and  C_5
REMARK    4  A    between atoms: C_5  and  C_6
REMARK    5  A    between atoms: C_6  and  C_8
REMARK    6  A    between atoms: C_8  and  C_9
REMARK    7  A    between atoms: C_9  and  O_10
REMARK                            x       y       z     vdW  Elec       q    Type
REMARK                         _______ _______ _______ _____ _____    ______ ____
ROOT
ATOM      1  C   UNL     1       8.611  -4.345  24.638  0.00  0.00    +0.153 C 
ATOM      2  O   UNL     1       9.722  -4.875  24.733  0.00  0.00    -0.296 OA
ENDROOT
BRANCH   1   3
ATOM      3  C   UNL     1       7.294  -5.098  24.824  0.00  0.00    +0.171 C 
BRANCH   3   5
ATOM      4  C   UNL     1       6.122  -5.323  28.284  0.00  0.00    +0.111 C 
ATOM      5  P   UNL     1       6.708  -5.210  26.554  0.00  0.00    +0.206 P 
ATOM      6  O   UNL     1       5.866  -6.444  26.195  0.00  0.00    -0.291 OA
BRANCH   5   7
ATOM      7  O   UNL     1       8.129  -5.855  27.085  0.00  0.00    -0.343 OA
ATOM      8  H   UNL     1       8.168  -6.831  27.058  0.00  0.00    +0.218 HD
ENDBRANCH   5   7
ENDBRANCH   3   5
ENDBRANCH   1   3
BRANCH   1   9
ATOM      9  C   UNL     1       8.552  -2.857  24.421  0.00  0.00    +0.195 C 
BRANCH   9  10
ATOM     10  C   UNL     1       9.181  -2.321  23.156  0.00  0.00    +0.312 C 
ATOM     11  O   UNL     1       8.504  -1.773  22.287  0.00  0.00    -0.251 OA
BRANCH  10  12
ATOM     12  O   UNL     1      10.510  -2.487  23.009  0.00  0.00    -0.480 OA
ATOM     13  H   UNL     1      11.027  -1.644  23.031  0.00  0.00    +0.295 HD
ENDBRANCH  10  12
ENDBRANCH   9  10
ENDBRANCH   1   9
TORSDOF 6
ENDMDL
