MODEL 1
REMARK VINA RESULT:      -6.6      0.000      0.000
REMARK  Name = 
REMARK  2 active torsions:
REMARK  status: ('A' for Active; 'I' for Inactive)
REMARK    1  A    between atoms: C_5  and  C_8
REMARK    2  A    between atoms: C_12  and  C_13
REMARK                            x       y       z     vdW  Elec       q    Type
REMARK                         _______ _______ _______ _____ _____    ______ ____
ROOT
ATOM      1  C   UNL     1       8.642  -3.650  25.405  0.00  0.00    +0.100 A 
ATOM      2  C   UNL     1       7.653  -4.519  24.819  0.00  0.00    +0.027 A 
ATOM      3  C   UNL     1       7.443  -5.497  25.772  0.00  0.00    +0.114 A 
ATOM      4  N   UNL     1       8.263  -5.195  26.813  0.00  0.00    -0.284 N 
ATOM      5  H   UNL     1       8.375  -5.696  27.687  0.00  0.00    +0.188 HD
ATOM      6  N   UNL     1       8.985  -4.085  26.632  0.00  0.00    -0.173 NA
ENDROOT
BRANCH   1  11
ATOM      7  F   UNL     1      10.438   1.179  23.219  0.00  0.00    -0.205 F 
ATOM      8  C   UNL     1      10.081   0.014  23.776  0.00  0.00    +0.123 A 
ATOM      9  C   UNL     1       9.453   0.010  25.014  0.00  0.00    +0.039 A 
ATOM     10  C   UNL     1       9.026  -1.200  25.565  0.00  0.00    +0.013 A 
ATOM     11  C   UNL     1       9.225  -2.410  24.878  0.00  0.00    +0.003 A 
ATOM     12  C   UNL     1       9.939  -2.388  23.670  0.00  0.00    +0.013 A 
ATOM     13  C   UNL     1      10.339  -1.174  23.104  0.00  0.00    +0.039 A 
ENDBRANCH   1  11
BRANCH   2  14
ATOM     14  C   UNL     1       6.944  -4.490  23.545  0.00  0.00    -0.011 A 
ATOM     15  C   UNL     1       7.064  -5.551  22.645  0.00  0.00    +0.028 A 
ATOM     16  C   UNL     1       6.460  -5.441  21.403  0.00  0.00    +0.111 A 
ATOM     17  N   UNL     1       5.760  -4.361  21.001  0.00  0.00    -0.263 NA
ATOM     18  C   UNL     1       5.628  -3.360  21.895  0.00  0.00    +0.111 A 
ATOM     19  C   UNL     1       6.170  -3.390  23.169  0.00  0.00    +0.028 A 
ENDBRANCH   2  14
TORSDOF 2
ENDMDL
MODEL 2
REMARK VINA RESULT:      -6.6      0.233      1.162
REMARK  Name = 
REMARK  2 active torsions:
REMARK  status: ('A' for Active; 'I' for Inactive)
REMARK    1  A    between atoms: C_5  and  C_8
REMARK    2  A    between atoms: C_12  and  C_13
REMARK                            x       y       z     vdW  Elec       q    Type
REMARK                         _______ _______ _______ _____ _____    ______ ____
ROOT
ATOM      1  C   UNL     1       8.653  -3.644  25.384  0.00  0.00    +0.100 A 
ATOM      2  C   UNL     1       7.732  -4.564  24.765  0.00  0.00    +0.027 A 
ATOM      3  C   UNL     1       7.605  -5.592  25.678  0.00  0.00    +0.114 A 
ATOM      4  N   UNL     1       8.404  -5.269  26.728  0.00  0.00    -0.284 N 
ATOM      5  H   UNL     1       8.560  -5.794  27.582  0.00  0.00    +0.188 HD
ATOM      6  N   UNL     1       9.036  -4.099  26.591  0.00  0.00    -0.173 NA
ENDROOT
BRANCH   1  11
ATOM      7  F   UNL     1      10.913   1.202  23.731  0.00  0.00    -0.205 F 
ATOM      8  C   UNL     1      10.304   0.065  24.091  0.00  0.00    +0.123 A 
ATOM      9  C   UNL     1      10.423  -1.060  23.286  0.00  0.00    +0.039 A 
ATOM     10  C   UNL     1       9.838  -2.262  23.693  0.00  0.00    +0.013 A 
ATOM     11  C   UNL     1       9.134  -2.341  24.907  0.00  0.00    +0.003 A 
ATOM     12  C   UNL     1       8.955  -1.170  25.659  0.00  0.00    +0.013 A 
ATOM     13  C   UNL     1       9.566   0.025  25.266  0.00  0.00    +0.039 A 
ENDBRANCH   1  11
BRANCH   2  14
ATOM     14  C   UNL     1       7.017  -4.540  23.494  0.00  0.00    -0.011 A 
ATOM     15  C   UNL     1       7.121  -5.611  22.604  0.00  0.00    +0.028 A 
ATOM     16  C   UNL     1       6.511  -5.507  21.365  0.00  0.00    +0.111 A 
ATOM     17  N   UNL     1       5.821  -4.424  20.956  0.00  0.00    -0.263 NA
ATOM     18  C   UNL     1       5.705  -3.412  21.840  0.00  0.00    +0.111 A 
ATOM     19  C   UNL     1       6.253  -3.435  23.112  0.00  0.00    +0.028 A 
ENDBRANCH   2  14
TORSDOF 2
ENDMDL
MODEL 3
REMARK VINA RESULT:      -6.2      1.942      2.596
REMARK  Name = 
REMARK  2 active torsions:
REMARK  status: ('A' for Active; 'I' for Inactive)
REMARK    1  A    between atoms: C_5  and  C_8
REMARK    2  A    between atoms: C_12  and  C_13
REMARK                            x       y       z     vdW  Elec       q    Type
REMARK                         _______ _______ _______ _____ _____    ______ ____
ROOT
ATOM      1  C   UNL     1       9.100  -3.759  24.457  0.00  0.00    +0.100 A 
ATOM      2  C   UNL     1       7.896  -4.375  24.953  0.00  0.00    +0.027 A 
ATOM      3  C   UNL     1       8.329  -5.524  25.584  0.00  0.00    +0.114 A 
ATOM      4  N   UNL     1       9.681  -5.548  25.444  0.00  0.00    -0.284 N 
ATOM      5  H   UNL     1      10.334  -6.245  25.782  0.00  0.00    +0.188 HD
ATOM      6  N   UNL     1      10.178  -4.496  24.786  0.00  0.00    -0.173 NA
ENDROOT
BRANCH   1  11
ATOM      7  F   UNL     1      10.141   0.895  21.527  0.00  0.00    -0.205 F 
ATOM      8  C   UNL     1       9.825  -0.184  22.254  0.00  0.00    +0.123 A 
ATOM      9  C   UNL     1       9.121  -1.226  21.665  0.00  0.00    +0.039 A 
ATOM     10  C   UNL     1       8.846  -2.376  22.407  0.00  0.00    +0.013 A 
ATOM     11  C   UNL     1       9.273  -2.488  23.742  0.00  0.00    +0.003 A 
ATOM     12  C   UNL     1       9.905  -1.387  24.340  0.00  0.00    +0.013 A 
ATOM     13  C   UNL     1      10.208  -0.247  23.588  0.00  0.00    +0.039 A 
ENDBRANCH   1  11
BRANCH   2  14
ATOM     14  C   UNL     1       6.491  -3.987  24.891  0.00  0.00    -0.011 A 
ATOM     15  C   UNL     1       5.893  -3.324  25.966  0.00  0.00    +0.028 A 
ATOM     16  C   UNL     1       4.533  -3.064  25.913  0.00  0.00    +0.111 A 
ATOM     17  N   UNL     1       3.741  -3.418  24.881  0.00  0.00    -0.263 NA
ATOM     18  C   UNL     1       4.341  -4.029  23.840  0.00  0.00    +0.111 A 
ATOM     19  C   UNL     1       5.697  -4.306  23.787  0.00  0.00    +0.028 A 
ENDBRANCH   2  14
TORSDOF 2
ENDMDL
MODEL 4
REMARK VINA RESULT:      -6.2      5.575      7.951
REMARK  Name = 
REMARK  2 active torsions:
REMARK  status: ('A' for Active; 'I' for Inactive)
REMARK    1  A    between atoms: C_5  and  C_8
REMARK    2  A    between atoms: C_12  and  C_13
REMARK                            x       y       z     vdW  Elec       q    Type
REMARK                         _______ _______ _______ _____ _____    ______ ____
ROOT
ATOM      1  C   UNL     1      10.655   3.646  23.458  0.00  0.00    +0.100 A 
ATOM      2  C   UNL     1       9.741   4.726  23.728  0.00  0.00    +0.027 A 
ATOM      3  C   UNL     1      10.541   5.849  23.792  0.00  0.00    +0.114 A 
ATOM      4  N   UNL     1      11.813   5.422  23.578  0.00  0.00    -0.284 N 
ATOM      5  H   UNL     1      12.664   5.974  23.555  0.00  0.00    +0.188 HD
ATOM      6  N   UNL     1      11.916   4.108  23.359  0.00  0.00    -0.173 NA
ENDROOT
BRANCH   1  11
ATOM      7  F   UNL     1      10.062  -1.841  22.528  0.00  0.00    -0.205 F 
ATOM      8  C   UNL     1      10.127  -0.526  22.771  0.00  0.00    +0.123 A 
ATOM      9  C   UNL     1      10.536  -0.080  24.021  0.00  0.00    +0.039 A 
ATOM     10  C   UNL     1      10.661   1.291  24.254  0.00  0.00    +0.013 A 
ATOM     11  C   UNL     1      10.378   2.221  23.238  0.00  0.00    +0.003 A 
ATOM     12  C   UNL     1       9.884   1.747  22.013  0.00  0.00    +0.013 A 
ATOM     13  C   UNL     1       9.787   0.374  21.770  0.00  0.00    +0.039 A 
ENDBRANCH   1  11
BRANCH   2  14
ATOM     14  C   UNL     1       8.293   4.774  23.902  0.00  0.00    -0.011 A 
ATOM     15  C   UNL     1       7.739   4.921  25.176  0.00  0.00    +0.028 A 
ATOM     16  C   UNL     1       6.362   4.859  25.313  0.00  0.00    +0.111 A 
ATOM     17  N   UNL     1       5.513   4.657  24.284  0.00  0.00    -0.263 NA
ATOM     18  C   UNL     1       6.064   4.547  23.059  0.00  0.00    +0.111 A 
ATOM     19  C   UNL     1       7.426   4.626  22.817  0.00  0.00    +0.028 A 
ENDBRANCH   2  14
TORSDOF 2
ENDMDL
MODEL 5
REMARK VINA RESULT:      -6.1      3.036      5.109
REMARK  Name = 
REMARK  2 active torsions:
REMARK  status: ('A' for Active; 'I' for Inactive)
REMARK    1  A    between atoms: C_5  and  C_8
REMARK    2  A    between atoms: C_12  and  C_13
REMARK                            x       y       z     vdW  Elec       q    Type
REMARK                         _______ _______ _______ _____ _____    ______ ____
ROOT
ATOM      1  C   UNL     1       7.773  -2.803  24.519  0.00  0.00    +0.100 A 
ATOM      2  C   UNL     1       8.230  -1.438  24.453  0.00  0.00    +0.027 A 
ATOM      3  C   UNL     1       8.703  -1.169  25.722  0.00  0.00    +0.114 A 
ATOM      4  N   UNL     1       8.515  -2.304  26.446  0.00  0.00    -0.284 N 
ATOM      5  H   UNL     1       8.744  -2.471  27.419  0.00  0.00    +0.188 HD
ATOM      6  N   UNL     1       7.973  -3.309  25.751  0.00  0.00    -0.173 NA
ENDROOT
BRANCH   1  11
ATOM      7  F   UNL     1       6.019  -5.941  20.230  0.00  0.00    -0.205 F 
ATOM      8  C   UNL     1       6.375  -5.216  21.298  0.00  0.00    +0.123 A 
ATOM      9  C   UNL     1       7.260  -5.750  22.225  0.00  0.00    +0.039 A 
ATOM     10  C   UNL     1       7.677  -4.969  23.305  0.00  0.00    +0.013 A 
ATOM     11  C   UNL     1       7.211  -3.653  23.461  0.00  0.00    +0.003 A 
ATOM     12  C   UNL     1       6.252  -3.167  22.559  0.00  0.00    +0.013 A 
ATOM     13  C   UNL     1       5.857  -3.938  21.461  0.00  0.00    +0.039 A 
ENDBRANCH   1  11
BRANCH   2  14
ATOM     14  C   UNL     1       8.264  -0.460  23.371  0.00  0.00    -0.011 A 
ATOM     15  C   UNL     1       9.345  -0.421  22.487  0.00  0.00    +0.028 A 
ATOM     16  C   UNL     1       9.391   0.587  21.537  0.00  0.00    +0.111 A 
ATOM     17  N   UNL     1       8.450   1.546  21.414  0.00  0.00    -0.263 NA
ATOM     18  C   UNL     1       7.399   1.473  22.255  0.00  0.00    +0.111 A 
ATOM     19  C   UNL     1       7.250   0.488  23.217  0.00  0.00    +0.028 A 
ENDBRANCH   2  14
TORSDOF 2
ENDMDL
MODEL 6
REMARK VINA RESULT:      -6.1      1.749      4.144
REMARK  Name = 
REMARK  2 active torsions:
REMARK  status: ('A' for Active; 'I' for Inactive)
REMARK    1  A    between atoms: C_5  and  C_8
REMARK    2  A    between atoms: C_12  and  C_13
REMARK                            x       y       z     vdW  Elec       q    Type
REMARK                         _______ _______ _______ _____ _____    ______ ____
ROOT
ATOM      1  C   UNL     1       6.413  -4.203  22.513  0.00  0.00    +0.100 A 
ATOM      2  C   UNL     1       6.310  -5.249  23.499  0.00  0.00    +0.027 A 
ATOM      3  C   UNL     1       5.806  -6.331  22.804  0.00  0.00    +0.114 A 
ATOM      4  N   UNL     1       5.634  -5.913  21.522  0.00  0.00    -0.284 N 
ATOM      5  H   UNL     1       5.281  -6.442  20.733  0.00  0.00    +0.188 HD
ATOM      6  N   UNL     1       6.003  -4.646  21.310  0.00  0.00    -0.173 NA
ENDROOT
BRANCH   1  11
ATOM      7  F   UNL     1       8.617   0.859  23.427  0.00  0.00    -0.205 F 
ATOM      8  C   UNL     1       8.058  -0.323  23.141  0.00  0.00    +0.123 A 
ATOM      9  C   UNL     1       8.787  -1.276  22.443  0.00  0.00    +0.039 A 
ATOM     10  C   UNL     1       8.224  -2.531  22.199  0.00  0.00    +0.013 A 
ATOM     11  C   UNL     1       6.929  -2.836  22.652  0.00  0.00    +0.003 A 
ATOM     12  C   UNL     1       6.181  -1.827  23.279  0.00  0.00    +0.013 A 
ATOM     13  C   UNL     1       6.756  -0.581  23.549  0.00  0.00    +0.039 A 
ENDBRANCH   1  11
BRANCH   2  14
ATOM     14  C   UNL     1       6.637  -5.302  24.919  0.00  0.00    -0.011 A 
ATOM     15  C   UNL     1       7.933  -5.019  25.357  0.00  0.00    +0.028 A 
ATOM     16  C   UNL     1       8.230  -5.179  26.701  0.00  0.00    +0.111 A 
ATOM     17  N   UNL     1       7.340  -5.601  27.622  0.00  0.00    -0.263 NA
ATOM     18  C   UNL     1       6.086  -5.840  27.186  0.00  0.00    +0.111 A 
ATOM     19  C   UNL     1       5.686  -5.680  25.869  0.00  0.00    +0.028 A 
ENDBRANCH   2  14
TORSDOF 2
ENDMDL
MODEL 7
REMARK VINA RESULT:      -5.8      1.987      4.040
REMARK  Name = 
REMARK  2 active torsions:
REMARK  status: ('A' for Active; 'I' for Inactive)
REMARK    1  A    between atoms: C_5  and  C_8
REMARK    2  A    between atoms: C_12  and  C_13
REMARK                            x       y       z     vdW  Elec       q    Type
REMARK                         _______ _______ _______ _____ _____    ______ ____
ROOT
ATOM      1  C   UNL     1       6.876  -4.736  22.972  0.00  0.00    +0.100 A 
ATOM      2  C   UNL     1       6.008  -5.300  23.974  0.00  0.00    +0.027 A 
ATOM      3  C   UNL     1       5.360  -6.334  23.328  0.00  0.00    +0.114 A 
ATOM      4  N   UNL     1       5.831  -6.340  22.053  0.00  0.00    -0.284 N 
ATOM      5  H   UNL     1       5.577  -6.963  21.295  0.00  0.00    +0.188 HD
ATOM      6  N   UNL     1       6.753  -5.404  21.810  0.00  0.00    -0.173 NA
ENDROOT
BRANCH   1  11
ATOM      7  F   UNL     1      10.814  -0.759  23.059  0.00  0.00    -0.205 F 
ATOM      8  C   UNL     1       9.831  -1.668  23.092  0.00  0.00    +0.123 A 
ATOM      9  C   UNL     1       8.791  -1.588  22.175  0.00  0.00    +0.039 A 
ATOM     10  C   UNL     1       7.800  -2.572  22.172  0.00  0.00    +0.013 A 
ATOM     11  C   UNL     1       7.845  -3.638  23.086  0.00  0.00    +0.003 A 
ATOM     12  C   UNL     1       8.858  -3.649  24.058  0.00  0.00    +0.013 A 
ATOM     13  C   UNL     1       9.867  -2.681  24.042  0.00  0.00    +0.039 A 
ENDBRANCH   1  11
BRANCH   2  14
ATOM     14  C   UNL     1       5.776  -4.973  25.377  0.00  0.00    -0.011 A 
ATOM     15  C   UNL     1       4.826  -4.012  25.730  0.00  0.00    +0.028 A 
ATOM     16  C   UNL     1       4.707  -3.654  27.063  0.00  0.00    +0.111 A 
ATOM     17  N   UNL     1       5.461  -4.176  28.051  0.00  0.00    -0.263 NA
ATOM     18  C   UNL     1       6.351  -5.124  27.696  0.00  0.00    +0.111 A 
ATOM     19  C   UNL     1       6.523  -5.569  26.395  0.00  0.00    +0.028 A 
ENDBRANCH   2  14
TORSDOF 2
ENDMDL
MODEL 8
REMARK VINA RESULT:      -5.7      4.183      5.973
REMARK  Name = 
REMARK  2 active torsions:
REMARK  status: ('A' for Active; 'I' for Inactive)
REMARK    1  A    between atoms: C_5  and  C_8
REMARK    2  A    between atoms: C_12  and  C_13
REMARK                            x       y       z     vdW  Elec       q    Type
REMARK                         _______ _______ _______ _____ _____    ______ ____
ROOT
ATOM      1  C   UNL     1       8.857   0.137  22.480  0.00  0.00    +0.100 A 
ATOM      2  C   UNL     1       7.959   1.223  22.784  0.00  0.00    +0.027 A 
ATOM      3  C   UNL     1       8.479   2.303  22.098  0.00  0.00    +0.114 A 
ATOM      4  N   UNL     1       9.592   1.850  21.463  0.00  0.00    -0.284 N 
ATOM      5  H   UNL     1      10.227   2.368  20.867  0.00  0.00    +0.188 HD
ATOM      6  N   UNL     1       9.839   0.551  21.658  0.00  0.00    -0.173 NA
ENDROOT
BRANCH   1  11
ATOM      7  F   UNL     1       8.234  -5.115  24.312  0.00  0.00    -0.205 F 
ATOM      8  C   UNL     1       8.439  -3.885  23.824  0.00  0.00    +0.123 A 
ATOM      9  C   UNL     1       7.661  -3.426  22.770  0.00  0.00    +0.039 A 
ATOM     10  C   UNL     1       7.835  -2.122  22.303  0.00  0.00    +0.013 A 
ATOM     11  C   UNL     1       8.790  -1.272  22.888  0.00  0.00    +0.003 A 
ATOM     12  C   UNL     1       9.622  -1.788  23.893  0.00  0.00    +0.013 A 
ATOM     13  C   UNL     1       9.427  -3.084  24.381  0.00  0.00    +0.039 A 
ENDBRANCH   1  11
BRANCH   2  14
ATOM     14  C   UNL     1       6.747   1.305  23.591  0.00  0.00    -0.011 A 
ATOM     15  C   UNL     1       5.817   2.323  23.367  0.00  0.00    +0.028 A 
ATOM     16  C   UNL     1       4.730   2.430  24.220  0.00  0.00    +0.111 A 
ATOM     17  N   UNL     1       4.514   1.608  25.267  0.00  0.00    -0.263 NA
ATOM     18  C   UNL     1       5.406   0.613  25.449  0.00  0.00    +0.111 A 
ATOM     19  C   UNL     1       6.506   0.407  24.633  0.00  0.00    +0.028 A 
ENDBRANCH   2  14
TORSDOF 2
ENDMDL
MODEL 9
REMARK VINA RESULT:      -5.7      3.572      5.521
REMARK  Name = 
REMARK  2 active torsions:
REMARK  status: ('A' for Active; 'I' for Inactive)
REMARK    1  A    between atoms: C_5  and  C_8
REMARK    2  A    between atoms: C_12  and  C_13
REMARK                            x       y       z     vdW  Elec       q    Type
REMARK                         _______ _______ _______ _____ _____    ______ ____
ROOT
ATOM      1  C   UNL     1       5.967  -1.521  24.272  0.00  0.00    +0.100 A 
ATOM      2  C   UNL     1       6.591  -0.228  24.152  0.00  0.00    +0.027 A 
ATOM      3  C   UNL     1       5.973   0.545  25.115  0.00  0.00    +0.114 A 
ATOM      4  N   UNL     1       5.064  -0.261  25.724  0.00  0.00    -0.284 N 
ATOM      5  H   UNL     1       4.429  -0.030  26.479  0.00  0.00    +0.188 HD
ATOM      6  N   UNL     1       5.045  -1.511  25.253  0.00  0.00    -0.173 NA
ENDROOT
BRANCH   1  11
ATOM      7  F   UNL     1       7.426  -6.052  21.329  0.00  0.00    -0.205 F 
ATOM      8  C   UNL     1       7.015  -5.010  22.062  0.00  0.00    +0.123 A 
ATOM      9  C   UNL     1       7.540  -4.816  23.333  0.00  0.00    +0.039 A 
ATOM     10  C   UNL     1       7.156  -3.694  24.071  0.00  0.00    +0.013 A 
ATOM     11  C   UNL     1       6.245  -2.764  23.541  0.00  0.00    +0.003 A 
ATOM     12  C   UNL     1       5.665  -3.028  22.291  0.00  0.00    +0.013 A 
ATOM     13  C   UNL     1       6.072  -4.135  21.539  0.00  0.00    +0.039 A 
ENDBRANCH   1  11
BRANCH   2  14
ATOM     14  C   UNL     1       7.643   0.283  23.281  0.00  0.00    -0.011 A 
ATOM     15  C   UNL     1       8.937  -0.240  23.354  0.00  0.00    +0.028 A 
ATOM     16  C   UNL     1       9.933   0.340  22.585  0.00  0.00    +0.111 A 
ATOM     17  N   UNL     1       9.732   1.393  21.766  0.00  0.00    -0.263 NA
ATOM     18  C   UNL     1       8.472   1.864  21.686  0.00  0.00    +0.111 A 
ATOM     19  C   UNL     1       7.405   1.333  22.392  0.00  0.00    +0.028 A 
ENDBRANCH   2  14
TORSDOF 2
ENDMDL
