MODEL 1
REMARK VINA RESULT:      -6.6      0.000      0.000
REMARK  Name = 
REMARK  10 active torsions:
REMARK  status: ('A' for Active; 'I' for Inactive)
REMARK    1  A    between atoms: C_1  and  O_2
REMARK    2  A    between atoms: O_2  and  C_3
REMARK    3  A    between atoms: N_7  and  C_12
REMARK    4  A    between atoms: C_15  and  C_17
REMARK    5  A    between atoms: C_17  and  O_18
REMARK    6  A    between atoms: O_18  and  P_19
REMARK    7  A    between atoms: P_19  and  O_20
REMARK    8  A    between atoms: P_19  and  O_21
REMARK    9  A    between atoms: C_23  and  O_25
REMARK   10  A    between atoms: C_26  and  O_28
REMARK                            x       y       z     vdW  Elec       q    Type
REMARK                         _______ _______ _______ _____ _____    ______ ____
ROOT
ATOM      1  C   UNL     1       9.487  -3.464  24.503  0.00  0.00    +0.252 C 
ATOM      2  C   UNL     1       9.245  -4.615  25.500  0.00  0.00    +0.195 C 
ATOM      3  C   UNL     1       7.853  -5.148  25.157  0.00  0.00    +0.178 C 
ATOM      4  C   UNL     1       7.416  -4.293  23.972  0.00  0.00    +0.178 C 
ATOM      5  O   UNL     1       8.625  -3.796  23.385  0.00  0.00    -0.346 OA
ENDROOT
BRANCH   1  10
ATOM      6  C   UNL     1       9.657   1.770  23.690  0.00  0.00    +0.122 A 
ATOM      7  C   UNL     1       9.029   1.402  24.882  0.00  0.00    +0.075 A 
ATOM      8  C   UNL     1       8.952   0.044  25.217  0.00  0.00    +0.092 A 
ATOM      9  C   UNL     1       9.491  -0.919  24.364  0.00  0.00    +0.071 A 
ATOM     10  N   UNL     1       9.186  -2.118  24.979  0.00  0.00    -0.301 N 
ATOM     11  C   UNL     1       8.598  -1.822  26.181  0.00  0.00    +0.202 A 
ATOM     12  C   UNL     1      10.159  -0.568  23.186  0.00  0.00    +0.031 A 
ATOM     13  N   UNL     1       8.407  -0.534  26.334  0.00  0.00    -0.236 NA
ATOM     14  C   UNL     1      10.235   0.796  22.871  0.00  0.00    +0.048 A 
BRANCH   6  16
ATOM     15  C   UNL     1      11.127   3.588  23.377  0.00  0.00    +0.277 C 
ATOM     16  O   UNL     1       9.806   3.063  23.260  0.00  0.00    -0.495 OA
ENDBRANCH   6  16
ENDBRANCH   1  10
BRANCH   2  17
ATOM     17  O   UNL     1      10.223  -5.654  25.291  0.00  0.00    -0.385 OA
ATOM     18  H   UNL     1       9.851  -6.496  25.606  0.00  0.00    +0.210 HD
ENDBRANCH   2  17
BRANCH   3  19
ATOM     19  O   UNL     1       6.960  -5.001  26.255  0.00  0.00    -0.386 OA
ATOM     20  H   UNL     1       6.450  -5.832  26.327  0.00  0.00    +0.210 HD
ENDBRANCH   3  19
BRANCH   4  21
ATOM     21  C   UNL     1       6.597  -5.069  22.955  0.00  0.00    +0.206 C 
BRANCH  21  22
ATOM     22  O   UNL     1       5.943  -6.139  23.618  0.00  0.00    -0.284 OA
BRANCH  22  23
ATOM     23  P   UNL     1       4.357  -6.050  23.793  0.00  0.00    +0.472 P 
ATOM     24  O   UNL     1       3.645  -5.253  22.757  0.00  0.00    -0.228 OA
BRANCH  23  25
ATOM     25  O   UNL     1       4.161  -5.497  25.273  0.00  0.00    -0.303 OA
ATOM     26  H   UNL     1       3.333  -4.999  25.356  0.00  0.00    +0.222 HD
ENDBRANCH  23  25
BRANCH  23  27
ATOM     27  O   UNL     1       3.880  -7.572  23.882  0.00  0.00    -0.303 OA
ATOM     28  H   UNL     1       3.349  -7.825  23.102  0.00  0.00    +0.222 HD
ENDBRANCH  23  27
ENDBRANCH  22  23
ENDBRANCH  21  22
ENDBRANCH   4  21
TORSDOF 9
ENDMDL
MODEL 2
REMARK VINA RESULT:      -6.4      2.262      2.857
REMARK  Name = 
REMARK  10 active torsions:
REMARK  status: ('A' for Active; 'I' for Inactive)
REMARK    1  A    between atoms: C_1  and  O_2
REMARK    2  A    between atoms: O_2  and  C_3
REMARK    3  A    between atoms: N_7  and  C_12
REMARK    4  A    between atoms: C_15  and  C_17
REMARK    5  A    between atoms: C_17  and  O_18
REMARK    6  A    between atoms: O_18  and  P_19
REMARK    7  A    between atoms: P_19  and  O_20
REMARK    8  A    between atoms: P_19  and  O_21
REMARK    9  A    between atoms: C_23  and  O_25
REMARK   10  A    between atoms: C_26  and  O_28
REMARK                            x       y       z     vdW  Elec       q    Type
REMARK                         _______ _______ _______ _____ _____    ______ ____
ROOT
ATOM      1  C   UNL     1       7.947  -4.429  23.690  0.00  0.00    +0.252 C 
ATOM      2  C   UNL     1       8.851  -4.803  24.881  0.00  0.00    +0.195 C 
ATOM      3  C   UNL     1       7.888  -5.231  25.989  0.00  0.00    +0.178 C 
ATOM      4  C   UNL     1       6.511  -5.107  25.344  0.00  0.00    +0.178 C 
ATOM      5  O   UNL     1       6.736  -5.188  23.931  0.00  0.00    -0.346 OA
ENDROOT
BRANCH   1  10
ATOM      6  C   UNL     1       9.523   0.464  22.401  0.00  0.00    +0.122 A 
ATOM      7  C   UNL     1       8.175   0.378  22.756  0.00  0.00    +0.075 A 
ATOM      8  C   UNL     1       7.654  -0.862  23.145  0.00  0.00    +0.092 A 
ATOM      9  C   UNL     1       8.473  -1.990  23.168  0.00  0.00    +0.071 A 
ATOM     10  N   UNL     1       7.624  -3.014  23.538  0.00  0.00    -0.301 N 
ATOM     11  C   UNL     1       6.405  -2.452  23.816  0.00  0.00    +0.202 A 
ATOM     12  C   UNL     1       9.835  -1.917  22.855  0.00  0.00    +0.031 A 
ATOM     13  N   UNL     1       6.381  -1.169  23.550  0.00  0.00    -0.236 NA
ATOM     14  C   UNL     1      10.343  -0.666  22.477  0.00  0.00    +0.048 A 
BRANCH   6  16
ATOM     15  C   UNL     1      10.345   2.575  23.056  0.00  0.00    +0.277 C 
ATOM     16  O   UNL     1      10.151   1.620  22.015  0.00  0.00    -0.495 OA
ENDBRANCH   6  16
ENDBRANCH   1  10
BRANCH   2  17
ATOM     17  O   UNL     1       9.696  -5.915  24.522  0.00  0.00    -0.385 OA
ATOM     18  H   UNL     1      10.290  -5.635  23.805  0.00  0.00    +0.210 HD
ENDBRANCH   2  17
BRANCH   3  19
ATOM     19  O   UNL     1       8.001  -4.384  27.128  0.00  0.00    -0.386 OA
ATOM     20  H   UNL     1       7.806  -3.473  26.832  0.00  0.00    +0.210 HD
ENDBRANCH   3  19
BRANCH   4  21
ATOM     21  C   UNL     1       5.545  -6.185  25.804  0.00  0.00    +0.206 C 
BRANCH  21  22
ATOM     22  O   UNL     1       5.943  -6.636  27.089  0.00  0.00    -0.284 OA
BRANCH  22  23
ATOM     23  P   UNL     1       5.087  -6.152  28.348  0.00  0.00    +0.472 P 
ATOM     24  O   UNL     1       3.972  -5.216  28.040  0.00  0.00    -0.228 OA
BRANCH  23  25
ATOM     25  O   UNL     1       6.173  -5.547  29.344  0.00  0.00    -0.303 OA
ATOM     26  H   UNL     1       5.784  -4.870  29.919  0.00  0.00    +0.222 HD
ENDBRANCH  23  25
BRANCH  23  27
ATOM     27  O   UNL     1       4.623  -7.505  29.058  0.00  0.00    -0.303 OA
ATOM     28  H   UNL     1       3.783  -7.834  28.681  0.00  0.00    +0.222 HD
ENDBRANCH  23  27
ENDBRANCH  22  23
ENDBRANCH  21  22
ENDBRANCH   4  21
TORSDOF 9
ENDMDL
MODEL 3
REMARK VINA RESULT:      -6.3      1.675      2.430
REMARK  Name = 
REMARK  10 active torsions:
REMARK  status: ('A' for Active; 'I' for Inactive)
REMARK    1  A    between atoms: C_1  and  O_2
REMARK    2  A    between atoms: O_2  and  C_3
REMARK    3  A    between atoms: N_7  and  C_12
REMARK    4  A    between atoms: C_15  and  C_17
REMARK    5  A    between atoms: C_17  and  O_18
REMARK    6  A    between atoms: O_18  and  P_19
REMARK    7  A    between atoms: P_19  and  O_20
REMARK    8  A    between atoms: P_19  and  O_21
REMARK    9  A    between atoms: C_23  and  O_25
REMARK   10  A    between atoms: C_26  and  O_28
REMARK                            x       y       z     vdW  Elec       q    Type
REMARK                         _______ _______ _______ _____ _____    ______ ____
ROOT
ATOM      1  C   UNL     1       9.441  -2.383  24.447  0.00  0.00    +0.252 C 
ATOM      2  C   UNL     1       8.215  -2.356  25.382  0.00  0.00    +0.195 C 
ATOM      3  C   UNL     1       7.201  -3.295  24.728  0.00  0.00    +0.178 C 
ATOM      4  C   UNL     1       7.928  -3.818  23.494  0.00  0.00    +0.178 C 
ATOM      5  O   UNL     1       9.325  -3.660  23.772  0.00  0.00    -0.346 OA
ENDROOT
BRANCH   1  10
ATOM      6  C   UNL     1       9.297   2.807  23.387  0.00  0.00    +0.122 A 
ATOM      7  C   UNL     1       9.566   2.008  22.273  0.00  0.00    +0.075 A 
ATOM      8  C   UNL     1       9.599   0.617  22.428  0.00  0.00    +0.092 A 
ATOM      9  C   UNL     1       9.372   0.046  23.680  0.00  0.00    +0.071 A 
ATOM     10  N   UNL     1       9.534  -1.308  23.465  0.00  0.00    -0.301 N 
ATOM     11  C   UNL     1       9.733  -1.487  22.121  0.00  0.00    +0.202 A 
ATOM     12  C   UNL     1       9.062   0.827  24.799  0.00  0.00    +0.031 A 
ATOM     13  N   UNL     1       9.818  -0.347  21.479  0.00  0.00    -0.236 NA
ATOM     14  C   UNL     1       9.024   2.217  24.625  0.00  0.00    +0.048 A 
BRANCH   6  16
ATOM     15  C   UNL     1       9.072   4.795  24.635  0.00  0.00    +0.277 C 
ATOM     16  O   UNL     1       9.227   4.176  23.360  0.00  0.00    -0.495 OA
ENDBRANCH   6  16
ENDBRANCH   1  10
BRANCH   2  17
ATOM     17  O   UNL     1       8.578  -2.869  26.679  0.00  0.00    -0.385 OA
ATOM     18  H   UNL     1       7.795  -3.287  27.078  0.00  0.00    +0.210 HD
ENDBRANCH   2  17
BRANCH   3  19
ATOM     19  O   UNL     1       6.011  -2.601  24.369  0.00  0.00    -0.386 OA
ATOM     20  H   UNL     1       5.433  -3.238  23.905  0.00  0.00    +0.210 HD
ENDBRANCH   3  19
BRANCH   4  21
ATOM     21  C   UNL     1       7.596  -5.267  23.182  0.00  0.00    +0.206 C 
BRANCH  21  22
ATOM     22  O   UNL     1       6.353  -5.589  23.785  0.00  0.00    -0.284 OA
BRANCH  22  23
ATOM     23  P   UNL     1       5.087  -5.779  22.828  0.00  0.00    +0.472 P 
ATOM     24  O   UNL     1       4.257  -4.562  22.619  0.00  0.00    -0.228 OA
BRANCH  23  25
ATOM     25  O   UNL     1       4.289  -6.994  23.479  0.00  0.00    -0.303 OA
ATOM     26  H   UNL     1       3.533  -6.680  23.999  0.00  0.00    +0.222 HD
ENDBRANCH  23  25
BRANCH  23  27
ATOM     27  O   UNL     1       5.693  -6.391  21.483  0.00  0.00    -0.303 OA
ATOM     28  H   UNL     1       6.350  -7.088  21.674  0.00  0.00    +0.222 HD
ENDBRANCH  23  27
ENDBRANCH  22  23
ENDBRANCH  21  22
ENDBRANCH   4  21
TORSDOF 9
ENDMDL
MODEL 4
REMARK VINA RESULT:      -6.3      3.220      7.594
REMARK  Name = 
REMARK  10 active torsions:
REMARK  status: ('A' for Active; 'I' for Inactive)
REMARK    1  A    between atoms: C_1  and  O_2
REMARK    2  A    between atoms: O_2  and  C_3
REMARK    3  A    between atoms: N_7  and  C_12
REMARK    4  A    between atoms: C_15  and  C_17
REMARK    5  A    between atoms: C_17  and  O_18
REMARK    6  A    between atoms: O_18  and  P_19
REMARK    7  A    between atoms: P_19  and  O_20
REMARK    8  A    between atoms: P_19  and  O_21
REMARK    9  A    between atoms: C_23  and  O_25
REMARK   10  A    between atoms: C_26  and  O_28
REMARK                            x       y       z     vdW  Elec       q    Type
REMARK                         _______ _______ _______ _____ _____    ______ ____
ROOT
ATOM      1  C   UNL     1       7.079  -1.798  24.122  0.00  0.00    +0.252 C 
ATOM      2  C   UNL     1       8.242  -2.247  25.029  0.00  0.00    +0.195 C 
ATOM      3  C   UNL     1       9.493  -2.119  24.159  0.00  0.00    +0.178 C 
ATOM      4  C   UNL     1       8.965  -1.574  22.836  0.00  0.00    +0.178 C 
ATOM      5  O   UNL     1       7.720  -0.935  23.150  0.00  0.00    -0.346 OA
ENDROOT
BRANCH   1  10
ATOM      6  C   UNL     1       4.656  -6.505  24.351  0.00  0.00    +0.122 A 
ATOM      7  C   UNL     1       4.599  -5.899  23.094  0.00  0.00    +0.075 A 
ATOM      8  C   UNL     1       5.232  -4.664  22.908  0.00  0.00    +0.092 A 
ATOM      9  C   UNL     1       5.901  -4.052  23.967  0.00  0.00    +0.071 A 
ATOM     10  N   UNL     1       6.342  -2.855  23.439  0.00  0.00    -0.301 N 
ATOM     11  C   UNL     1       6.023  -2.856  22.105  0.00  0.00    +0.202 A 
ATOM     12  C   UNL     1       6.004  -4.662  25.223  0.00  0.00    +0.031 A 
ATOM     13  N   UNL     1       5.321  -3.910  21.767  0.00  0.00    -0.236 NA
ATOM     14  C   UNL     1       5.373  -5.902  25.390  0.00  0.00    +0.048 A 
BRANCH   6  16
ATOM     15  C   UNL     1       2.676  -7.781  24.471  0.00  0.00    +0.277 C 
ATOM     16  O   UNL     1       4.088  -7.715  24.655  0.00  0.00    -0.495 OA
ENDBRANCH   6  16
ENDBRANCH   1  10
BRANCH   2  17
ATOM     17  O   UNL     1       8.351  -1.358  26.160  0.00  0.00    -0.385 OA
ATOM     18  H   UNL     1       9.292  -1.159  26.308  0.00  0.00    +0.210 HD
ENDBRANCH   2  17
BRANCH   3  19
ATOM     19  O   UNL     1      10.128  -3.381  23.979  0.00  0.00    -0.386 OA
ATOM     20  H   UNL     1       9.442  -4.011  23.686  0.00  0.00    +0.210 HD
ENDBRANCH   3  19
BRANCH   4  21
ATOM     21  C   UNL     1       9.923  -0.602  22.172  0.00  0.00    +0.206 C 
BRANCH  21  22
ATOM     22  O   UNL     1      10.389   0.317  23.148  0.00  0.00    -0.284 OA
BRANCH  22  23
ATOM     23  P   UNL     1       9.991   1.855  22.975  0.00  0.00    +0.472 P 
ATOM     24  O   UNL     1      10.946   2.831  23.566  0.00  0.00    -0.228 OA
BRANCH  23  25
ATOM     25  O   UNL     1       8.524   1.945  23.587  0.00  0.00    -0.303 OA
ATOM     26  H   UNL     1       8.161   2.841  23.502  0.00  0.00    +0.222 HD
ENDBRANCH  23  25
BRANCH  23  27
ATOM     27  O   UNL     1       9.767   2.034  21.404  0.00  0.00    -0.303 OA
ATOM     28  H   UNL     1      10.176   1.303  20.901  0.00  0.00    +0.222 HD
ENDBRANCH  23  27
ENDBRANCH  22  23
ENDBRANCH  21  22
ENDBRANCH   4  21
TORSDOF 9
ENDMDL
MODEL 5
REMARK VINA RESULT:      -6.2      3.421      7.590
REMARK  Name = 
REMARK  10 active torsions:
REMARK  status: ('A' for Active; 'I' for Inactive)
REMARK    1  A    between atoms: C_1  and  O_2
REMARK    2  A    between atoms: O_2  and  C_3
REMARK    3  A    between atoms: N_7  and  C_12
REMARK    4  A    between atoms: C_15  and  C_17
REMARK    5  A    between atoms: C_17  and  O_18
REMARK    6  A    between atoms: O_18  and  P_19
REMARK    7  A    between atoms: P_19  and  O_20
REMARK    8  A    between atoms: P_19  and  O_21
REMARK    9  A    between atoms: C_23  and  O_25
REMARK   10  A    between atoms: C_26  and  O_28
REMARK                            x       y       z     vdW  Elec       q    Type
REMARK                         _______ _______ _______ _____ _____    ______ ____
ROOT
ATOM      1  C   UNL     1       9.496  -2.312  23.465  0.00  0.00    +0.252 C 
ATOM      2  C   UNL     1       9.529  -1.493  22.160  0.00  0.00    +0.195 C 
ATOM      3  C   UNL     1       9.204  -0.060  22.586  0.00  0.00    +0.178 C 
ATOM      4  C   UNL     1       9.047  -0.155  24.100  0.00  0.00    +0.178 C 
ATOM      5  O   UNL     1       9.772  -1.327  24.492  0.00  0.00    -0.346 OA
ENDROOT
BRANCH   1  10
ATOM      6  C   UNL     1       6.757  -5.516  26.678  0.00  0.00    +0.122 A 
ATOM      7  C   UNL     1       6.022  -5.041  25.589  0.00  0.00    +0.075 A 
ATOM      8  C   UNL     1       6.653  -4.209  24.656  0.00  0.00    +0.092 A 
ATOM      9  C   UNL     1       7.992  -3.860  24.822  0.00  0.00    +0.071 A 
ATOM     10  N   UNL     1       8.249  -3.007  23.766  0.00  0.00    -0.301 N 
ATOM     11  C   UNL     1       7.123  -2.974  22.985  0.00  0.00    +0.202 A 
ATOM     12  C   UNL     1       8.757  -4.357  25.883  0.00  0.00    +0.031 A 
ATOM     13  N   UNL     1       6.135  -3.654  23.515  0.00  0.00    -0.236 NA
ATOM     14  C   UNL     1       8.113  -5.196  26.803  0.00  0.00    +0.048 A 
BRANCH   6  16
ATOM     15  C   UNL     1       4.884  -6.694  27.494  0.00  0.00    +0.277 C 
ATOM     16  O   UNL     1       6.258  -6.344  27.649  0.00  0.00    -0.495 OA
ENDBRANCH   6  16
ENDBRANCH   1  10
BRANCH   2  17
ATOM     17  O   UNL     1      10.852  -1.537  21.589  0.00  0.00    -0.385 OA
ATOM     18  H   UNL     1      11.222  -2.425  21.731  0.00  0.00    +0.210 HD
ENDBRANCH   2  17
BRANCH   3  19
ATOM     19  O   UNL     1       8.006   0.402  21.971  0.00  0.00    -0.386 OA
ATOM     20  H   UNL     1       7.666   1.138  22.518  0.00  0.00    +0.210 HD
ENDBRANCH   3  19
BRANCH   4  21
ATOM     21  C   UNL     1       9.566   1.074  24.825  0.00  0.00    +0.206 C 
BRANCH  21  22
ATOM     22  O   UNL     1      10.113   1.970  23.871  0.00  0.00    -0.284 OA
BRANCH  22  23
ATOM     23  P   UNL     1       9.475   3.431  23.768  0.00  0.00    +0.472 P 
ATOM     24  O   UNL     1       8.750   3.898  24.981  0.00  0.00    -0.228 OA
BRANCH  23  25
ATOM     25  O   UNL     1       8.564   3.364  22.464  0.00  0.00    -0.303 OA
ATOM     26  H   UNL     1       8.860   3.999  21.794  0.00  0.00    +0.222 HD
ENDBRANCH  23  25
BRANCH  23  27
ATOM     27  O   UNL     1      10.695   4.369  23.339  0.00  0.00    -0.303 OA
ATOM     28  H   UNL     1      10.849   5.074  23.997  0.00  0.00    +0.222 HD
ENDBRANCH  23  27
ENDBRANCH  22  23
ENDBRANCH  21  22
ENDBRANCH   4  21
TORSDOF 9
ENDMDL
MODEL 6
REMARK VINA RESULT:      -6.2      2.354      3.506
REMARK  Name = 
REMARK  10 active torsions:
REMARK  status: ('A' for Active; 'I' for Inactive)
REMARK    1  A    between atoms: C_1  and  O_2
REMARK    2  A    between atoms: O_2  and  C_3
REMARK    3  A    between atoms: N_7  and  C_12
REMARK    4  A    between atoms: C_15  and  C_17
REMARK    5  A    between atoms: C_17  and  O_18
REMARK    6  A    between atoms: O_18  and  P_19
REMARK    7  A    between atoms: P_19  and  O_20
REMARK    8  A    between atoms: P_19  and  O_21
REMARK    9  A    between atoms: C_23  and  O_25
REMARK   10  A    between atoms: C_26  and  O_28
REMARK                            x       y       z     vdW  Elec       q    Type
REMARK                         _______ _______ _______ _____ _____    ______ ____
ROOT
ATOM      1  C   UNL     1       6.535  -2.018  22.701  0.00  0.00    +0.252 C 
ATOM      2  C   UNL     1       6.490  -3.528  22.391  0.00  0.00    +0.195 C 
ATOM      3  C   UNL     1       6.613  -4.213  23.753  0.00  0.00    +0.178 C 
ATOM      4  C   UNL     1       6.682  -3.053  24.741  0.00  0.00    +0.178 C 
ATOM      5  O   UNL     1       6.077  -1.938  24.073  0.00  0.00    -0.346 OA
ENDROOT
BRANCH   1  10
ATOM      6  C   UNL     1       9.489   2.345  23.267  0.00  0.00    +0.122 A 
ATOM      7  C   UNL     1      10.199   1.236  22.802  0.00  0.00    +0.075 A 
ATOM      8  C   UNL     1       9.515   0.034  22.586  0.00  0.00    +0.092 A 
ATOM      9  C   UNL     1       8.146  -0.048  22.839  0.00  0.00    +0.071 A 
ATOM     10  N   UNL     1       7.834  -1.366  22.572  0.00  0.00    -0.301 N 
ATOM     11  C   UNL     1       8.967  -1.962  22.083  0.00  0.00    +0.202 A 
ATOM     12  C   UNL     1       7.409   1.062  23.266  0.00  0.00    +0.031 A 
ATOM     13  N   UNL     1      10.002  -1.159  22.118  0.00  0.00    -0.236 NA
ATOM     14  C   UNL     1       8.108   2.260  23.469  0.00  0.00    +0.048 A 
BRANCH   6  16
ATOM     15  C   UNL     1       9.170   4.519  24.124  0.00  0.00    +0.277 C 
ATOM     16  O   UNL     1      10.042   3.577  23.505  0.00  0.00    -0.495 OA
ENDBRANCH   6  16
ENDBRANCH   1  10
BRANCH   2  17
ATOM     17  O   UNL     1       5.221  -3.867  21.796  0.00  0.00    -0.385 OA
ATOM     18  H   UNL     1       5.387  -4.371  20.981  0.00  0.00    +0.210 HD
ENDBRANCH   2  17
BRANCH   3  19
ATOM     19  O   UNL     1       7.785  -5.018  23.822  0.00  0.00    -0.386 OA
ATOM     20  H   UNL     1       8.028  -5.255  22.905  0.00  0.00    +0.210 HD
ENDBRANCH   3  19
BRANCH   4  21
ATOM     21  C   UNL     1       5.975  -3.351  26.052  0.00  0.00    +0.206 C 
BRANCH  21  22
ATOM     22  O   UNL     1       5.713  -4.744  26.122  0.00  0.00    -0.284 OA
BRANCH  22  23
ATOM     23  P   UNL     1       6.333  -5.559  27.348  0.00  0.00    +0.472 P 
ATOM     24  O   UNL     1       6.230  -4.892  28.675  0.00  0.00    -0.228 OA
BRANCH  23  25
ATOM     25  O   UNL     1       7.830  -5.857  26.897  0.00  0.00    -0.303 OA
ATOM     26  H   UNL     1       8.325  -5.035  26.751  0.00  0.00    +0.222 HD
ENDBRANCH  23  25
BRANCH  23  27
ATOM     27  O   UNL     1       5.618  -6.985  27.281  0.00  0.00    -0.303 OA
ATOM     28  H   UNL     1       4.900  -6.992  26.619  0.00  0.00    +0.222 HD
ENDBRANCH  23  27
ENDBRANCH  22  23
ENDBRANCH  21  22
ENDBRANCH   4  21
TORSDOF 9
ENDMDL
MODEL 7
REMARK VINA RESULT:      -6.1      3.325      7.737
REMARK  Name = 
REMARK  10 active torsions:
REMARK  status: ('A' for Active; 'I' for Inactive)
REMARK    1  A    between atoms: C_1  and  O_2
REMARK    2  A    between atoms: O_2  and  C_3
REMARK    3  A    between atoms: N_7  and  C_12
REMARK    4  A    between atoms: C_15  and  C_17
REMARK    5  A    between atoms: C_17  and  O_18
REMARK    6  A    between atoms: O_18  and  P_19
REMARK    7  A    between atoms: P_19  and  O_20
REMARK    8  A    between atoms: P_19  and  O_21
REMARK    9  A    between atoms: C_23  and  O_25
REMARK   10  A    between atoms: C_26  and  O_28
REMARK                            x       y       z     vdW  Elec       q    Type
REMARK                         _______ _______ _______ _____ _____    ______ ____
ROOT
ATOM      1  C   UNL     1       9.633   0.795  24.390  0.00  0.00    +0.252 C 
ATOM      2  C   UNL     1      10.333   1.741  23.393  0.00  0.00    +0.195 C 
ATOM      3  C   UNL     1       9.216   2.244  22.477  0.00  0.00    +0.178 C 
ATOM      4  C   UNL     1       7.960   1.583  23.034  0.00  0.00    +0.178 C 
ATOM      5  O   UNL     1       8.262   1.265  24.399  0.00  0.00    -0.346 OA
ENDROOT
BRANCH   1  10
ATOM      6  C   UNL     1       8.284  -4.168  25.666  0.00  0.00    +0.122 A 
ATOM      7  C   UNL     1       8.988  -4.063  24.464  0.00  0.00    +0.075 A 
ATOM      8  C   UNL     1       9.423  -2.801  24.040  0.00  0.00    +0.092 A 
ATOM      9  C   UNL     1       9.147  -1.671  24.810  0.00  0.00    +0.071 A 
ATOM     10  N   UNL     1       9.669  -0.628  24.070  0.00  0.00    -0.301 N 
ATOM     11  C   UNL     1      10.306  -1.174  22.986  0.00  0.00    +0.202 A 
ATOM     12  C   UNL     1       8.479  -1.760  26.035  0.00  0.00    +0.031 A 
ATOM     13  N   UNL     1      10.141  -2.473  22.920  0.00  0.00    -0.236 NA
ATOM     14  C   UNL     1       8.059  -3.032  26.449  0.00  0.00    +0.048 A 
BRANCH   6  16
ATOM     15  C   UNL     1       7.018  -5.206  27.363  0.00  0.00    +0.277 C 
ATOM     16  O   UNL     1       7.817  -5.345  26.191  0.00  0.00    -0.495 OA
ENDBRANCH   6  16
ENDBRANCH   1  10
BRANCH   2  17
ATOM     17  O   UNL     1      10.912   2.856  24.102  0.00  0.00    -0.385 OA
ATOM     18  H   UNL     1      11.684   3.172  23.602  0.00  0.00    +0.210 HD
ENDBRANCH   2  17
BRANCH   3  19
ATOM     19  O   UNL     1       9.444   1.859  21.125  0.00  0.00    -0.386 OA
ATOM     20  H   UNL     1       8.624   1.438  20.802  0.00  0.00    +0.210 HD
ENDBRANCH   3  19
BRANCH   4  21
ATOM     21  C   UNL     1       6.733   2.474  22.942  0.00  0.00    +0.206 C 
BRANCH  21  22
ATOM     22  O   UNL     1       7.001   3.525  22.027  0.00  0.00    -0.284 OA
BRANCH  22  23
ATOM     23  P   UNL     1       6.791   5.026  22.532  0.00  0.00    +0.472 P 
ATOM     24  O   UNL     1       7.237   5.298  23.925  0.00  0.00    -0.228 OA
BRANCH  23  25
ATOM     25  O   UNL     1       5.242   5.301  22.291  0.00  0.00    -0.303 OA
ATOM     26  H   UNL     1       4.751   4.474  22.170  0.00  0.00    +0.222 HD
ENDBRANCH  23  25
BRANCH  23  27
ATOM     27  O   UNL     1       7.519   5.923  21.430  0.00  0.00    -0.303 OA
ATOM     28  H   UNL     1       8.060   6.624  21.842  0.00  0.00    +0.222 HD
ENDBRANCH  23  27
ENDBRANCH  22  23
ENDBRANCH  21  22
ENDBRANCH   4  21
TORSDOF 9
ENDMDL
MODEL 8
REMARK VINA RESULT:      -6.1      1.592      2.068
REMARK  Name = 
REMARK  10 active torsions:
REMARK  status: ('A' for Active; 'I' for Inactive)
REMARK    1  A    between atoms: C_1  and  O_2
REMARK    2  A    between atoms: O_2  and  C_3
REMARK    3  A    between atoms: N_7  and  C_12
REMARK    4  A    between atoms: C_15  and  C_17
REMARK    5  A    between atoms: C_17  and  O_18
REMARK    6  A    between atoms: O_18  and  P_19
REMARK    7  A    between atoms: P_19  and  O_20
REMARK    8  A    between atoms: P_19  and  O_21
REMARK    9  A    between atoms: C_23  and  O_25
REMARK   10  A    between atoms: C_26  and  O_28
REMARK                            x       y       z     vdW  Elec       q    Type
REMARK                         _______ _______ _______ _____ _____    ______ ____
ROOT
ATOM      1  C   UNL     1       8.568  -3.190  26.251  0.00  0.00    +0.252 C 
ATOM      2  C   UNL     1       7.562  -4.261  26.718  0.00  0.00    +0.195 C 
ATOM      3  C   UNL     1       6.995  -4.858  25.429  0.00  0.00    +0.178 C 
ATOM      4  C   UNL     1       7.739  -4.116  24.323  0.00  0.00    +0.178 C 
ATOM      5  O   UNL     1       8.948  -3.635  24.925  0.00  0.00    -0.346 OA
ENDROOT
BRANCH   1  10
ATOM      6  C   UNL     1       9.246   1.798  24.596  0.00  0.00    +0.122 A 
ATOM      7  C   UNL     1       8.054   1.590  25.294  0.00  0.00    +0.075 A 
ATOM      8  C   UNL     1       7.782   0.315  25.806  0.00  0.00    +0.092 A 
ATOM      9  C   UNL     1       8.689  -0.726  25.611  0.00  0.00    +0.071 A 
ATOM     10  N   UNL     1       8.074  -1.818  26.191  0.00  0.00    -0.301 N 
ATOM     11  C   UNL     1       6.921  -1.371  26.782  0.00  0.00    +0.202 A 
ATOM     12  C   UNL     1       9.906  -0.528  24.949  0.00  0.00    +0.031 A 
ATOM     13  N   UNL     1       6.698  -0.104  26.532  0.00  0.00    -0.236 NA
ATOM     14  C   UNL     1      10.167   0.757  24.452  0.00  0.00    +0.048 A 
BRANCH   6  16
ATOM     15  C   UNL     1      10.911   2.998  23.433  0.00  0.00    +0.277 C 
ATOM     16  O   UNL     1       9.630   3.000  24.059  0.00  0.00    -0.495 OA
ENDBRANCH   6  16
ENDBRANCH   1  10
BRANCH   2  17
ATOM     17  O   UNL     1       8.252  -5.288  27.459  0.00  0.00    -0.385 OA
ATOM     18  H   UNL     1       7.800  -5.411  28.312  0.00  0.00    +0.210 HD
ENDBRANCH   2  17
BRANCH   3  19
ATOM     19  O   UNL     1       5.591  -4.647  25.336  0.00  0.00    -0.386 OA
ATOM     20  H   UNL     1       5.416  -4.244  24.463  0.00  0.00    +0.210 HD
ENDBRANCH   3  19
BRANCH   4  21
ATOM     21  C   UNL     1       8.041  -4.994  23.122  0.00  0.00    +0.206 C 
BRANCH  21  22
ATOM     22  O   UNL     1       7.226  -4.578  22.037  0.00  0.00    -0.284 OA
BRANCH  22  23
ATOM     23  P   UNL     1       5.944  -5.464  21.686  0.00  0.00    +0.472 P 
ATOM     24  O   UNL     1       4.662  -4.994  22.276  0.00  0.00    -0.228 OA
BRANCH  23  25
ATOM     25  O   UNL     1       6.355  -6.935  22.137  0.00  0.00    -0.303 OA
ATOM     26  H   UNL     1       7.298  -7.101  21.982  0.00  0.00    +0.222 HD
ENDBRANCH  23  25
BRANCH  23  27
ATOM     27  O   UNL     1       5.936  -5.538  20.090  0.00  0.00    -0.303 OA
ATOM     28  H   UNL     1       5.029  -5.461  19.736  0.00  0.00    +0.222 HD
ENDBRANCH  23  27
ENDBRANCH  22  23
ENDBRANCH  21  22
ENDBRANCH   4  21
TORSDOF 9
ENDMDL
MODEL 9
REMARK VINA RESULT:      -6.1      2.996      7.326
REMARK  Name = 
REMARK  10 active torsions:
REMARK  status: ('A' for Active; 'I' for Inactive)
REMARK    1  A    between atoms: C_1  and  O_2
REMARK    2  A    between atoms: O_2  and  C_3
REMARK    3  A    between atoms: N_7  and  C_12
REMARK    4  A    between atoms: C_15  and  C_17
REMARK    5  A    between atoms: C_17  and  O_18
REMARK    6  A    between atoms: O_18  and  P_19
REMARK    7  A    between atoms: P_19  and  O_20
REMARK    8  A    between atoms: P_19  and  O_21
REMARK    9  A    between atoms: C_23  and  O_25
REMARK   10  A    between atoms: C_26  and  O_28
REMARK                            x       y       z     vdW  Elec       q    Type
REMARK                         _______ _______ _______ _____ _____    ______ ____
ROOT
ATOM      1  C   UNL     1       9.256  -2.412  24.087  0.00  0.00    +0.252 C 
ATOM      2  C   UNL     1       8.660  -1.987  22.730  0.00  0.00    +0.195 C 
ATOM      3  C   UNL     1       7.967  -0.652  23.004  0.00  0.00    +0.178 C 
ATOM      4  C   UNL     1       8.247  -0.391  24.481  0.00  0.00    +0.178 C 
ATOM      5  O   UNL     1       9.416  -1.158  24.795  0.00  0.00    -0.346 OA
ENDROOT
BRANCH   1  10
ATOM      6  C   UNL     1       5.313  -5.944  24.338  0.00  0.00    +0.122 A 
ATOM      7  C   UNL     1       5.980  -5.752  25.550  0.00  0.00    +0.075 A 
ATOM      8  C   UNL     1       7.022  -4.818  25.610  0.00  0.00    +0.092 A 
ATOM      9  C   UNL     1       7.386  -4.100  24.472  0.00  0.00    +0.071 A 
ATOM     10  N   UNL     1       8.459  -3.336  24.886  0.00  0.00    -0.301 N 
ATOM     11  C   UNL     1       8.610  -3.542  26.233  0.00  0.00    +0.202 A 
ATOM     12  C   UNL     1       6.704  -4.249  23.259  0.00  0.00    +0.031 A 
ATOM     13  N   UNL     1       7.789  -4.457  26.688  0.00  0.00    -0.236 NA
ATOM     14  C   UNL     1       5.658  -5.181  23.218  0.00  0.00    +0.048 A 
BRANCH   6  16
ATOM     15  C   UNL     1       3.182  -6.304  23.394  0.00  0.00    +0.277 C 
ATOM     16  O   UNL     1       4.272  -6.817  24.156  0.00  0.00    -0.495 OA
ENDBRANCH   6  16
ENDBRANCH   1  10
BRANCH   2  17
ATOM     17  O   UNL     1       9.719  -1.792  21.771  0.00  0.00    -0.385 OA
ATOM     18  H   UNL     1      10.053  -0.882  21.860  0.00  0.00    +0.210 HD
ENDBRANCH   2  17
BRANCH   3  19
ATOM     19  O   UNL     1       6.569  -0.733  22.751  0.00  0.00    -0.386 OA
ATOM     20  H   UNL     1       6.258  -1.587  23.112  0.00  0.00    +0.210 HD
ENDBRANCH   3  19
BRANCH   4  21
ATOM     21  C   UNL     1       8.461   1.080  24.790  0.00  0.00    +0.206 C 
BRANCH  21  22
ATOM     22  O   UNL     1       8.618   1.785  23.569  0.00  0.00    -0.284 OA
BRANCH  22  23
ATOM     23  P   UNL     1      10.045   2.433  23.260  0.00  0.00    +0.472 P 
ATOM     24  O   UNL     1      10.198   3.859  23.658  0.00  0.00    -0.228 OA
BRANCH  23  25
ATOM     25  O   UNL     1      10.256   2.178  21.702  0.00  0.00    -0.303 OA
ATOM     26  H   UNL     1       9.913   1.310  21.438  0.00  0.00    +0.222 HD
ENDBRANCH  23  25
BRANCH  23  27
ATOM     27  O   UNL     1      11.090   1.448  23.958  0.00  0.00    -0.303 OA
ATOM     28  H   UNL     1      11.389   0.751  23.341  0.00  0.00    +0.222 HD
ENDBRANCH  23  27
ENDBRANCH  22  23
ENDBRANCH  21  22
ENDBRANCH   4  21
TORSDOF 9
ENDMDL
