MODEL 1
REMARK VINA RESULT:      -7.4      0.000      0.000
REMARK  Name = 
REMARK  10 active torsions:
REMARK  status: ('A' for Active; 'I' for Inactive)
REMARK    1  A    between atoms: C_1  and  O_2
REMARK    2  A    between atoms: O_2  and  C_3
REMARK    3  A    between atoms: C_8  and  O_9
REMARK    4  A    between atoms: O_9  and  C_10
REMARK    5  A    between atoms: C_10  and  C_11
REMARK    6  A    between atoms: C_11  and  C_12
REMARK    7  A    between atoms: C_12  and  N_13
REMARK    8  A    between atoms: C_21  and  O_22
REMARK    9  A    between atoms: O_22  and  C_23
REMARK   10  A    between atoms: C_29  and  C_30
REMARK                            x       y       z     vdW  Elec       q    Type
REMARK                         _______ _______ _______ _____ _____    ______ ____
ROOT
ATOM      1  C   UNL     1       6.406  -3.628  26.709  0.00  0.00    +0.162 A 
ATOM      2  C   UNL     1       6.833  -4.822  26.111  0.00  0.00    +0.164 A 
ATOM      3  C   UNL     1       7.875  -4.778  25.167  0.00  0.00    +0.078 A 
ATOM      4  C   UNL     1       8.500  -3.592  24.793  0.00  0.00    +0.082 A 
ATOM      5  N   UNL     1       9.543  -3.608  23.953  0.00  0.00    -0.235 NA
ATOM      6  C   UNL     1      10.121  -2.431  23.671  0.00  0.00    +0.225 A 
ATOM      7  N   UNL     1       9.736  -1.235  24.125  0.00  0.00    -0.201 NA
ATOM      8  C   UNL     1       8.629  -1.242  24.885  0.00  0.00    +0.231 A 
ATOM      9  C   UNL     1       8.004  -2.406  25.323  0.00  0.00    +0.066 A 
ATOM     10  C   UNL     1       6.947  -2.424  26.258  0.00  0.00    +0.064 A 
ENDROOT
BRANCH   1  12
ATOM     11  C   UNL     1       4.349  -2.781  27.515  0.00  0.00    +0.277 C 
ATOM     12  O   UNL     1       5.467  -3.646  27.703  0.00  0.00    -0.491 OA
ENDBRANCH   1  12
BRANCH   2  13
ATOM     13  O   UNL     1       6.384  -6.097  26.340  0.00  0.00    -0.488 OA
BRANCH  13  14
ATOM     14  C   UNL     1       4.999  -6.370  26.124  0.00  0.00    +0.230 C 
BRANCH  14  15
ATOM     15  C   UNL     1       4.783  -6.621  24.634  0.00  0.00    +0.056 C 
BRANCH  15  16
ATOM     16  C   UNL     1       3.841  -5.588  24.005  0.00  0.00    +0.087 C 
BRANCH  16  17
ATOM     17  N   UNL     1       4.433  -4.851  22.886  0.00  0.00    -0.302 NA
ATOM     18  C   UNL     1       5.557  -5.574  22.279  0.00  0.00    +0.084 C 
ATOM     19  C   UNL     1       6.503  -4.504  21.747  0.00  0.00    +0.017 C 
ATOM     20  C   UNL     1       5.853  -3.179  22.106  0.00  0.00    +0.017 C 
ATOM     21  C   UNL     1       4.936  -3.528  23.261  0.00  0.00    +0.084 C 
ENDBRANCH  16  17
ENDBRANCH  15  16
ENDBRANCH  14  15
ENDBRANCH  13  14
ENDBRANCH   2  13
BRANCH   8  22
ATOM     22  O   UNL     1       8.079  -0.042  25.332  0.00  0.00    -0.434 OA
BRANCH  22  23
ATOM     23  C   UNL     1       7.778   0.947  24.426  0.00  0.00    +0.166 A 
ATOM     24  C   UNL     1       6.678   0.681  23.601  0.00  0.00    +0.051 A 
ATOM     25  C   UNL     1       6.221   1.619  22.666  0.00  0.00    +0.030 A 
ATOM     26  C   UNL     1       6.869   2.858  22.639  0.00  0.00    +0.050 A 
ATOM     27  N   UNL     1       6.579   4.005  21.935  0.00  0.00    -0.358 N 
ATOM     28  H   UNL     1       5.806   4.100  21.292  0.00  0.00    +0.166 HD
ATOM     29  C   UNL     1       7.395   5.031  22.349  0.00  0.00    +0.014 A 
ATOM     30  C   UNL     1       8.355   4.485  23.174  0.00  0.00    +0.033 A 
ATOM     31  C   UNL     1       7.159   6.443  21.964  0.00  0.00    +0.063 C 
ATOM     32  C   UNL     1       7.997   3.132  23.412  0.00  0.00    +0.039 A 
ATOM     33  C   UNL     1       8.504   2.129  24.253  0.00  0.00    +0.175 A 
ATOM     34  F   UNL     1       9.662   2.344  24.898  0.00  0.00    -0.201 F 
ENDBRANCH  22  23
ENDBRANCH   8  22
TORSDOF 8
ENDMDL
MODEL 2
REMARK VINA RESULT:      -7.2      2.262      3.618
REMARK  Name = 
REMARK  10 active torsions:
REMARK  status: ('A' for Active; 'I' for Inactive)
REMARK    1  A    between atoms: C_1  and  O_2
REMARK    2  A    between atoms: O_2  and  C_3
REMARK    3  A    between atoms: C_8  and  O_9
REMARK    4  A    between atoms: O_9  and  C_10
REMARK    5  A    between atoms: C_10  and  C_11
REMARK    6  A    between atoms: C_11  and  C_12
REMARK    7  A    between atoms: C_12  and  N_13
REMARK    8  A    between atoms: C_21  and  O_22
REMARK    9  A    between atoms: O_22  and  C_23
REMARK   10  A    between atoms: C_29  and  C_30
REMARK                            x       y       z     vdW  Elec       q    Type
REMARK                         _______ _______ _______ _____ _____    ______ ____
ROOT
ATOM      1  C   UNL     1       5.514  -3.698  22.349  0.00  0.00    +0.162 A 
ATOM      2  C   UNL     1       4.496  -4.196  23.173  0.00  0.00    +0.164 A 
ATOM      3  C   UNL     1       4.186  -3.512  24.362  0.00  0.00    +0.078 A 
ATOM      4  C   UNL     1       4.856  -2.360  24.764  0.00  0.00    +0.082 A 
ATOM      5  N   UNL     1       4.472  -1.697  25.861  0.00  0.00    -0.235 NA
ATOM      6  C   UNL     1       5.138  -0.572  26.162  0.00  0.00    +0.225 A 
ATOM      7  N   UNL     1       6.172  -0.064  25.487  0.00  0.00    -0.201 NA
ATOM      8  C   UNL     1       6.596  -0.804  24.449  0.00  0.00    +0.231 A 
ATOM      9  C   UNL     1       5.926  -1.933  23.985  0.00  0.00    +0.066 A 
ATOM     10  C   UNL     1       6.266  -2.613  22.797  0.00  0.00    +0.064 A 
ENDROOT
BRANCH   1  12
ATOM     11  C   UNL     1       6.480  -5.516  21.181  0.00  0.00    +0.277 C 
ATOM     12  O   UNL     1       5.773  -4.278  21.137  0.00  0.00    -0.491 OA
ENDBRANCH   1  12
BRANCH   2  13
ATOM     13  O   UNL     1       3.694  -5.289  22.970  0.00  0.00    -0.488 OA
BRANCH  13  14
ATOM     14  C   UNL     1       3.429  -6.143  24.083  0.00  0.00    +0.230 C 
BRANCH  14  15
ATOM     15  C   UNL     1       4.744  -6.773  24.533  0.00  0.00    +0.056 C 
BRANCH  15  16
ATOM     16  C   UNL     1       4.994  -6.577  26.032  0.00  0.00    +0.087 C 
BRANCH  16  17
ATOM     17  N   UNL     1       6.306  -6.001  26.343  0.00  0.00    -0.302 NA
ATOM     18  C   UNL     1       6.203  -4.838  27.230  0.00  0.00    +0.084 C 
ATOM     19  C   UNL     1       7.374  -3.931  26.868  0.00  0.00    +0.017 C 
ATOM     20  C   UNL     1       8.099  -4.644  25.741  0.00  0.00    +0.017 C 
ATOM     21  C   UNL     1       7.044  -5.563  25.157  0.00  0.00    +0.084 C 
ENDBRANCH  16  17
ENDBRANCH  15  16
ENDBRANCH  14  15
ENDBRANCH  13  14
ENDBRANCH   2  13
BRANCH   8  22
ATOM     22  O   UNL     1       7.729  -0.423  23.733  0.00  0.00    -0.434 OA
BRANCH  22  23
ATOM     23  C   UNL     1       7.908   0.898  23.398  0.00  0.00    +0.166 A 
ATOM     24  C   UNL     1       7.103   1.359  22.348  0.00  0.00    +0.051 A 
ATOM     25  C   UNL     1       7.138   2.696  21.933  0.00  0.00    +0.030 A 
ATOM     26  C   UNL     1       7.962   3.566  22.655  0.00  0.00    +0.050 A 
ATOM     27  N   UNL     1       8.113   4.932  22.571  0.00  0.00    -0.358 N 
ATOM     28  H   UNL     1       7.615   5.522  21.919  0.00  0.00    +0.166 HD
ATOM     29  C   UNL     1       8.915   5.381  23.593  0.00  0.00    +0.014 A 
ATOM     30  C   UNL     1       9.451   4.271  24.212  0.00  0.00    +0.033 A 
ATOM     31  C   UNL     1       9.059   6.819  23.922  0.00  0.00    +0.063 C 
ATOM     32  C   UNL     1       8.811   3.126  23.670  0.00  0.00    +0.039 A 
ATOM     33  C   UNL     1       8.842   1.759  23.984  0.00  0.00    +0.175 A 
ATOM     34  F   UNL     1       9.750   1.313  24.868  0.00  0.00    -0.201 F 
ENDBRANCH  22  23
ENDBRANCH   8  22
TORSDOF 8
ENDMDL
MODEL 3
REMARK VINA RESULT:      -7.1      2.664      4.181
REMARK  Name = 
REMARK  10 active torsions:
REMARK  status: ('A' for Active; 'I' for Inactive)
REMARK    1  A    between atoms: C_1  and  O_2
REMARK    2  A    between atoms: O_2  and  C_3
REMARK    3  A    between atoms: C_8  and  O_9
REMARK    4  A    between atoms: O_9  and  C_10
REMARK    5  A    between atoms: C_10  and  C_11
REMARK    6  A    between atoms: C_11  and  C_12
REMARK    7  A    between atoms: C_12  and  N_13
REMARK    8  A    between atoms: C_21  and  O_22
REMARK    9  A    between atoms: O_22  and  C_23
REMARK   10  A    between atoms: C_29  and  C_30
REMARK                            x       y       z     vdW  Elec       q    Type
REMARK                         _______ _______ _______ _____ _____    ______ ____
ROOT
ATOM      1  C   UNL     1       6.062  -6.072  26.298  0.00  0.00    +0.162 A 
ATOM      2  C   UNL     1       4.800  -6.384  25.774  0.00  0.00    +0.164 A 
ATOM      3  C   UNL     1       4.532  -6.098  24.423  0.00  0.00    +0.078 A 
ATOM      4  C   UNL     1       5.469  -5.508  23.580  0.00  0.00    +0.082 A 
ATOM      5  N   UNL     1       5.199  -5.330  22.281  0.00  0.00    -0.235 NA
ATOM      6  C   UNL     1       6.166  -4.794  21.521  0.00  0.00    +0.225 A 
ATOM      7  N   UNL     1       7.367  -4.389  21.944  0.00  0.00    -0.201 NA
ATOM      8  C   UNL     1       7.570  -4.489  23.268  0.00  0.00    +0.231 A 
ATOM      9  C   UNL     1       6.682  -5.117  24.137  0.00  0.00    +0.066 A 
ATOM     10  C   UNL     1       6.966  -5.378  25.494  0.00  0.00    +0.064 A 
ENDROOT
BRANCH   1  12
ATOM     11  C   UNL     1       6.106  -5.458  28.583  0.00  0.00    +0.277 C 
ATOM     12  O   UNL     1       6.390  -6.428  27.577  0.00  0.00    -0.491 OA
ENDBRANCH   1  12
BRANCH   2  13
ATOM     13  O   UNL     1       3.741  -6.984  26.405  0.00  0.00    -0.488 OA
BRANCH  13  14
ATOM     14  C   UNL     1       2.511  -6.263  26.487  0.00  0.00    +0.230 C 
BRANCH  14  15
ATOM     15  C   UNL     1       2.562  -5.359  27.716  0.00  0.00    +0.056 C 
BRANCH  15  16
ATOM     16  C   UNL     1       2.510  -3.874  27.342  0.00  0.00    +0.087 C 
BRANCH  16  17
ATOM     17  N   UNL     1       3.805  -3.321  26.935  0.00  0.00    -0.302 NA
ATOM     18  C   UNL     1       4.247  -2.236  27.819  0.00  0.00    +0.084 C 
ATOM     19  C   UNL     1       5.075  -1.298  26.947  0.00  0.00    +0.017 C 
ATOM     20  C   UNL     1       5.045  -1.911  25.558  0.00  0.00    +0.017 C 
ATOM     21  C   UNL     1       3.804  -2.782  25.574  0.00  0.00    +0.084 C 
ENDBRANCH  16  17
ENDBRANCH  15  16
ENDBRANCH  14  15
ENDBRANCH  13  14
ENDBRANCH   2  13
BRANCH   8  22
ATOM     22  O   UNL     1       8.748  -4.006  23.835  0.00  0.00    -0.434 OA
BRANCH  22  23
ATOM     23  C   UNL     1       8.896  -2.656  24.047  0.00  0.00    +0.166 A 
ATOM     24  C   UNL     1       8.668  -2.234  25.363  0.00  0.00    +0.051 A 
ATOM     25  C   UNL     1       8.833  -0.896  25.741  0.00  0.00    +0.030 A 
ATOM     26  C   UNL     1       9.300  -0.012  24.763  0.00  0.00    +0.050 A 
ATOM     27  N   UNL     1       9.674   1.311  24.857  0.00  0.00    -0.358 N 
ATOM     28  H   UNL     1       9.646   1.853  25.709  0.00  0.00    +0.166 HD
ATOM     29  C   UNL     1      10.226   1.729  23.669  0.00  0.00    +0.014 A 
ATOM     30  C   UNL     1      10.012   0.730  22.743  0.00  0.00    +0.033 A 
ATOM     31  C   UNL     1      10.949   3.016  23.535  0.00  0.00    +0.063 C 
ATOM     32  C   UNL     1       9.487  -0.392  23.435  0.00  0.00    +0.039 A 
ATOM     33  C   UNL     1       9.199  -1.713  23.060  0.00  0.00    +0.175 A 
ATOM     34  F   UNL     1       9.251  -2.049  21.760  0.00  0.00    -0.201 F 
ENDBRANCH  22  23
ENDBRANCH   8  22
TORSDOF 8
ENDMDL
MODEL 4
REMARK VINA RESULT:      -7.1      1.956      3.027
REMARK  Name = 
REMARK  10 active torsions:
REMARK  status: ('A' for Active; 'I' for Inactive)
REMARK    1  A    between atoms: C_1  and  O_2
REMARK    2  A    between atoms: O_2  and  C_3
REMARK    3  A    between atoms: C_8  and  O_9
REMARK    4  A    between atoms: O_9  and  C_10
REMARK    5  A    between atoms: C_10  and  C_11
REMARK    6  A    between atoms: C_11  and  C_12
REMARK    7  A    between atoms: C_12  and  N_13
REMARK    8  A    between atoms: C_21  and  O_22
REMARK    9  A    between atoms: O_22  and  C_23
REMARK   10  A    between atoms: C_29  and  C_30
REMARK                            x       y       z     vdW  Elec       q    Type
REMARK                         _______ _______ _______ _____ _____    ______ ____
ROOT
ATOM      1  C   UNL     1       5.682  -2.064  24.076  0.00  0.00    +0.162 A 
ATOM      2  C   UNL     1       5.804  -2.934  22.984  0.00  0.00    +0.164 A 
ATOM      3  C   UNL     1       7.001  -2.938  22.245  0.00  0.00    +0.078 A 
ATOM      4  C   UNL     1       8.074  -2.105  22.548  0.00  0.00    +0.082 A 
ATOM      5  N   UNL     1       9.223  -2.202  21.869  0.00  0.00    -0.235 NA
ATOM      6  C   UNL     1      10.228  -1.396  22.244  0.00  0.00    +0.225 A 
ATOM      7  N   UNL     1      10.181  -0.480  23.215  0.00  0.00    -0.201 NA
ATOM      8  C   UNL     1       8.985  -0.338  23.811  0.00  0.00    +0.231 A 
ATOM      9  C   UNL     1       7.904  -1.182  23.574  0.00  0.00    +0.066 A 
ATOM     10  C   UNL     1       6.705  -1.147  24.317  0.00  0.00    +0.064 A 
ENDROOT
BRANCH   1  12
ATOM     11  C   UNL     1       4.734  -1.558  26.184  0.00  0.00    +0.277 C 
ATOM     12  O   UNL     1       4.574  -2.105  24.878  0.00  0.00    -0.491 OA
ENDBRANCH   1  12
BRANCH   2  13
ATOM     13  O   UNL     1       4.895  -3.850  22.521  0.00  0.00    -0.488 OA
BRANCH  13  14
ATOM     14  C   UNL     1       4.457  -4.873  23.416  0.00  0.00    +0.230 C 
BRANCH  14  15
ATOM     15  C   UNL     1       5.674  -5.678  23.864  0.00  0.00    +0.056 C 
BRANCH  15  16
ATOM     16  C   UNL     1       5.856  -5.648  25.386  0.00  0.00    +0.087 C 
BRANCH  16  17
ATOM     17  N   UNL     1       7.232  -5.374  25.811  0.00  0.00    -0.302 NA
ATOM     18  C   UNL     1       7.326  -4.159  26.630  0.00  0.00    +0.084 C 
ATOM     19  C   UNL     1       8.710  -3.579  26.358  0.00  0.00    +0.017 C 
ATOM     20  C   UNL     1       9.347  -4.518  25.349  0.00  0.00    +0.017 C 
ATOM     21  C   UNL     1       8.163  -5.203  24.695  0.00  0.00    +0.084 C 
ENDBRANCH  16  17
ENDBRANCH  15  16
ENDBRANCH  14  15
ENDBRANCH  13  14
ENDBRANCH   2  13
BRANCH   8  22
ATOM     22  O   UNL     1       8.793   0.655  24.769  0.00  0.00    -0.434 OA
BRANCH  22  23
ATOM     23  C   UNL     1       8.707   1.970  24.377  0.00  0.00    +0.166 A 
ATOM     24  C   UNL     1       9.936   2.628  24.235  0.00  0.00    +0.051 A 
ATOM     25  C   UNL     1      10.008   3.954  23.792  0.00  0.00    +0.030 A 
ATOM     26  C   UNL     1       8.805   4.571  23.433  0.00  0.00    +0.050 A 
ATOM     27  N   UNL     1       8.566   5.798  22.855  0.00  0.00    -0.358 N 
ATOM     28  H   UNL     1       9.285   6.463  22.608  0.00  0.00    +0.166 HD
ATOM     29  C   UNL     1       7.235   5.915  22.531  0.00  0.00    +0.014 A 
ATOM     30  C   UNL     1       6.579   4.841  23.096  0.00  0.00    +0.033 A 
ATOM     31  C   UNL     1       6.715   7.007  21.675  0.00  0.00    +0.063 C 
ATOM     32  C   UNL     1       7.565   3.959  23.611  0.00  0.00    +0.039 A 
ATOM     33  C   UNL     1       7.517   2.673  24.170  0.00  0.00    +0.175 A 
ATOM     34  F   UNL     1       6.322   2.134  24.464  0.00  0.00    -0.201 F 
ENDBRANCH  22  23
ENDBRANCH   8  22
TORSDOF 8
ENDMDL
MODEL 5
REMARK VINA RESULT:      -7.0      2.331      3.711
REMARK  Name = 
REMARK  10 active torsions:
REMARK  status: ('A' for Active; 'I' for Inactive)
REMARK    1  A    between atoms: C_1  and  O_2
REMARK    2  A    between atoms: O_2  and  C_3
REMARK    3  A    between atoms: C_8  and  O_9
REMARK    4  A    between atoms: O_9  and  C_10
REMARK    5  A    between atoms: C_10  and  C_11
REMARK    6  A    between atoms: C_11  and  C_12
REMARK    7  A    between atoms: C_12  and  N_13
REMARK    8  A    between atoms: C_21  and  O_22
REMARK    9  A    between atoms: O_22  and  C_23
REMARK   10  A    between atoms: C_29  and  C_30
REMARK                            x       y       z     vdW  Elec       q    Type
REMARK                         _______ _______ _______ _____ _____    ______ ____
ROOT
ATOM      1  C   UNL     1       4.767  -4.925  24.481  0.00  0.00    +0.162 A 
ATOM      2  C   UNL     1       5.084  -5.772  25.551  0.00  0.00    +0.164 A 
ATOM      3  C   UNL     1       6.422  -5.858  25.980  0.00  0.00    +0.078 A 
ATOM      4  C   UNL     1       7.451  -5.139  25.379  0.00  0.00    +0.082 A 
ATOM      5  N   UNL     1       8.694  -5.189  25.874  0.00  0.00    -0.235 NA
ATOM      6  C   UNL     1       9.625  -4.437  25.268  0.00  0.00    +0.225 A 
ATOM      7  N   UNL     1       9.438  -3.664  24.195  0.00  0.00    -0.201 NA
ATOM      8  C   UNL     1       8.205  -3.713  23.664  0.00  0.00    +0.231 A 
ATOM      9  C   UNL     1       7.136  -4.377  24.260  0.00  0.00    +0.066 A 
ATOM     10  C   UNL     1       5.805  -4.290  23.801  0.00  0.00    +0.064 A 
ENDROOT
BRANCH   1  12
ATOM     11  C   UNL     1       2.940  -5.703  23.194  0.00  0.00    +0.277 C 
ATOM     12  O   UNL     1       3.465  -4.740  24.105  0.00  0.00    -0.491 OA
ENDBRANCH   1  12
BRANCH   2  13
ATOM     13  O   UNL     1       4.240  -6.549  26.301  0.00  0.00    -0.488 OA
BRANCH  13  14
ATOM     14  C   UNL     1       4.531  -6.710  27.690  0.00  0.00    +0.230 C 
BRANCH  14  15
ATOM     15  C   UNL     1       3.695  -5.705  28.478  0.00  0.00    +0.056 C 
BRANCH  15  16
ATOM     16  C   UNL     1       4.531  -4.516  28.966  0.00  0.00    +0.087 C 
BRANCH  16  17
ATOM     17  N   UNL     1       4.125  -3.231  28.390  0.00  0.00    -0.302 NA
ATOM     18  C   UNL     1       2.858  -3.329  27.658  0.00  0.00    +0.084 C 
ATOM     19  C   UNL     1       2.937  -2.288  26.546  0.00  0.00    +0.017 C 
ATOM     20  C   UNL     1       4.302  -1.641  26.699  0.00  0.00    +0.017 C 
ATOM     21  C   UNL     1       5.109  -2.675  27.459  0.00  0.00    +0.084 C 
ENDBRANCH  16  17
ENDBRANCH  15  16
ENDBRANCH  14  15
ENDBRANCH  13  14
ENDBRANCH   2  13
BRANCH   8  22
ATOM     22  O   UNL     1       7.922  -3.024  22.486  0.00  0.00    -0.434 OA
BRANCH  22  23
ATOM     23  C   UNL     1       8.171  -1.674  22.411  0.00  0.00    +0.166 A 
ATOM     24  C   UNL     1       9.323  -1.322  21.696  0.00  0.00    +0.051 A 
ATOM     25  C   UNL     1       9.676   0.017  21.492  0.00  0.00    +0.030 A 
ATOM     26  C   UNL     1       8.793   0.989  21.974  0.00  0.00    +0.050 A 
ATOM     27  N   UNL     1       8.798   2.358  21.823  0.00  0.00    -0.358 N 
ATOM     28  H   UNL     1       9.501   2.873  21.312  0.00  0.00    +0.166 HD
ATOM     29  C   UNL     1       7.639   2.893  22.334  0.00  0.00    +0.014 A 
ATOM     30  C   UNL     1       6.982   1.883  23.005  0.00  0.00    +0.033 A 
ATOM     31  C   UNL     1       7.237   4.299  22.096  0.00  0.00    +0.063 C 
ATOM     32  C   UNL     1       7.667   0.670  22.733  0.00  0.00    +0.039 A 
ATOM     33  C   UNL     1       7.404  -0.678  23.023  0.00  0.00    +0.175 A 
ATOM     34  F   UNL     1       6.398  -0.980  23.860  0.00  0.00    -0.201 F 
ENDBRANCH  22  23
ENDBRANCH   8  22
TORSDOF 8
ENDMDL
MODEL 6
REMARK VINA RESULT:      -6.9      2.908      4.634
REMARK  Name = 
REMARK  10 active torsions:
REMARK  status: ('A' for Active; 'I' for Inactive)
REMARK    1  A    between atoms: C_1  and  O_2
REMARK    2  A    between atoms: O_2  and  C_3
REMARK    3  A    between atoms: C_8  and  O_9
REMARK    4  A    between atoms: O_9  and  C_10
REMARK    5  A    between atoms: C_10  and  C_11
REMARK    6  A    between atoms: C_11  and  C_12
REMARK    7  A    between atoms: C_12  and  N_13
REMARK    8  A    between atoms: C_21  and  O_22
REMARK    9  A    between atoms: O_22  and  C_23
REMARK   10  A    between atoms: C_29  and  C_30
REMARK                            x       y       z     vdW  Elec       q    Type
REMARK                         _______ _______ _______ _____ _____    ______ ____
ROOT
ATOM      1  C   UNL     1       5.551  -5.342  23.050  0.00  0.00    +0.162 A 
ATOM      2  C   UNL     1       4.612  -6.150  23.705  0.00  0.00    +0.164 A 
ATOM      3  C   UNL     1       4.793  -6.437  25.071  0.00  0.00    +0.078 A 
ATOM      4  C   UNL     1       5.875  -5.956  25.803  0.00  0.00    +0.082 A 
ATOM      5  N   UNL     1       5.962  -6.186  27.118  0.00  0.00    -0.235 NA
ATOM      6  C   UNL     1       7.011  -5.656  27.765  0.00  0.00    +0.225 A 
ATOM      7  N   UNL     1       7.998  -4.944  27.216  0.00  0.00    -0.201 NA
ATOM      8  C   UNL     1       7.934  -4.815  25.880  0.00  0.00    +0.231 A 
ATOM      9  C   UNL     1       6.847  -5.236  25.118  0.00  0.00    +0.066 A 
ATOM     10  C   UNL     1       6.696  -4.951  23.744  0.00  0.00    +0.064 A 
ENDROOT
BRANCH   1  12
ATOM     11  C   UNL     1       6.149  -5.635  20.780  0.00  0.00    +0.277 C 
ATOM     12  O   UNL     1       5.354  -4.960  21.752  0.00  0.00    -0.491 OA
ENDBRANCH   1  12
BRANCH   2  13
ATOM     13  O   UNL     1       3.468  -6.709  23.197  0.00  0.00    -0.488 OA
BRANCH  13  14
ATOM     14  C   UNL     1       2.346  -6.852  24.068  0.00  0.00    +0.230 C 
BRANCH  14  15
ATOM     15  C   UNL     1       1.600  -5.522  24.117  0.00  0.00    +0.056 C 
BRANCH  15  16
ATOM     16  C   UNL     1       1.147  -5.167  25.538  0.00  0.00    +0.087 C 
BRANCH  16  17
ATOM     17  N   UNL     1       1.888  -4.051  26.133  0.00  0.00    -0.302 NA
ATOM     18  C   UNL     1       2.765  -3.388  25.161  0.00  0.00    +0.084 C 
ATOM     19  C   UNL     1       3.949  -2.857  25.962  0.00  0.00    +0.017 C 
ATOM     20  C   UNL     1       3.683  -3.276  27.397  0.00  0.00    +0.017 C 
ATOM     21  C   UNL     1       2.732  -4.449  27.261  0.00  0.00    +0.084 C 
ENDBRANCH  16  17
ENDBRANCH  15  16
ENDBRANCH  14  15
ENDBRANCH  13  14
ENDBRANCH   2  13
BRANCH   8  22
ATOM     22  O   UNL     1       8.961  -4.177  25.187  0.00  0.00    -0.434 OA
BRANCH  22  23
ATOM     23  C   UNL     1       8.986  -2.804  25.123  0.00  0.00    +0.166 A 
ATOM     24  C   UNL     1       8.562  -2.147  26.285  0.00  0.00    +0.051 A 
ATOM     25  C   UNL     1       8.584  -0.751  26.386  0.00  0.00    +0.030 A 
ATOM     26  C   UNL     1       9.110  -0.043  25.300  0.00  0.00    +0.050 A 
ATOM     27  N   UNL     1       9.375   1.300  25.150  0.00  0.00    -0.358 N 
ATOM     28  H   UNL     1       9.201   1.999  25.859  0.00  0.00    +0.166 HD
ATOM     29  C   UNL     1      10.045   1.520  23.970  0.00  0.00    +0.014 A 
ATOM     30  C   UNL     1      10.022   0.338  23.259  0.00  0.00    +0.033 A 
ATOM     31  C   UNL     1      10.687   2.815  23.646  0.00  0.00    +0.063 C 
ATOM     32  C   UNL     1       9.491  -0.666  24.112  0.00  0.00    +0.039 A 
ATOM     33  C   UNL     1       9.347  -2.057  23.998  0.00  0.00    +0.175 A 
ATOM     34  F   UNL     1       9.589  -2.642  22.813  0.00  0.00    -0.201 F 
ENDBRANCH  22  23
ENDBRANCH   8  22
TORSDOF 8
ENDMDL
MODEL 7
REMARK VINA RESULT:      -6.8      2.142      2.683
REMARK  Name = 
REMARK  10 active torsions:
REMARK  status: ('A' for Active; 'I' for Inactive)
REMARK    1  A    between atoms: C_1  and  O_2
REMARK    2  A    between atoms: O_2  and  C_3
REMARK    3  A    between atoms: C_8  and  O_9
REMARK    4  A    between atoms: O_9  and  C_10
REMARK    5  A    between atoms: C_10  and  C_11
REMARK    6  A    between atoms: C_11  and  C_12
REMARK    7  A    between atoms: C_12  and  N_13
REMARK    8  A    between atoms: C_21  and  O_22
REMARK    9  A    between atoms: O_22  and  C_23
REMARK   10  A    between atoms: C_29  and  C_30
REMARK                            x       y       z     vdW  Elec       q    Type
REMARK                         _______ _______ _______ _____ _____    ______ ____
ROOT
ATOM      1  C   UNL     1       5.257  -3.224  26.376  0.00  0.00    +0.162 A 
ATOM      2  C   UNL     1       5.601  -4.273  27.239  0.00  0.00    +0.164 A 
ATOM      3  C   UNL     1       6.855  -4.894  27.092  0.00  0.00    +0.078 A 
ATOM      4  C   UNL     1       7.772  -4.515  26.116  0.00  0.00    +0.082 A 
ATOM      5  N   UNL     1       8.985  -5.078  26.066  0.00  0.00    -0.235 NA
ATOM      6  C   UNL     1       9.830  -4.632  25.124  0.00  0.00    +0.225 A 
ATOM      7  N   UNL     1       9.566  -3.698  24.207  0.00  0.00    -0.201 NA
ATOM      8  C   UNL     1       8.309  -3.224  24.221  0.00  0.00    +0.231 A 
ATOM      9  C   UNL     1       7.379  -3.538  25.208  0.00  0.00    +0.066 A 
ATOM     10  C   UNL     1       6.119  -2.913  25.325  0.00  0.00    +0.064 A 
ENDROOT
BRANCH   1  12
ATOM     11  C   UNL     1       4.232  -1.130  26.778  0.00  0.00    +0.277 C 
ATOM     12  O   UNL     1       4.091  -2.531  26.555  0.00  0.00    -0.491 OA
ENDBRANCH   1  12
BRANCH   2  13
ATOM     13  O   UNL     1       4.874  -4.794  28.278  0.00  0.00    -0.488 OA
BRANCH  13  14
ATOM     14  C   UNL     1       4.556  -6.185  28.244  0.00  0.00    +0.230 C 
BRANCH  14  15
ATOM     15  C   UNL     1       3.472  -6.407  27.192  0.00  0.00    +0.056 C 
BRANCH  15  16
ATOM     16  C   UNL     1       3.956  -7.300  26.045  0.00  0.00    +0.087 C 
BRANCH  16  17
ATOM     17  N   UNL     1       3.704  -6.742  24.714  0.00  0.00    -0.302 NA
ATOM     18  C   UNL     1       4.947  -6.413  24.007  0.00  0.00    +0.084 C 
ATOM     19  C   UNL     1       4.614  -5.229  23.105  0.00  0.00    +0.017 C 
ATOM     20  C   UNL     1       3.150  -4.925  23.368  0.00  0.00    +0.017 C 
ATOM     21  C   UNL     1       2.897  -5.520  24.738  0.00  0.00    +0.084 C 
ENDBRANCH  16  17
ENDBRANCH  15  16
ENDBRANCH  14  15
ENDBRANCH  13  14
ENDBRANCH   2  13
BRANCH   8  22
ATOM     22  O   UNL     1       7.892  -2.318  23.247  0.00  0.00    -0.434 OA
BRANCH  22  23
ATOM     23  C   UNL     1       8.539  -1.112  23.119  0.00  0.00    +0.166 A 
ATOM     24  C   UNL     1       9.131  -0.886  21.870  0.00  0.00    +0.051 A 
ATOM     25  C   UNL     1       9.779   0.320  21.576  0.00  0.00    +0.030 A 
ATOM     26  C   UNL     1       9.752   1.314  22.559  0.00  0.00    +0.050 A 
ATOM     27  N   UNL     1      10.182   2.622  22.523  0.00  0.00    -0.358 N 
ATOM     28  H   UNL     1      10.614   3.059  21.721  0.00  0.00    +0.166 HD
ATOM     29  C   UNL     1       9.801   3.275  23.671  0.00  0.00    +0.014 A 
ATOM     30  C   UNL     1       9.308   2.325  24.540  0.00  0.00    +0.033 A 
ATOM     31  C   UNL     1       9.894   4.747  23.820  0.00  0.00    +0.063 C 
ATOM     32  C   UNL     1       9.215   1.100  23.828  0.00  0.00    +0.039 A 
ATOM     33  C   UNL     1       8.678  -0.160  24.134  0.00  0.00    +0.175 A 
ATOM     34  F   UNL     1       8.280  -0.411  25.392  0.00  0.00    -0.201 F 
ENDBRANCH  22  23
ENDBRANCH   8  22
TORSDOF 8
ENDMDL
MODEL 8
REMARK VINA RESULT:      -6.5      2.706      8.753
REMARK  Name = 
REMARK  10 active torsions:
REMARK  status: ('A' for Active; 'I' for Inactive)
REMARK    1  A    between atoms: C_1  and  O_2
REMARK    2  A    between atoms: O_2  and  C_3
REMARK    3  A    between atoms: C_8  and  O_9
REMARK    4  A    between atoms: O_9  and  C_10
REMARK    5  A    between atoms: C_10  and  C_11
REMARK    6  A    between atoms: C_11  and  C_12
REMARK    7  A    between atoms: C_12  and  N_13
REMARK    8  A    between atoms: C_21  and  O_22
REMARK    9  A    between atoms: O_22  and  C_23
REMARK   10  A    between atoms: C_29  and  C_30
REMARK                            x       y       z     vdW  Elec       q    Type
REMARK                         _______ _______ _______ _____ _____    ______ ____
ROOT
ATOM      1  C   UNL     1       7.797  -0.794  23.670  0.00  0.00    +0.162 A 
ATOM      2  C   UNL     1       9.186  -0.875  23.506  0.00  0.00    +0.164 A 
ATOM      3  C   UNL     1       9.850  -2.056  23.885  0.00  0.00    +0.078 A 
ATOM      4  C   UNL     1       9.184  -3.152  24.426  0.00  0.00    +0.082 A 
ATOM      5  N   UNL     1       9.845  -4.285  24.695  0.00  0.00    -0.235 NA
ATOM      6  C   UNL     1       9.130  -5.313  25.175  0.00  0.00    +0.225 A 
ATOM      7  N   UNL     1       7.821  -5.306  25.441  0.00  0.00    -0.201 NA
ATOM      8  C   UNL     1       7.207  -4.126  25.254  0.00  0.00    +0.231 A 
ATOM      9  C   UNL     1       7.822  -3.022  24.670  0.00  0.00    +0.066 A 
ATOM     10  C   UNL     1       7.138  -1.841  24.314  0.00  0.00    +0.064 A 
ENDROOT
BRANCH   1  12
ATOM     11  C   UNL     1       6.156   0.847  24.127  0.00  0.00    +0.277 C 
ATOM     12  O   UNL     1       7.106   0.297  23.218  0.00  0.00    -0.491 OA
ENDBRANCH   1  12
BRANCH   2  13
ATOM     13  O   UNL     1      10.037   0.061  22.979  0.00  0.00    -0.488 OA
BRANCH  13  14
ATOM     14  C   UNL     1      10.794   0.866  23.883  0.00  0.00    +0.230 C 
BRANCH  14  15
ATOM     15  C   UNL     1      10.492   2.334  23.593  0.00  0.00    +0.056 C 
BRANCH  15  16
ATOM     16  C   UNL     1       9.229   2.817  24.315  0.00  0.00    +0.087 C 
BRANCH  16  17
ATOM     17  N   UNL     1       9.085   4.275  24.343  0.00  0.00    -0.302 NA
ATOM     18  C   UNL     1       7.956   4.735  23.526  0.00  0.00    +0.084 C 
ATOM     19  C   UNL     1       8.347   6.118  23.016  0.00  0.00    +0.017 C 
ATOM     20  C   UNL     1       9.734   6.375  23.576  0.00  0.00    +0.017 C 
ATOM     21  C   UNL     1      10.271   4.986  23.863  0.00  0.00    +0.084 C 
ENDBRANCH  16  17
ENDBRANCH  15  16
ENDBRANCH  14  15
ENDBRANCH  13  14
ENDBRANCH   2  13
BRANCH   8  22
ATOM     22  O   UNL     1       5.863  -3.975  25.593  0.00  0.00    -0.434 OA
BRANCH  22  23
ATOM     23  C   UNL     1       4.938  -4.875  25.122  0.00  0.00    +0.166 A 
ATOM     24  C   UNL     1       4.933  -5.049  23.732  0.00  0.00    +0.051 A 
ATOM     25  C   UNL     1       4.081  -5.973  23.113  0.00  0.00    +0.030 A 
ATOM     26  C   UNL     1       3.284  -6.762  23.949  0.00  0.00    +0.050 A 
ATOM     27  N   UNL     1       2.454  -7.821  23.655  0.00  0.00    -0.358 N 
ATOM     28  H   UNL     1       2.298  -8.183  22.725  0.00  0.00    +0.166 HD
ATOM     29  C   UNL     1       1.998  -8.398  24.817  0.00  0.00    +0.014 A 
ATOM     30  C   UNL     1       2.370  -7.573  25.858  0.00  0.00    +0.033 A 
ATOM     31  C   UNL     1       1.296  -9.703  24.837  0.00  0.00    +0.063 C 
ATOM     32  C   UNL     1       3.231  -6.576  25.330  0.00  0.00    +0.039 A 
ATOM     33  C   UNL     1       4.008  -5.561  25.909  0.00  0.00    +0.175 A 
ATOM     34  F   UNL     1       3.861  -5.294  27.217  0.00  0.00    -0.201 F 
ENDBRANCH  22  23
ENDBRANCH   8  22
TORSDOF 8
ENDMDL
MODEL 9
REMARK VINA RESULT:      -6.5      2.676      8.544
REMARK  Name = 
REMARK  10 active torsions:
REMARK  status: ('A' for Active; 'I' for Inactive)
REMARK    1  A    between atoms: C_1  and  O_2
REMARK    2  A    between atoms: O_2  and  C_3
REMARK    3  A    between atoms: C_8  and  O_9
REMARK    4  A    between atoms: O_9  and  C_10
REMARK    5  A    between atoms: C_10  and  C_11
REMARK    6  A    between atoms: C_11  and  C_12
REMARK    7  A    between atoms: C_12  and  N_13
REMARK    8  A    between atoms: C_21  and  O_22
REMARK    9  A    between atoms: O_22  and  C_23
REMARK   10  A    between atoms: C_29  and  C_30
REMARK                            x       y       z     vdW  Elec       q    Type
REMARK                         _______ _______ _______ _____ _____    ______ ____
ROOT
ATOM      1  C   UNL     1       7.743   1.218  25.705  0.00  0.00    +0.162 A 
ATOM      2  C   UNL     1       8.298   2.299  25.007  0.00  0.00    +0.164 A 
ATOM      3  C   UNL     1       8.914   2.065  23.763  0.00  0.00    +0.078 A 
ATOM      4  C   UNL     1       9.003   0.797  23.196  0.00  0.00    +0.082 A 
ATOM      5  N   UNL     1       9.524   0.634  21.974  0.00  0.00    -0.235 NA
ATOM      6  C   UNL     1       9.538  -0.612  21.475  0.00  0.00    +0.225 A 
ATOM      7  N   UNL     1       9.109  -1.714  22.095  0.00  0.00    -0.201 NA
ATOM      8  C   UNL     1       8.685  -1.531  23.356  0.00  0.00    +0.231 A 
ATOM      9  C   UNL     1       8.533  -0.278  23.943  0.00  0.00    +0.066 A 
ATOM     10  C   UNL     1       7.927  -0.069  25.200  0.00  0.00    +0.064 A 
ENDROOT
BRANCH   1  12
ATOM     11  C   UNL     1       7.247   0.448  27.886  0.00  0.00    +0.277 C 
ATOM     12  O   UNL     1       7.049   1.423  26.865  0.00  0.00    -0.491 OA
ENDBRANCH   1  12
BRANCH   2  13
ATOM     13  O   UNL     1       8.307   3.624  25.357  0.00  0.00    -0.488 OA
BRANCH  13  14
ATOM     14  C   UNL     1       7.239   4.449  24.892  0.00  0.00    +0.230 C 
BRANCH  14  15
ATOM     15  C   UNL     1       7.796   5.836  24.586  0.00  0.00    +0.056 C 
BRANCH  15  16
ATOM     16  C   UNL     1       8.817   5.808  23.444  0.00  0.00    +0.087 C 
BRANCH  16  17
ATOM     17  N   UNL     1      10.087   6.464  23.769  0.00  0.00    -0.302 NA
ATOM     18  C   UNL     1      11.242   5.718  23.258  0.00  0.00    +0.084 C 
ATOM     19  C   UNL     1      12.383   5.994  24.232  0.00  0.00    +0.017 C 
ATOM     20  C   UNL     1      11.791   6.902  25.295  0.00  0.00    +0.017 C 
ATOM     21  C   UNL     1      10.301   6.637  25.207  0.00  0.00    +0.084 C 
ENDBRANCH  16  17
ENDBRANCH  15  16
ENDBRANCH  14  15
ENDBRANCH  13  14
ENDBRANCH   2  13
BRANCH   8  22
ATOM     22  O   UNL     1       8.307  -2.625  24.133  0.00  0.00    -0.434 OA
BRANCH  22  23
ATOM     23  C   UNL     1       7.339  -3.484  23.672  0.00  0.00    +0.166 A 
ATOM     24  C   UNL     1       7.822  -4.650  23.064  0.00  0.00    +0.051 A 
ATOM     25  C   UNL     1       6.953  -5.643  22.594  0.00  0.00    +0.030 A 
ATOM     26  C   UNL     1       5.586  -5.451  22.818  0.00  0.00    +0.050 A 
ATOM     27  N   UNL     1       4.515  -6.287  22.590  0.00  0.00    -0.358 N 
ATOM     28  H   UNL     1       4.588  -7.213  22.193  0.00  0.00    +0.166 HD
ATOM     29  C   UNL     1       3.370  -5.740  23.119  0.00  0.00    +0.014 A 
ATOM     30  C   UNL     1       3.671  -4.449  23.502  0.00  0.00    +0.033 A 
ATOM     31  C   UNL     1       2.110  -6.507  23.258  0.00  0.00    +0.063 C 
ATOM     32  C   UNL     1       5.074  -4.279  23.374  0.00  0.00    +0.039 A 
ATOM     33  C   UNL     1       5.961  -3.251  23.727  0.00  0.00    +0.175 A 
ATOM     34  F   UNL     1       5.464  -2.074  24.140  0.00  0.00    -0.201 F 
ENDBRANCH  22  23
ENDBRANCH   8  22
TORSDOF 8
ENDMDL
