MODEL 1
REMARK VINA RESULT:      -3.3      0.000      0.000
REMARK  Name = 
REMARK  44 active torsions:
REMARK  status: ('A' for Active; 'I' for Inactive)
REMARK    1  A    between atoms: C_1  and  C_2
REMARK    2  A    between atoms: C_2  and  C_3
REMARK    3  A    between atoms: C_2  and  C_4
REMARK    4  A    between atoms: C_4  and  C_5
REMARK    5  A    between atoms: C_5  and  N_7
REMARK    6  A    between atoms: C_5  and  C_84
REMARK    7  A    between atoms: C_8  and  C_10
REMARK    8  A    between atoms: C_10  and  C_12
REMARK    9  A    between atoms: C_10  and  N_19
REMARK   10  A    between atoms: C_12  and  C_13
REMARK   11  A    between atoms: C_13  and  C_14
REMARK   12  A    between atoms: C_14  and  N_15
REMARK   13  A    between atoms: C_20  and  C_22
REMARK   14  A    between atoms: C_22  and  C_24
REMARK   15  A    between atoms: C_22  and  N_32
REMARK   16  A    between atoms: C_24  and  C_25
REMARK   17  A    between atoms: C_28  and  O_29
REMARK   18  A    between atoms: C_33  and  CA_35
REMARK   19  A    between atoms: CA_35  and  C_37
REMARK   20  A    between atoms: CA_35  and  N_39
REMARK   21  A    between atoms: C_37  and  O_38
REMARK   22  A    between atoms: C_40  and  CA_42
REMARK   23  A    between atoms: CA_42  and  C_44
REMARK   24  A    between atoms: CA_42  and  N_51
REMARK   25  A    between atoms: C_44  and  C_45
REMARK   26  A    between atoms: C_52  and  CA_54
REMARK   27  A    between atoms: CA_54  and  C_56
REMARK   28  A    between atoms: CA_54  and  N_64
REMARK   29  A    between atoms: C_56  and  C_57
REMARK   30  A    between atoms: C_65  and  CA_67
REMARK   31  A    between atoms: CA_67  and  C_69
REMARK   32  A    between atoms: CA_67  and  N_80
REMARK   33  A    between atoms: C_69  and  C_70
REMARK   34  A    between atoms: C_81  and  C_82
REMARK   35  A    between atoms: N_86  and  C_87
REMARK   36  A    between atoms: C_87  and  C_89
REMARK   37  A    between atoms: C_87  and  C_96
REMARK   38  A    between atoms: C_89  and  C_90
REMARK   39  A    between atoms: C_90  and  C_91
REMARK   40  A    between atoms: C_91  and  N_92
REMARK   41  A    between atoms: C_102  and  C_104
REMARK   42  A    between atoms: N_106  and  C_107
REMARK   43  A    between atoms: C_107  and  C_109
REMARK   44  A    between atoms: C_107  and  C_110
REMARK                            x       y       z     vdW  Elec       q    Type
REMARK                         _______ _______ _______ _____ _____    ______ ____
ROOT
ATOM      1  C   UNL     1       5.942   3.327  22.543  0.00  0.00    +0.163 C 
ENDROOT
BRANCH   1   4
ATOM      2  N   UNL     1       3.670   2.889  21.759  0.00  0.00    -0.302 N 
ATOM      3  H   UNL     1       3.868   1.931  22.024  0.00  0.00    +0.150 HD
ATOM      4  C   UNL     1       4.546   3.881  22.198  0.00  0.00    +0.234 C 
ATOM      5  O   UNL     1       4.258   5.071  22.166  0.00  0.00    -0.274 OA
BRANCH   2   6
ATOM      6  C   UNL     1       2.291   3.254  21.428  0.00  0.00    +0.159 C 
BRANCH   6   9
ATOM      7  N   UNL     1       2.314   3.849  23.858  0.00  0.00    -0.302 N 
ATOM      8  H   UNL     1       3.320   3.827  23.728  0.00  0.00    +0.150 HD
ATOM      9  C   UNL     1       1.565   3.815  22.694  0.00  0.00    +0.234 C 
ATOM     10  O   UNL     1       0.444   4.316  22.619  0.00  0.00    -0.274 OA
BRANCH   7  11
ATOM     11  C   UNL     1       1.808   4.388  25.151  0.00  0.00    +0.159 C 
BRANCH  11  12
ATOM     12  C   UNL     1       3.079   4.706  26.031  0.00  0.00    +0.234 C 
ATOM     13  N   UNL     1       4.361   4.485  25.585  0.00  0.00    -0.302 N 
ATOM     14  H   UNL     1       4.512   3.681  24.989  0.00  0.00    +0.150 HD
ATOM     15  O   UNL     1       2.874   5.161  27.161  0.00  0.00    -0.274 OA
BRANCH  13  16
ATOM     16  C   UNL     1       5.664   5.032  26.086  0.00  0.00    +0.159 C 
BRANCH  16  17
ATOM     17  C   UNL     1       5.336   6.058  27.218  0.00  0.00    +0.237 C 
ATOM     18  N   UNL     1       5.766   5.840  28.518  0.00  0.00    -0.288 N 
ATOM     19  C   UNL     1       6.396   4.657  29.160  0.00  0.00    +0.162 C 
ATOM     20  C   UNL     1       7.349   5.309  30.208  0.00  0.00    +0.033 C 
ATOM     21  C   UNL     1       7.015   6.805  30.251  0.00  0.00    +0.021 C 
ATOM     22  C   UNL     1       5.713   6.933  29.482  0.00  0.00    +0.109 C 
ATOM     23  O   UNL     1       4.760   7.108  26.899  0.00  0.00    -0.274 OA
BRANCH  19  24
ATOM     24  C   UNL     1       5.373   3.693  29.943  0.00  0.00    +0.234 C 
ATOM     25  N   UNL     1       5.652   2.323  29.960  0.00  0.00    -0.303 N 
ATOM     26  H   UNL     1       6.535   2.140  29.506  0.00  0.00    +0.149 HD
ATOM     27  O   UNL     1       4.380   4.171  30.484  0.00  0.00    -0.274 OA
BRANCH  25  28
ATOM     28  C   UNL     1       4.767   1.108  30.455  0.00  0.00    +0.156 C 
ATOM     29  C   UNL     1       5.376  -0.145  29.848  0.00  0.00    +0.038 C 
BRANCH  28  30
ATOM     30  C   UNL     1       3.061   0.741  30.408  0.00  0.00    +0.231 C 
ATOM     31  O   UNL     1       2.226   1.647  30.281  0.00  0.00    -0.274 OA
ATOM     32  N   UNL     1       2.429  -0.471  30.414  0.00  0.00    -0.328 N 
ATOM     33  H   UNL     1       1.448  -0.426  30.164  0.00  0.00    +0.145 HD
ATOM     34  H   UNL     1       2.671  -1.467  30.361  0.00  0.00    +0.145 HD
ENDBRANCH  28  30
ENDBRANCH  25  28
ENDBRANCH  19  24
ENDBRANCH  16  17
BRANCH  16  35
ATOM     35  C   UNL     1       6.501   5.751  25.007  0.00  0.00    +0.035 C 
BRANCH  35  36
ATOM     36  C   UNL     1       7.912   6.121  25.455  0.00  0.00    +0.039 C 
BRANCH  36  37
ATOM     37  C   UNL     1       9.003   5.651  24.501  0.00  0.00    +0.196 C 
BRANCH  37  38
ATOM     38  N   UNL     1      10.221   6.405  24.781  0.00  0.00    -0.276 N 
ATOM     39  H   UNL     1      10.232   6.844  25.691  0.00  0.00    +0.258 HD
ATOM     40  C   UNL     1      11.447   5.976  24.412  0.00  0.00    +0.376 C 
ATOM     41  N   UNL     1      11.746   5.004  23.634  0.00  0.00    -0.130 NA
ATOM     42  H   UNL     1      10.891   4.546  23.319  0.00  0.00    +0.306 HD
ATOM     43  N   UNL     1      12.423   6.718  24.964  0.00  0.00    -0.289 N 
ATOM     44  H   UNL     1      13.309   6.493  24.520  0.00  0.00    +0.255 HD
ATOM     45  H   UNL     1      12.247   7.714  24.922  0.00  0.00    +0.255 HD
ENDBRANCH  37  38
ENDBRANCH  36  37
ENDBRANCH  35  36
ENDBRANCH  16  35
ENDBRANCH  13  16
ENDBRANCH  11  12
BRANCH  11  46
ATOM     46  C   UNL     1       0.708   3.457  25.711  0.00  0.00    +0.034 C 
BRANCH  46  48
ATOM     47  C   UNL     1       0.542   2.730  28.146  0.00  0.00    +0.007 C 
ATOM     48  C   UNL     1       1.161   2.445  26.775  0.00  0.00    -0.015 C 
ATOM     49  C   UNL     1       0.902   0.993  26.386  0.00  0.00    +0.007 C 
ENDBRANCH  46  48
ENDBRANCH  11  46
ENDBRANCH   7  11
ENDBRANCH   6   9
BRANCH   6  50
ATOM     50  C   UNL     1       2.239   4.302  20.300  0.00  0.00    +0.033 C 
BRANCH  50  51
ATOM     51  C   UNL     1       1.866   3.725  18.925  0.00  0.00    +0.021 C 
BRANCH  51  52
ATOM     52  C   UNL     1       1.628   4.831  17.893  0.00  0.00    +0.106 C 
BRANCH  52  53
ATOM     53  N   UNL     1       2.375   4.597  16.672  0.00  0.00    -0.300 N 
ATOM     54  H   UNL     1       3.275   4.147  16.731  0.00  0.00    +0.150 HD
ATOM     55  C   UNL     1       1.873   4.884  15.440  0.00  0.00    +0.297 C 
ATOM     56  O   UNL     1       0.788   5.405  15.223  0.00  0.00    -0.253 OA
ATOM     57  N   UNL     1       2.699   4.511  14.433  0.00  0.00    -0.313 N 
ATOM     58  H   UNL     1       2.408   4.771  13.499  0.00  0.00    +0.146 HD
ATOM     59  H   UNL     1       3.681   4.354  14.586  0.00  0.00    +0.146 HD
ENDBRANCH  52  53
ENDBRANCH  51  52
ENDBRANCH  50  51
ENDBRANCH   6  50
ENDBRANCH   2   6
ENDBRANCH   1   4
BRANCH   1  60
ATOM     60  N   UNL     1       5.779   2.761  23.903  0.00  0.00    -0.302 N 
ATOM     61  H   UNL     1       5.543   3.477  24.585  0.00  0.00    +0.150 HD
ATOM     62  C   UNL     1       5.465   1.474  24.287  0.00  0.00    +0.236 C 
ATOM     63  O   UNL     1       5.474   0.553  23.471  0.00  0.00    -0.274 OA
BRANCH  62  64
ATOM     64  CA  UNL     1       5.372   1.226  25.941  0.00  0.00    +0.184 C 
BRANCH  64  65
ATOM     65  N   UNL     1       4.471   0.086  26.693  0.00  0.00    -0.301 N 
ATOM     66  H   UNL     1       4.549   0.095  27.690  0.00  0.00    +0.150 HD
ATOM     67  C   UNL     1       3.871  -1.138  26.516  0.00  0.00    +0.234 C 
ATOM     68  O   UNL     1       3.888  -1.717  25.429  0.00  0.00    -0.274 OA
BRANCH  67  69
ATOM     69  CA  UNL     1       3.211  -1.829  27.878  0.00  0.00    +0.163 C 
BRANCH  69  70
ATOM     70  N   UNL     1       4.079  -2.989  27.945  0.00  0.00    -0.302 N 
ATOM     71  H   UNL     1       4.799  -2.983  27.271  0.00  0.00    +0.150 HD
ATOM     72  C   UNL     1       4.262  -3.826  29.044  0.00  0.00    +0.234 C 
ATOM     73  O   UNL     1       3.738  -3.622  30.127  0.00  0.00    -0.274 OA
BRANCH  72  74
ATOM     74  CA  UNL     1       5.102  -5.110  28.709  0.00  0.00    +0.163 C 
BRANCH  74  75
ATOM     75  N   UNL     1       6.158  -4.756  27.788  0.00  0.00    -0.302 N 
ATOM     76  H   UNL     1       6.127  -3.859  27.301  0.00  0.00    +0.150 HD
ATOM     77  C   UNL     1       7.337  -5.464  27.735  0.00  0.00    +0.234 C 
ATOM     78  O   UNL     1       7.559  -6.463  28.413  0.00  0.00    -0.274 OA
BRANCH  77  79
ATOM     79  CA  UNL     1       8.357  -4.851  26.768  0.00  0.00    +0.163 C 
BRANCH  79  80
ATOM     80  N   UNL     1       7.775  -3.650  26.156  0.00  0.00    -0.304 N 
ATOM     81  H   UNL     1       6.921  -3.766  25.627  0.00  0.00    +0.149 HD
ATOM     82  C   UNL     1       8.314  -2.399  26.301  0.00  0.00    +0.211 C 
ATOM     83  O   UNL     1       9.286  -2.168  27.016  0.00  0.00    -0.276 OA
ATOM     84  C   UNL     1       7.583  -1.320  25.545  0.00  0.00    +0.109 C 
ENDBRANCH  79  80
BRANCH  79  85
ATOM     85  C   UNL     1       8.764  -5.877  25.703  0.00  0.00    +0.067 C 
BRANCH  85  86
ATOM     86  C   UNL     1       8.040  -5.643  24.398  0.00  0.00    -0.045 A 
ATOM     87  C   UNL     1       7.932  -6.671  23.455  0.00  0.00    +0.004 A 
ATOM     88  C   UNL     1       7.338  -6.434  22.218  0.00  0.00    +0.009 A 
ATOM     89  C   UNL     1       6.811  -5.173  21.910  0.00  0.00    -0.018 A 
ATOM     90  C   UNL     1       6.890  -4.134  22.864  0.00  0.00    -0.018 A 
ATOM     91  C   UNL     1       6.351  -2.876  22.553  0.00  0.00    +0.008 A 
ATOM     92  C   UNL     1       5.731  -2.651  21.323  0.00  0.00    +0.001 A 
ATOM     93  C   UNL     1       5.656  -3.677  20.384  0.00  0.00    +0.001 A 
ATOM     94  C   UNL     1       6.199  -4.928  20.673  0.00  0.00    +0.008 A 
ATOM     95  C   UNL     1       7.507  -4.381  24.100  0.00  0.00    +0.012 A 
ENDBRANCH  85  86
ENDBRANCH  79  85
ENDBRANCH  77  79
ENDBRANCH  74  75
BRANCH  74  96
ATOM     96  C   UNL     1       4.217  -6.235  28.138  0.00  0.00    +0.067 C 
BRANCH  96  97
ATOM     97  C   UNL     1       4.042  -6.276  26.652  0.00  0.00    -0.045 A 
ATOM     98  C   UNL     1       4.258  -5.110  25.908  0.00  0.00    +0.005 A 
ATOM     99  C   UNL     1       4.039  -5.104  24.521  0.00  0.00    +0.020 A 
ATOM    100  C   UNL     1       3.674  -6.275  23.899  0.00  0.00    +0.041 A 
ATOM    101 CL   UNL     1       3.413  -6.264  22.199  0.00  0.00    -0.084 Cl
ATOM    102  C   UNL     1       3.435  -7.438  24.628  0.00  0.00    +0.020 A 
ATOM    103  C   UNL     1       3.625  -7.450  26.004  0.00  0.00    +0.005 A 
ENDBRANCH  96  97
ENDBRANCH  74  96
ENDBRANCH  72  74
ENDBRANCH  69  70
BRANCH  69 104
ATOM    104  C   UNL     1       1.697  -2.234  28.018  0.00  0.00    +0.068 C 
BRANCH 104 105
ATOM    105  C   UNL     1       1.193  -3.505  27.360  0.00  0.00    -0.027 A 
ATOM    106  C   UNL     1       0.890  -3.560  25.993  0.00  0.00    +0.006 A 
ATOM    107  C   UNL     1       0.570  -4.774  25.384  0.00  0.00    +0.020 A 
ATOM    108  C   UNL     1       0.444  -5.891  26.184  0.00  0.00    +0.111 A 
ATOM    109  N   UNL     1       0.580  -5.852  27.523  0.00  0.00    -0.263 NA
ATOM    110  C   UNL     1       0.915  -4.662  28.074  0.00  0.00    +0.114 A 
ENDBRANCH 104 105
ENDBRANCH  69 104
ENDBRANCH  67  69
ENDBRANCH  64  65
BRANCH  64 111
ATOM    111  C   UNL     1       6.754   1.018  26.430  0.00  0.00    +0.187 C 
BRANCH 111 112
ATOM    112  O   UNL     1       6.986   1.816  27.576  0.00  0.00    -0.393 OA
ATOM    113  H   UNL     1       6.709   1.265  28.334  0.00  0.00    +0.209 HD
ENDBRANCH 111 112
ENDBRANCH  64 111
ENDBRANCH  62  64
ENDBRANCH   1  60
BRANCH   1 114
ATOM    114  C   UNL     1       6.555   2.454  21.438  0.00  0.00    +0.067 C 
BRANCH 114 115
ATOM    115  C   UNL     1       7.804   1.723  21.908  0.00  0.00    -0.045 A 
ATOM    116  C   UNL     1       7.911   0.336  21.726  0.00  0.00    +0.007 A 
ATOM    117  C   UNL     1       9.079  -0.345  22.074  0.00  0.00    +0.045 A 
ATOM    118  C   UNL     1      10.141   0.358  22.624  0.00  0.00    +0.117 A 
ATOM    119  C   UNL     1      10.049   1.729  22.845  0.00  0.00    +0.045 A 
ATOM    120  C   UNL     1       8.881   2.411  22.482  0.00  0.00    +0.007 A 
BRANCH 118 121
ATOM    121  O   UNL     1      11.271  -0.341  22.931  0.00  0.00    -0.507 OA
ATOM    122  H   UNL     1      12.042   0.218  22.742  0.00  0.00    +0.292 HD
ENDBRANCH 118 121
ENDBRANCH 114 115
ENDBRANCH   1 114
TORSDOF 40
ENDMDL
MODEL 2
REMARK VINA RESULT:      -1.0      3.135     11.353
REMARK  Name = 
REMARK  44 active torsions:
REMARK  status: ('A' for Active; 'I' for Inactive)
REMARK    1  A    between atoms: C_1  and  C_2
REMARK    2  A    between atoms: C_2  and  C_3
REMARK    3  A    between atoms: C_2  and  C_4
REMARK    4  A    between atoms: C_4  and  C_5
REMARK    5  A    between atoms: C_5  and  N_7
REMARK    6  A    between atoms: C_5  and  C_84
REMARK    7  A    between atoms: C_8  and  C_10
REMARK    8  A    between atoms: C_10  and  C_12
REMARK    9  A    between atoms: C_10  and  N_19
REMARK   10  A    between atoms: C_12  and  C_13
REMARK   11  A    between atoms: C_13  and  C_14
REMARK   12  A    between atoms: C_14  and  N_15
REMARK   13  A    between atoms: C_20  and  C_22
REMARK   14  A    between atoms: C_22  and  C_24
REMARK   15  A    between atoms: C_22  and  N_32
REMARK   16  A    between atoms: C_24  and  C_25
REMARK   17  A    between atoms: C_28  and  O_29
REMARK   18  A    between atoms: C_33  and  CA_35
REMARK   19  A    between atoms: CA_35  and  C_37
REMARK   20  A    between atoms: CA_35  and  N_39
REMARK   21  A    between atoms: C_37  and  O_38
REMARK   22  A    between atoms: C_40  and  CA_42
REMARK   23  A    between atoms: CA_42  and  C_44
REMARK   24  A    between atoms: CA_42  and  N_51
REMARK   25  A    between atoms: C_44  and  C_45
REMARK   26  A    between atoms: C_52  and  CA_54
REMARK   27  A    between atoms: CA_54  and  C_56
REMARK   28  A    between atoms: CA_54  and  N_64
REMARK   29  A    between atoms: C_56  and  C_57
REMARK   30  A    between atoms: C_65  and  CA_67
REMARK   31  A    between atoms: CA_67  and  C_69
REMARK   32  A    between atoms: CA_67  and  N_80
REMARK   33  A    between atoms: C_69  and  C_70
REMARK   34  A    between atoms: C_81  and  C_82
REMARK   35  A    between atoms: N_86  and  C_87
REMARK   36  A    between atoms: C_87  and  C_89
REMARK   37  A    between atoms: C_87  and  C_96
REMARK   38  A    between atoms: C_89  and  C_90
REMARK   39  A    between atoms: C_90  and  C_91
REMARK   40  A    between atoms: C_91  and  N_92
REMARK   41  A    between atoms: C_102  and  C_104
REMARK   42  A    between atoms: N_106  and  C_107
REMARK   43  A    between atoms: C_107  and  C_109
REMARK   44  A    between atoms: C_107  and  C_110
REMARK                            x       y       z     vdW  Elec       q    Type
REMARK                         _______ _______ _______ _____ _____    ______ ____
ROOT
ATOM      1  C   UNL     1       3.302  -0.771  26.301  0.00  0.00    +0.163 C 
ENDROOT
BRANCH   1   4
ATOM      2  N   UNL     1       5.102   0.240  27.608  0.00  0.00    -0.302 N 
ATOM      3  H   UNL     1       4.528   1.074  27.571  0.00  0.00    +0.150 HD
ATOM      4  C   UNL     1       4.522  -0.968  27.222  0.00  0.00    +0.234 C 
ATOM      5  O   UNL     1       5.030  -2.051  27.483  0.00  0.00    -0.274 OA
BRANCH   2   6
ATOM      6  C   UNL     1       6.251   0.220  28.516  0.00  0.00    +0.159 C 
BRANCH   6   9
ATOM      7  N   UNL     1       7.366  -0.678  26.464  0.00  0.00    -0.302 N 
ATOM      8  H   UNL     1       6.465  -0.483  26.039  0.00  0.00    +0.150 HD
ATOM      9  C   UNL     1       7.551  -0.146  27.729  0.00  0.00    +0.234 C 
ATOM     10  O   UNL     1       8.664   0.148  28.162  0.00  0.00    -0.274 OA
BRANCH   7  11
ATOM     11  C   UNL     1       8.483  -1.046  25.551  0.00  0.00    +0.159 C 
BRANCH  11  12
ATOM     12  C   UNL     1       8.714  -2.598  25.730  0.00  0.00    +0.234 C 
ATOM     13  N   UNL     1       7.808  -3.410  26.371  0.00  0.00    -0.302 N 
ATOM     14  H   UNL     1       7.306  -3.015  27.156  0.00  0.00    +0.150 HD
ATOM     15  O   UNL     1       9.763  -3.060  25.272  0.00  0.00    -0.274 OA
BRANCH  13  16
ATOM     16  C   UNL     1       7.656  -4.901  26.335  0.00  0.00    +0.159 C 
BRANCH  16  17
ATOM     17  C   UNL     1       7.636  -5.332  24.833  0.00  0.00    +0.237 C 
ATOM     18  N   UNL     1       6.658  -4.855  23.972  0.00  0.00    -0.288 N 
ATOM     19  C   UNL     1       5.420  -4.073  24.227  0.00  0.00    +0.162 C 
ATOM     20  C   UNL     1       5.311  -3.189  22.947  0.00  0.00    +0.033 C 
ATOM     21  C   UNL     1       6.359  -3.703  21.953  0.00  0.00    +0.021 C 
ATOM     22  C   UNL     1       6.828  -5.024  22.533  0.00  0.00    +0.109 C 
ATOM     23  O   UNL     1       8.567  -6.038  24.420  0.00  0.00    -0.274 OA
BRANCH  19  24
ATOM     24  C   UNL     1       4.080  -4.957  24.343  0.00  0.00    +0.234 C 
ATOM     25  N   UNL     1       3.641  -5.628  23.198  0.00  0.00    -0.303 N 
ATOM     26  H   UNL     1       4.300  -5.502  22.444  0.00  0.00    +0.149 HD
ATOM     27  O   UNL     1       3.476  -5.007  25.410  0.00  0.00    -0.274 OA
BRANCH  25  28
ATOM     28  C   UNL     1       2.286  -6.398  22.923  0.00  0.00    +0.156 C 
ATOM     29  C   UNL     1       1.165  -5.411  23.197  0.00  0.00    +0.038 C 
BRANCH  28  30
ATOM     30  C   UNL     1       1.597  -7.898  23.493  0.00  0.00    +0.231 C 
ATOM     31  O   UNL     1       1.670  -8.925  22.806  0.00  0.00    -0.274 OA
ATOM     32  N   UNL     1       1.006  -8.186  24.692  0.00  0.00    -0.328 N 
ATOM     33  H   UNL     1       0.882  -9.177  24.863  0.00  0.00    +0.145 HD
ATOM     34  H   UNL     1       0.850  -7.738  25.602  0.00  0.00    +0.145 HD
ENDBRANCH  28  30
ENDBRANCH  25  28
ENDBRANCH  19  24
ENDBRANCH  16  17
BRANCH  16  35
ATOM     35  C   UNL     1       6.365  -5.418  27.004  0.00  0.00    +0.035 C 
BRANCH  35  36
ATOM     36  C   UNL     1       6.595  -6.510  28.045  0.00  0.00    +0.039 C 
BRANCH  36  37
ATOM     37  C   UNL     1       6.162  -6.120  29.453  0.00  0.00    +0.196 C 
BRANCH  37  38
ATOM     38  N   UNL     1       5.068  -6.994  29.861  0.00  0.00    -0.276 N 
ATOM     39  H   UNL     1       4.974  -7.094  30.863  0.00  0.00    +0.258 HD
ATOM     40  C   UNL     1       3.871  -7.007  29.238  0.00  0.00    +0.376 C 
ATOM     41  N   UNL     1       3.547  -6.447  28.132  0.00  0.00    -0.130 NA
ATOM     42  H   UNL     1       4.349  -5.938  27.761  0.00  0.00    +0.306 HD
ATOM     43  N   UNL     1       2.960  -7.724  29.918  0.00  0.00    -0.289 N 
ATOM     44  H   UNL     1       2.141  -7.870  29.334  0.00  0.00    +0.255 HD
ATOM     45  H   UNL     1       3.315  -8.608  30.261  0.00  0.00    +0.255 HD
ENDBRANCH  37  38
ENDBRANCH  36  37
ENDBRANCH  35  36
ENDBRANCH  16  35
ENDBRANCH  13  16
ENDBRANCH  11  12
BRANCH  11  46
ATOM     46  C   UNL     1       9.666  -0.072  25.754  0.00  0.00    +0.034 C 
BRANCH  46  48
ATOM     47  C   UNL     1      10.104  -0.499  23.282  0.00  0.00    +0.007 C 
ATOM     48  C   UNL     1      10.688  -0.006  24.609  0.00  0.00    -0.015 C 
ATOM     49  C   UNL     1      11.303   1.377  24.417  0.00  0.00    +0.007 C 
ENDBRANCH  46  48
ENDBRANCH  11  46
ENDBRANCH   7  11
ENDBRANCH   6   9
BRANCH   6  50
ATOM     50  C   UNL     1       6.441   1.577  29.219  0.00  0.00    +0.033 C 
BRANCH  50  51
ATOM     51  C   UNL     1       5.586   1.753  30.485  0.00  0.00    +0.021 C 
BRANCH  51  52
ATOM     52  C   UNL     1       4.260   0.994  30.383  0.00  0.00    +0.106 C 
BRANCH  52  53
ATOM     53  N   UNL     1       3.343   1.635  29.459  0.00  0.00    -0.300 N 
ATOM     54  H   UNL     1       3.703   2.320  28.813  0.00  0.00    +0.150 HD
ATOM     55  C   UNL     1       2.031   1.286  29.371  0.00  0.00    +0.297 C 
ATOM     56  O   UNL     1       1.471   0.456  30.073  0.00  0.00    -0.253 OA
ATOM     57  N   UNL     1       1.373   1.947  28.388  0.00  0.00    -0.313 N 
ATOM     58  H   UNL     1       0.377   1.782  28.330  0.00  0.00    +0.146 HD
ATOM     59  H   UNL     1       1.723   2.810  28.006  0.00  0.00    +0.146 HD
ENDBRANCH  52  53
ENDBRANCH  51  52
ENDBRANCH  50  51
ENDBRANCH   6  50
ENDBRANCH   2   6
ENDBRANCH   1   4
BRANCH   1  60
ATOM     60  N   UNL     1       3.817   0.073  25.198  0.00  0.00    -0.302 N 
ATOM     61  H   UNL     1       3.280   0.930  25.095  0.00  0.00    +0.150 HD
ATOM     62  C   UNL     1       5.075   0.110  24.634  0.00  0.00    +0.236 C 
ATOM     63  O   UNL     1       5.907  -0.758  24.892  0.00  0.00    -0.274 OA
BRANCH  62  64
ATOM     64  CA  UNL     1       5.266   1.216  23.389  0.00  0.00    +0.184 C 
BRANCH  64  65
ATOM     65  N   UNL     1       4.572   2.696  23.304  0.00  0.00    -0.301 N 
ATOM     66  H   UNL     1       5.194   3.451  23.509  0.00  0.00    +0.150 HD
ATOM     67  C   UNL     1       3.369   3.355  23.382  0.00  0.00    +0.234 C 
ATOM     68  O   UNL     1       2.307   2.749  23.531  0.00  0.00    -0.274 OA
BRANCH  67  69
ATOM     69  CA  UNL     1       3.446   5.016  23.364  0.00  0.00    +0.163 C 
BRANCH  69  70
ATOM     70  N   UNL     1       4.700   5.159  24.079  0.00  0.00    -0.302 N 
ATOM     71  H   UNL     1       5.173   6.001  23.883  0.00  0.00    +0.150 HD
ATOM     72  C   UNL     1       5.070   4.494  25.247  0.00  0.00    +0.234 C 
ATOM     73  O   UNL     1       4.319   3.742  25.847  0.00  0.00    -0.274 OA
BRANCH  72  74
ATOM     74  CA  UNL     1       6.575   4.715  25.634  0.00  0.00    +0.163 C 
BRANCH  74  75
ATOM     75  N   UNL     1       6.692   4.756  27.073  0.00  0.00    -0.302 N 
ATOM     76  H   UNL     1       7.217   4.028  27.562  0.00  0.00    +0.150 HD
ATOM     77  C   UNL     1       6.347   5.877  27.794  0.00  0.00    +0.234 C 
ATOM     78  O   UNL     1       5.872   6.888  27.287  0.00  0.00    -0.274 OA
BRANCH  77  79
ATOM     79  CA  UNL     1       6.654   5.741  29.291  0.00  0.00    +0.163 C 
BRANCH  79  80
ATOM     80  N   UNL     1       5.398   5.528  30.019  0.00  0.00    -0.304 N 
ATOM     81  H   UNL     1       5.281   6.017  30.896  0.00  0.00    +0.149 HD
ATOM     82  C   UNL     1       4.385   4.734  29.550  0.00  0.00    +0.211 C 
ATOM     83  O   UNL     1       4.414   4.195  28.447  0.00  0.00    -0.276 OA
ATOM     84  C   UNL     1       3.210   4.615  30.484  0.00  0.00    +0.109 C 
ENDBRANCH  79  80
BRANCH  79  85
ATOM     85  C   UNL     1       7.389   6.988  29.798  0.00  0.00    +0.067 C 
BRANCH  85  86
ATOM     86  C   UNL     1       8.794   7.068  29.248  0.00  0.00    -0.045 A 
ATOM     87  C   UNL     1       9.013   7.098  27.866  0.00  0.00    +0.004 A 
ATOM     88  C   UNL     1      10.307   7.088  27.356  0.00  0.00    +0.009 A 
ATOM     89  C   UNL     1      11.413   7.080  28.216  0.00  0.00    -0.018 A 
ATOM     90  C   UNL     1      11.207   7.075  29.614  0.00  0.00    -0.018 A 
ATOM     91  C   UNL     1      12.319   7.077  30.471  0.00  0.00    +0.008 A 
ATOM     92  C   UNL     1      13.615   7.097  29.955  0.00  0.00    +0.001 A 
ATOM     93  C   UNL     1      13.815   7.100  28.577  0.00  0.00    +0.001 A 
ATOM     94  C   UNL     1      12.721   7.084  27.713  0.00  0.00    +0.008 A 
ATOM     95  C   UNL     1       9.895   7.068  30.115  0.00  0.00    +0.012 A 
ENDBRANCH  85  86
ENDBRANCH  79  85
ENDBRANCH  77  79
ENDBRANCH  74  75
BRANCH  74  96
ATOM     96  C   UNL     1       7.144   5.997  24.992  0.00  0.00    +0.067 C 
BRANCH  96  97
ATOM     97  C   UNL     1       8.563   5.949  24.519  0.00  0.00    -0.045 A 
ATOM     98  C   UNL     1       9.080   4.742  24.034  0.00  0.00    +0.005 A 
ATOM     99  C   UNL     1      10.426   4.654  23.645  0.00  0.00    +0.020 A 
ATOM    100  C   UNL     1      11.207   5.786  23.684  0.00  0.00    +0.041 A 
ATOM    101 CL   UNL     1      12.853   5.674  23.200  0.00  0.00    -0.084 Cl
ATOM    102  C   UNL     1      10.713   6.989  24.183  0.00  0.00    +0.020 A 
ATOM    103  C   UNL     1       9.389   7.082  24.595  0.00  0.00    +0.005 A 
ENDBRANCH  96  97
ENDBRANCH  74  96
ENDBRANCH  72  74
ENDBRANCH  69  70
BRANCH  69 104
ATOM    104  C   UNL     1       2.335   5.959  23.959  0.00  0.00    +0.068 C 
BRANCH 104 105
ATOM    105  C   UNL     1       2.113   6.009  25.459  0.00  0.00    -0.027 A 
ATOM    106  C   UNL     1       2.737   6.970  26.267  0.00  0.00    +0.006 A 
ATOM    107  C   UNL     1       2.404   7.089  27.616  0.00  0.00    +0.020 A 
ATOM    108  C   UNL     1       1.537   6.160  28.157  0.00  0.00    +0.111 A 
ATOM    109  N   UNL     1       1.031   5.132  27.451  0.00  0.00    -0.263 NA
ATOM    110  C   UNL     1       1.357   5.065  26.140  0.00  0.00    +0.114 A 
ENDBRANCH 104 105
ENDBRANCH  69 104
ENDBRANCH  67  69
ENDBRANCH  64  65
BRANCH  64 111
ATOM    111  C   UNL     1       6.719   1.456  23.238  0.00  0.00    +0.187 C 
BRANCH 111 112
ATOM    112  O   UNL     1       7.329   0.341  22.612  0.00  0.00    -0.393 OA
ATOM    113  H   UNL     1       8.280   0.420  22.816  0.00  0.00    +0.209 HD
ENDBRANCH 111 112
ENDBRANCH  64 111
ENDBRANCH  62  64
ENDBRANCH   1  60
BRANCH   1 114
ATOM    114  C   UNL     1       2.561  -2.073  25.964  0.00  0.00    +0.067 C 
BRANCH 114 115
ATOM    115  C   UNL     1       2.069  -2.795  27.210  0.00  0.00    -0.045 A 
ATOM    116  C   UNL     1       0.886  -3.549  27.158  0.00  0.00    +0.007 A 
ATOM    117  C   UNL     1       0.456  -4.285  28.263  0.00  0.00    +0.045 A 
ATOM    118  C   UNL     1       1.199  -4.257  29.434  0.00  0.00    +0.117 A 
ATOM    119  C   UNL     1       2.359  -3.492  29.522  0.00  0.00    +0.045 A 
ATOM    120  C   UNL     1       2.795  -2.765  28.408  0.00  0.00    +0.007 A 
BRANCH 118 121
ATOM    121  O   UNL     1       0.756  -5.006  30.483  0.00  0.00    -0.507 OA
ATOM    122  H   UNL     1       1.524  -5.388  30.937  0.00  0.00    +0.292 HD
ENDBRANCH 118 121
ENDBRANCH 114 115
ENDBRANCH   1 114
TORSDOF 40
ENDMDL
