MODEL 1
REMARK VINA RESULT:      -6.6      0.000      0.000
REMARK  Name = 
REMARK  5 active torsions:
REMARK  status: ('A' for Active; 'I' for Inactive)
REMARK    1  A    between atoms: N9_10  and  C1*_11
REMARK    2  A    between atoms: C4*_14  and  C5*_16
REMARK    3  A    between atoms: C5*_16  and  O5*_17
REMARK    4  A    between atoms: C3*_18  and  O3*_20
REMARK    5  A    between atoms: C2*_21  and  O2*_23
REMARK                            x       y       z     vdW  Elec       q    Type
REMARK                         _______ _______ _______ _____ _____    ______ ____
ROOT
ATOM      1  N6    A A   1       9.639  -5.985  25.610  0.00  0.00    -0.341 N 
ATOM      2  H61   A A   1      10.478  -5.944  25.042  0.00  0.00    +0.144 HD
ATOM      3  H62   A A   1       9.222  -6.892  25.769  0.00  0.00    +0.144 HD
ATOM      4  C6    A A   1       8.690  -5.035  25.254  0.00  0.00    +0.147 A 
ATOM      5  C5    A A   1       9.002  -3.858  24.551  0.00  0.00    +0.147 A 
ATOM      6  N7    A A   1      10.186  -3.367  24.043  0.00  0.00    -0.231 NA
ATOM      7  C8    A A   1       9.855  -2.228  23.475  0.00  0.00    +0.203 A 
ATOM      8  N9    A A   1       8.520  -1.934  23.627  0.00  0.00    -0.286 N 
ATOM      9  C4    A A   1       7.949  -3.003  24.265  0.00  0.00    +0.167 A 
ATOM     10  N3    A A   1       6.655  -3.197  24.560  0.00  0.00    -0.216 NA
ATOM     11  C2    A A   1       6.475  -4.352  25.230  0.00  0.00    +0.225 A 
ATOM     12  N1    A A   1       7.400  -5.269  25.582  0.00  0.00    -0.219 NA
ENDROOT
BRANCH   8  13
ATOM     13  C1*   A A   1       7.856  -0.767  23.081  0.00  0.00    +0.253 C 
ATOM     14  C2*   A A   1       7.147   0.204  24.036  0.00  0.00    +0.195 C 
ATOM     15  C3*   A A   1       8.205   1.252  24.386  0.00  0.00    +0.178 C 
ATOM     16  C4*   A A   1       9.366   0.943  23.440  0.00  0.00    +0.177 C 
ATOM     17  O4*   A A   1       8.849   0.070  22.421  0.00  0.00    -0.346 OA
BRANCH  14  18
ATOM     18  O2*   A A   1       6.062   0.855  23.335  0.00  0.00    -0.385 OA
ATOM     19  H2*   A A   1       6.038   0.514  22.423  0.00  0.00    +0.210 HD
ENDBRANCH  14  18
BRANCH  15  20
ATOM     20  O3*   A A   1       8.625   1.133  25.741  0.00  0.00    -0.386 OA
ATOM     21  H3*   A A   1       8.695   0.177  25.928  0.00  0.00    +0.210 HD
ENDBRANCH  15  20
BRANCH  16  22
ATOM     22  C5*   A A   1       9.977   2.198  22.824  0.00  0.00    +0.190 C 
BRANCH  22  23
ATOM     23  O5*   A A   1       9.799   2.197  21.412  0.00  0.00    -0.392 OA
ATOM     24  H5*   A A   1       9.661   3.122  21.134  0.00  0.00    +0.210 HD
ENDBRANCH  22  23
ENDBRANCH  16  22
ENDBRANCH   8  13
TORSDOF 5
ENDMDL
MODEL 2
REMARK VINA RESULT:      -6.5      3.261      5.653
REMARK  Name = 
REMARK  5 active torsions:
REMARK  status: ('A' for Active; 'I' for Inactive)
REMARK    1  A    between atoms: N9_10  and  C1*_11
REMARK    2  A    between atoms: C4*_14  and  C5*_16
REMARK    3  A    between atoms: C5*_16  and  O5*_17
REMARK    4  A    between atoms: C3*_18  and  O3*_20
REMARK    5  A    between atoms: C2*_21  and  O2*_23
REMARK                            x       y       z     vdW  Elec       q    Type
REMARK                         _______ _______ _______ _____ _____    ______ ____
ROOT
ATOM      1  N6    A A   1       9.911   1.858  21.485  0.00  0.00    -0.341 N 
ATOM      2  H61   A A   1      10.849   1.588  21.761  0.00  0.00    +0.144 HD
ATOM      3  H62   A A   1       9.672   2.839  21.528  0.00  0.00    +0.144 HD
ATOM      4  C6    A A   1       8.923   1.059  22.048  0.00  0.00    +0.147 A 
ATOM      5  C5    A A   1       9.163  -0.238  22.534  0.00  0.00    +0.147 A 
ATOM      6  N7    A A   1      10.308  -1.001  22.614  0.00  0.00    -0.231 NA
ATOM      7  C8    A A   1       9.917  -2.126  23.174  0.00  0.00    +0.203 A 
ATOM      8  N9    A A   1       8.564  -2.146  23.421  0.00  0.00    -0.286 N 
ATOM      9  C4    A A   1       8.078  -0.915  23.070  0.00  0.00    +0.167 A 
ATOM     10  N3    A A   1       6.828  -0.449  23.204  0.00  0.00    -0.216 NA
ATOM     11  C2    A A   1       6.716   0.799  22.707  0.00  0.00    +0.225 A 
ATOM     12  N1    A A   1       7.675   1.569  22.153  0.00  0.00    -0.219 NA
ENDROOT
BRANCH   8  13
ATOM     13  C1*   A A   1       7.850  -3.233  24.062  0.00  0.00    +0.253 C 
ATOM     14  C2*   A A   1       6.315  -3.207  24.084  0.00  0.00    +0.195 C 
ATOM     15  C3*   A A   1       5.891  -3.971  22.830  0.00  0.00    +0.178 C 
ATOM     16  C4*   A A   1       7.193  -4.573  22.299  0.00  0.00    +0.177 C 
ATOM     17  O4*   A A   1       8.158  -4.472  23.360  0.00  0.00    -0.346 OA
BRANCH  14  18
ATOM     18  O2*   A A   1       5.843  -3.926  25.248  0.00  0.00    -0.385 OA
ATOM     19  H2*   A A   1       5.137  -4.535  24.967  0.00  0.00    +0.210 HD
ENDBRANCH  14  18
BRANCH  15  20
ATOM     20  O3*   A A   1       5.318  -3.100  21.860  0.00  0.00    -0.386 OA
ATOM     21  H3*   A A   1       5.519  -3.484  20.986  0.00  0.00    +0.210 HD
ENDBRANCH  15  20
BRANCH  16  22
ATOM     22  C5*   A A   1       7.033  -6.020  21.843  0.00  0.00    +0.190 C 
BRANCH  22  23
ATOM     23  O5*   A A   1       5.682  -6.282  21.481  0.00  0.00    -0.392 OA
ATOM     24  H5*   A A   1       5.531  -7.239  21.590  0.00  0.00    +0.210 HD
ENDBRANCH  22  23
ENDBRANCH  16  22
ENDBRANCH   8  13
TORSDOF 5
ENDMDL
MODEL 3
REMARK VINA RESULT:      -6.5      3.161      5.680
REMARK  Name = 
REMARK  5 active torsions:
REMARK  status: ('A' for Active; 'I' for Inactive)
REMARK    1  A    between atoms: N9_10  and  C1*_11
REMARK    2  A    between atoms: C4*_14  and  C5*_16
REMARK    3  A    between atoms: C5*_16  and  O5*_17
REMARK    4  A    between atoms: C3*_18  and  O3*_20
REMARK    5  A    between atoms: C2*_21  and  O2*_23
REMARK                            x       y       z     vdW  Elec       q    Type
REMARK                         _______ _______ _______ _____ _____    ______ ____
ROOT
ATOM      1  N6    A A   1      10.121   2.246  21.635  0.00  0.00    -0.341 N 
ATOM      2  H61   A A   1      11.003   1.764  21.766  0.00  0.00    +0.144 HD
ATOM      3  H62   A A   1      10.067   3.215  21.918  0.00  0.00    +0.144 HD
ATOM      4  C6    A A   1       9.026   1.515  22.081  0.00  0.00    +0.147 A 
ATOM      5  C5    A A   1       9.044   0.118  22.241  0.00  0.00    +0.147 A 
ATOM      6  N7    A A   1      10.032  -0.824  22.053  0.00  0.00    -0.231 NA
ATOM      7  C8    A A   1       9.464  -1.967  22.373  0.00  0.00    +0.203 A 
ATOM      8  N9    A A   1       8.142  -1.816  22.719  0.00  0.00    -0.286 N 
ATOM      9  C4    A A   1       7.875  -0.474  22.696  0.00  0.00    +0.167 A 
ATOM     10  N3    A A   1       6.738   0.152  23.034  0.00  0.00    -0.216 NA
ATOM     11  C2    A A   1       6.837   1.482  22.842  0.00  0.00    +0.225 A 
ATOM     12  N1    A A   1       7.898   2.189  22.400  0.00  0.00    -0.219 NA
ENDROOT
BRANCH   8  13
ATOM     13  C1*   A A   1       7.267  -2.888  23.153  0.00  0.00    +0.253 C 
ATOM     14  C2*   A A   1       7.805  -4.326  23.179  0.00  0.00    +0.195 C 
ATOM     15  C3*   A A   1       8.356  -4.513  24.592  0.00  0.00    +0.178 C 
ATOM     16  C4*   A A   1       7.898  -3.262  25.343  0.00  0.00    +0.177 C 
ATOM     17  O4*   A A   1       6.880  -2.646  24.536  0.00  0.00    -0.346 OA
BRANCH  14  18
ATOM     18  O2*   A A   1       6.708  -5.249  22.982  0.00  0.00    -0.385 OA
ATOM     19  H2*   A A   1       7.077  -6.119  22.749  0.00  0.00    +0.210 HD
ENDBRANCH  14  18
BRANCH  15  20
ATOM     20  O3*   A A   1       9.778  -4.594  24.588  0.00  0.00    -0.386 OA
ATOM     21  H3*   A A   1      10.106  -3.765  24.987  0.00  0.00    +0.210 HD
ENDBRANCH  15  20
BRANCH  16  22
ATOM     22  C5*   A A   1       7.374  -3.570  26.741  0.00  0.00    +0.190 C 
BRANCH  22  23
ATOM     23  O5*   A A   1       7.911  -4.800  27.216  0.00  0.00    -0.392 OA
ATOM     24  H5*   A A   1       7.371  -5.080  27.977  0.00  0.00    +0.210 HD
ENDBRANCH  22  23
ENDBRANCH  16  22
ENDBRANCH   8  13
TORSDOF 5
ENDMDL
MODEL 4
REMARK VINA RESULT:      -6.4      3.474      6.080
REMARK  Name = 
REMARK  5 active torsions:
REMARK  status: ('A' for Active; 'I' for Inactive)
REMARK    1  A    between atoms: N9_10  and  C1*_11
REMARK    2  A    between atoms: C4*_14  and  C5*_16
REMARK    3  A    between atoms: C5*_16  and  O5*_17
REMARK    4  A    between atoms: C3*_18  and  O3*_20
REMARK    5  A    between atoms: C2*_21  and  O2*_23
REMARK                            x       y       z     vdW  Elec       q    Type
REMARK                         _______ _______ _______ _____ _____    ______ ____
ROOT
ATOM      1  N6    A A   1       9.229   2.129  24.870  0.00  0.00    -0.341 N 
ATOM      2  H61   A A   1       8.587   2.097  25.654  0.00  0.00    +0.144 HD
ATOM      3  H62   A A   1       9.106   2.866  24.189  0.00  0.00    +0.144 HD
ATOM      4  C6    A A   1       9.416   0.892  24.265  0.00  0.00    +0.147 A 
ATOM      5  C5    A A   1       9.161  -0.330  24.912  0.00  0.00    +0.147 A 
ATOM      6  N7    A A   1       8.684  -0.632  26.169  0.00  0.00    -0.231 NA
ATOM      7  C8    A A   1       8.645  -1.947  26.202  0.00  0.00    +0.203 A 
ATOM      8  N9    A A   1       9.114  -2.514  25.040  0.00  0.00    -0.286 N 
ATOM      9  C4    A A   1       9.393  -1.485  24.180  0.00  0.00    +0.167 A 
ATOM     10  N3    A A   1       9.804  -1.558  22.906  0.00  0.00    -0.216 NA
ATOM     11  C2    A A   1      10.015  -0.332  22.389  0.00  0.00    +0.225 A 
ATOM     12  N1    A A   1       9.842   0.868  22.982  0.00  0.00    -0.219 NA
ENDROOT
BRANCH   8  13
ATOM     13  C1*   A A   1       9.160  -3.937  24.767  0.00  0.00    +0.253 C 
ATOM     14  C2*   A A   1       9.214  -4.922  25.944  0.00  0.00    +0.195 C 
ATOM     15  C3*   A A   1       7.753  -5.257  26.241  0.00  0.00    +0.178 C 
ATOM     16  C4*   A A   1       6.980  -4.629  25.081  0.00  0.00    +0.177 C 
ATOM     17  O4*   A A   1       7.944  -4.318  24.061  0.00  0.00    -0.346 OA
BRANCH  14  18
ATOM     18  O2*   A A   1       9.893  -6.128  25.525  0.00  0.00    -0.385 OA
ATOM     19  H2*   A A   1       9.791  -6.797  26.226  0.00  0.00    +0.210 HD
ENDBRANCH  14  18
BRANCH  15  20
ATOM     20  O3*   A A   1       7.331  -4.694  27.479  0.00  0.00    -0.386 OA
ATOM     21  H3*   A A   1       6.582  -5.236  27.791  0.00  0.00    +0.210 HD
ENDBRANCH  15  20
BRANCH  16  22
ATOM     22  C5*   A A   1       5.884  -5.540  24.536  0.00  0.00    +0.190 C 
BRANCH  22  23
ATOM     23  O5*   A A   1       5.357  -6.360  25.573  0.00  0.00    -0.392 OA
ATOM     24  H5*   A A   1       5.759  -6.066  26.411  0.00  0.00    +0.210 HD
ENDBRANCH  22  23
ENDBRANCH  16  22
ENDBRANCH   8  13
TORSDOF 5
ENDMDL
MODEL 5
REMARK VINA RESULT:      -6.4      1.665      2.941
REMARK  Name = 
REMARK  5 active torsions:
REMARK  status: ('A' for Active; 'I' for Inactive)
REMARK    1  A    between atoms: N9_10  and  C1*_11
REMARK    2  A    between atoms: C4*_14  and  C5*_16
REMARK    3  A    between atoms: C5*_16  and  O5*_17
REMARK    4  A    between atoms: C3*_18  and  O3*_20
REMARK    5  A    between atoms: C2*_21  and  O2*_23
REMARK                            x       y       z     vdW  Elec       q    Type
REMARK                         _______ _______ _______ _____ _____    ______ ____
ROOT
ATOM      1  N6    A A   1       5.533  -6.387  26.079  0.00  0.00    -0.341 N 
ATOM      2  H61   A A   1       4.729  -6.041  25.567  0.00  0.00    +0.144 HD
ATOM      3  H62   A A   1       5.398  -6.655  27.044  0.00  0.00    +0.144 HD
ATOM      4  C6    A A   1       6.668  -5.602  25.914  0.00  0.00    +0.147 A 
ATOM      5  C5    A A   1       6.853  -4.733  24.824  0.00  0.00    +0.147 A 
ATOM      6  N7    A A   1       6.057  -4.418  23.743  0.00  0.00    -0.231 NA
ATOM      7  C8    A A   1       6.756  -3.534  23.064  0.00  0.00    +0.203 A 
ATOM      8  N9    A A   1       7.986  -3.292  23.631  0.00  0.00    -0.286 N 
ATOM      9  C4    A A   1       8.036  -4.011  24.794  0.00  0.00    +0.167 A 
ATOM     10  N3    A A   1       9.010  -4.029  25.716  0.00  0.00    -0.216 NA
ATOM     11  C2    A A   1       8.726  -4.893  26.711  0.00  0.00    +0.225 A 
ATOM     12  N1    A A   1       7.627  -5.661  26.864  0.00  0.00    -0.219 NA
ENDROOT
BRANCH   8  13
ATOM     13  C1*   A A   1       8.961  -2.342  23.130  0.00  0.00    +0.253 C 
ATOM     14  C2*   A A   1       8.541  -1.348  22.037  0.00  0.00    +0.195 C 
ATOM     15  C3*   A A   1       8.064  -0.110  22.796  0.00  0.00    +0.178 C 
ATOM     16  C4*   A A   1       8.450  -0.388  24.249  0.00  0.00    +0.177 C 
ATOM     17  O4*   A A   1       9.383  -1.482  24.227  0.00  0.00    -0.346 OA
BRANCH  14  18
ATOM     18  O2*   A A   1       9.700  -0.991  21.248  0.00  0.00    -0.385 OA
ATOM     19  H2*   A A   1       9.418  -0.369  20.553  0.00  0.00    +0.210 HD
ENDBRANCH  14  18
BRANCH  15  20
ATOM     20  O3*   A A   1       6.654   0.057  22.683  0.00  0.00    -0.386 OA
ATOM     21  H3*   A A   1       6.473   0.272  21.748  0.00  0.00    +0.210 HD
ENDBRANCH  15  20
BRANCH  16  22
ATOM     22  C5*   A A   1       9.054   0.829  24.944  0.00  0.00    +0.190 C 
BRANCH  22  23
ATOM     23  O5*   A A   1      10.397   0.564  25.334  0.00  0.00    -0.392 OA
ATOM     24  H5*   A A   1      10.649  -0.296  24.950  0.00  0.00    +0.210 HD
ENDBRANCH  22  23
ENDBRANCH  16  22
ENDBRANCH   8  13
TORSDOF 5
ENDMDL
MODEL 6
REMARK VINA RESULT:      -6.3      1.639      2.832
REMARK  Name = 
REMARK  5 active torsions:
REMARK  status: ('A' for Active; 'I' for Inactive)
REMARK    1  A    between atoms: N9_10  and  C1*_11
REMARK    2  A    between atoms: C4*_14  and  C5*_16
REMARK    3  A    between atoms: C5*_16  and  O5*_17
REMARK    4  A    between atoms: C3*_18  and  O3*_20
REMARK    5  A    between atoms: C2*_21  and  O2*_23
REMARK                            x       y       z     vdW  Elec       q    Type
REMARK                         _______ _______ _______ _____ _____    ______ ____
ROOT
ATOM      1  N6    A A   1       5.520  -6.028  24.859  0.00  0.00    -0.341 N 
ATOM      2  H61   A A   1       4.715  -5.572  24.445  0.00  0.00    +0.144 HD
ATOM      3  H62   A A   1       5.353  -6.716  25.580  0.00  0.00    +0.144 HD
ATOM      4  C6    A A   1       6.529  -5.140  25.214  0.00  0.00    +0.147 A 
ATOM      5  C5    A A   1       6.662  -3.858  24.653  0.00  0.00    +0.147 A 
ATOM      6  N7    A A   1       5.914  -3.172  23.721  0.00  0.00    -0.231 NA
ATOM      7  C8    A A   1       6.518  -2.009  23.603  0.00  0.00    +0.203 A 
ATOM      8  N9    A A   1       7.648  -1.924  24.383  0.00  0.00    -0.286 N 
ATOM      9  C4    A A   1       7.718  -3.083  25.108  0.00  0.00    +0.167 A 
ATOM     10  N3    A A   1       8.608  -3.417  26.054  0.00  0.00    -0.216 NA
ATOM     11  C2    A A   1       8.384  -4.662  26.519  0.00  0.00    +0.225 A 
ATOM     12  N1    A A   1       7.409  -5.525  26.165  0.00  0.00    -0.219 NA
ENDROOT
BRANCH   8  13
ATOM     13  C1*   A A   1       8.500  -0.756  24.491  0.00  0.00    +0.253 C 
ATOM     14  C2*   A A   1       9.977  -0.870  24.086  0.00  0.00    +0.195 C 
ATOM     15  C3*   A A   1      10.011  -0.477  22.610  0.00  0.00    +0.178 C 
ATOM     16  C4*   A A   1       8.604   0.051  22.329  0.00  0.00    +0.177 C 
ATOM     17  O4*   A A   1       7.986   0.281  23.607  0.00  0.00    -0.346 OA
BRANCH  14  18
ATOM     18  O2*   A A   1      10.753   0.089  24.842  0.00  0.00    -0.385 OA
ATOM     19  H2*   A A   1      10.306   0.243  25.694  0.00  0.00    +0.210 HD
ENDBRANCH  14  18
BRANCH  15  20
ATOM     20  O3*   A A   1      10.294  -1.599  21.780  0.00  0.00    -0.386 OA
ATOM     21  H3*   A A   1       9.448  -2.069  21.649  0.00  0.00    +0.210 HD
ENDBRANCH  15  20
BRANCH  16  22
ATOM     22  C5*   A A   1       8.604   1.322  21.486  0.00  0.00    +0.190 C 
BRANCH  22  23
ATOM     23  O5*   A A   1       9.881   1.949  21.531  0.00  0.00    -0.392 OA
ATOM     24  H5*   A A   1       9.769   2.865  21.216  0.00  0.00    +0.210 HD
ENDBRANCH  22  23
ENDBRANCH  16  22
ENDBRANCH   8  13
TORSDOF 5
ENDMDL
MODEL 7
REMARK VINA RESULT:      -6.2      2.052      3.324
REMARK  Name = 
REMARK  5 active torsions:
REMARK  status: ('A' for Active; 'I' for Inactive)
REMARK    1  A    between atoms: N9_10  and  C1*_11
REMARK    2  A    between atoms: C4*_14  and  C5*_16
REMARK    3  A    between atoms: C5*_16  and  O5*_17
REMARK    4  A    between atoms: C3*_18  and  O3*_20
REMARK    5  A    between atoms: C2*_21  and  O2*_23
REMARK                            x       y       z     vdW  Elec       q    Type
REMARK                         _______ _______ _______ _____ _____    ______ ____
ROOT
ATOM      1  N6    A A   1       4.786  -6.500  24.440  0.00  0.00    -0.341 N 
ATOM      2  H61   A A   1       5.369  -7.019  25.087  0.00  0.00    +0.144 HD
ATOM      3  H62   A A   1       4.152  -7.024  23.853  0.00  0.00    +0.144 HD
ATOM      4  C6    A A   1       5.487  -5.541  23.719  0.00  0.00    +0.147 A 
ATOM      5  C5    A A   1       6.714  -5.002  24.142  0.00  0.00    +0.147 A 
ATOM      6  N7    A A   1       7.505  -5.248  25.245  0.00  0.00    -0.231 NA
ATOM      7  C8    A A   1       8.539  -4.449  25.095  0.00  0.00    +0.203 A 
ATOM      8  N9    A A   1       8.437  -3.665  23.969  0.00  0.00    -0.286 N 
ATOM      9  C4    A A   1       7.298  -4.053  23.316  0.00  0.00    +0.167 A 
ATOM     10  N3    A A   1       6.830  -3.620  22.137  0.00  0.00    -0.216 NA
ATOM     11  C2    A A   1       5.654  -4.203  21.833  0.00  0.00    +0.225 A 
ATOM     12  N1    A A   1       4.971  -5.128  22.540  0.00  0.00    -0.219 NA
ENDROOT
BRANCH   8  13
ATOM     13  C1*   A A   1       9.438  -2.715  23.522  0.00  0.00    +0.253 C 
ATOM     14  C2*   A A   1       9.135  -1.830  22.304  0.00  0.00    +0.195 C 
ATOM     15  C3*   A A   1       8.519  -0.559  22.889  0.00  0.00    +0.178 C 
ATOM     16  C4*   A A   1       8.717  -0.704  24.397  0.00  0.00    +0.177 C 
ATOM     17  O4*   A A   1       9.680  -1.754  24.589  0.00  0.00    -0.346 OA
BRANCH  14  18
ATOM     18  O2*   A A   1      10.375  -1.485  21.645  0.00  0.00    -0.385 OA
ATOM     19  H2*   A A   1      10.190  -1.336  20.701  0.00  0.00    +0.210 HD
ENDBRANCH  14  18
BRANCH  15  20
ATOM     20  O3*   A A   1       7.132  -0.464  22.579  0.00  0.00    -0.386 OA
ATOM     21  H3*   A A   1       6.685  -0.159  23.391  0.00  0.00    +0.210 HD
ENDBRANCH  15  20
BRANCH  16  22
ATOM     22  C5*   A A   1       9.181   0.589  25.061  0.00  0.00    +0.190 C 
BRANCH  22  23
ATOM     23  O5*   A A   1      10.576   0.534  25.338  0.00  0.00    -0.392 OA
ATOM     24  H5*   A A   1      10.949  -0.200  24.815  0.00  0.00    +0.210 HD
ENDBRANCH  22  23
ENDBRANCH  16  22
ENDBRANCH   8  13
TORSDOF 5
ENDMDL
MODEL 8
REMARK VINA RESULT:      -6.0      2.247      3.150
REMARK  Name = 
REMARK  5 active torsions:
REMARK  status: ('A' for Active; 'I' for Inactive)
REMARK    1  A    between atoms: N9_10  and  C1*_11
REMARK    2  A    between atoms: C4*_14  and  C5*_16
REMARK    3  A    between atoms: C5*_16  and  O5*_17
REMARK    4  A    between atoms: C3*_18  and  O3*_20
REMARK    5  A    between atoms: C2*_21  and  O2*_23
REMARK                            x       y       z     vdW  Elec       q    Type
REMARK                         _______ _______ _______ _____ _____    ______ ____
ROOT
ATOM      1  N6    A A   1       4.607  -6.007  22.523  0.00  0.00    -0.341 N 
ATOM      2  H61   A A   1       5.169  -6.132  21.688  0.00  0.00    +0.144 HD
ATOM      3  H62   A A   1       3.610  -6.157  22.447  0.00  0.00    +0.144 HD
ATOM      4  C6    A A   1       4.903  -4.837  23.212  0.00  0.00    +0.147 A 
ATOM      5  C5    A A   1       6.123  -4.152  23.081  0.00  0.00    +0.147 A 
ATOM      6  N7    A A   1       7.240  -4.387  22.308  0.00  0.00    -0.231 NA
ATOM      7  C8    A A   1       8.059  -3.399  22.601  0.00  0.00    +0.203 A 
ATOM      8  N9    A A   1       7.543  -2.557  23.559  0.00  0.00    -0.286 N 
ATOM      9  C4    A A   1       6.275  -2.996  23.832  0.00  0.00    +0.167 A 
ATOM     10  N3    A A   1       5.365  -2.444  24.647  0.00  0.00    -0.216 NA
ATOM     11  C2    A A   1       4.238  -3.183  24.694  0.00  0.00    +0.225 A 
ATOM     12  N1    A A   1       3.957  -4.324  24.030  0.00  0.00    -0.219 NA
ENDROOT
BRANCH   8  13
ATOM     13  C1*   A A   1       8.197  -1.363  24.059  0.00  0.00    +0.253 C 
ATOM     14  C2*   A A   1       9.714  -1.212  23.876  0.00  0.00    +0.195 C 
ATOM     15  C3*   A A   1       9.877  -0.470  22.550  0.00  0.00    +0.178 C 
ATOM     16  C4*   A A   1       8.455  -0.049  22.177  0.00  0.00    +0.177 C 
ATOM     17  O4*   A A   1       7.654  -0.206  23.361  0.00  0.00    -0.346 OA
BRANCH  14  18
ATOM     18  O2*   A A   1      10.241  -0.385  24.940  0.00  0.00    -0.385 OA
ATOM     19  H2*   A A   1      10.523  -0.966  25.669  0.00  0.00    +0.210 HD
ENDBRANCH  14  18
BRANCH  15  20
ATOM     20  O3*   A A   1      10.421  -1.318  21.544  0.00  0.00    -0.386 OA
ATOM     21  H3*   A A   1       9.830  -2.092  21.481  0.00  0.00    +0.210 HD
ENDBRANCH  15  20
BRANCH  16  22
ATOM     22  C5*   A A   1       8.378   1.381  21.652  0.00  0.00    +0.190 C 
BRANCH  22  23
ATOM     23  O5*   A A   1       9.682   1.883  21.383  0.00  0.00    -0.392 OA
ATOM     24  H5*   A A   1      10.285   1.118  21.329  0.00  0.00    +0.210 HD
ENDBRANCH  22  23
ENDBRANCH  16  22
ENDBRANCH   8  13
TORSDOF 5
ENDMDL
MODEL 9
REMARK VINA RESULT:      -6.0      1.647      2.705
REMARK  Name = 
REMARK  5 active torsions:
REMARK  status: ('A' for Active; 'I' for Inactive)
REMARK    1  A    between atoms: N9_10  and  C1*_11
REMARK    2  A    between atoms: C4*_14  and  C5*_16
REMARK    3  A    between atoms: C5*_16  and  O5*_17
REMARK    4  A    between atoms: C3*_18  and  O3*_20
REMARK    5  A    between atoms: C2*_21  and  O2*_23
REMARK                            x       y       z     vdW  Elec       q    Type
REMARK                         _______ _______ _______ _____ _____    ______ ____
ROOT
ATOM      1  N6    A A   1       6.493  -4.626  27.824  0.00  0.00    -0.341 N 
ATOM      2  H61   A A   1       6.427  -3.780  28.379  0.00  0.00    +0.144 HD
ATOM      3  H62   A A   1       6.567  -5.507  28.314  0.00  0.00    +0.144 HD
ATOM      4  C6    A A   1       7.415  -4.532  26.788  0.00  0.00    +0.147 A 
ATOM      5  C5    A A   1       7.851  -3.307  26.252  0.00  0.00    +0.147 A 
ATOM      6  N7    A A   1       7.554  -1.999  26.568  0.00  0.00    -0.231 NA
ATOM      7  C8    A A   1       8.275  -1.285  25.731  0.00  0.00    +0.203 A 
ATOM      8  N9    A A   1       8.994  -2.068  24.858  0.00  0.00    -0.286 N 
ATOM      9  C4    A A   1       8.777  -3.370  25.221  0.00  0.00    +0.167 A 
ATOM     10  N3    A A   1       9.326  -4.478  24.704  0.00  0.00    -0.216 NA
ATOM     11  C2    A A   1       8.837  -5.588  25.293  0.00  0.00    +0.225 A 
ATOM     12  N1    A A   1       7.935  -5.677  26.292  0.00  0.00    -0.219 NA
ENDROOT
BRANCH   8  13
ATOM     13  C1*   A A   1       9.905  -1.569  23.846  0.00  0.00    +0.253 C 
ATOM     14  C2*   A A   1       9.369  -1.281  22.436  0.00  0.00    +0.195 C 
ATOM     15  C3*   A A   1       8.958   0.191  22.467  0.00  0.00    +0.178 C 
ATOM     16  C4*   A A   1       9.490   0.702  23.806  0.00  0.00    +0.177 C 
ATOM     17  O4*   A A   1      10.426  -0.280  24.281  0.00  0.00    -0.346 OA
BRANCH  14  18
ATOM     18  O2*   A A   1      10.440  -1.445  21.477  0.00  0.00    -0.385 OA
ATOM     19  H2*   A A   1      10.790  -2.351  21.560  0.00  0.00    +0.210 HD
ENDBRANCH  14  18
BRANCH  15  20
ATOM     20  O3*   A A   1       7.543   0.336  22.409  0.00  0.00    -0.386 OA
ATOM     21  H3*   A A   1       7.214   0.233  23.323  0.00  0.00    +0.210 HD
ENDBRANCH  15  20
BRANCH  16  22
ATOM     22  C5*   A A   1      10.149   2.074  23.697  0.00  0.00    +0.190 C 
BRANCH  22  23
ATOM     23  O5*   A A   1      10.313   2.440  22.331  0.00  0.00    -0.392 OA
ATOM     24  H5*   A A   1      10.694   1.672  21.866  0.00  0.00    +0.210 HD
ENDBRANCH  22  23
ENDBRANCH  16  22
ENDBRANCH   8  13
TORSDOF 5
ENDMDL
