MODEL 1
REMARK VINA RESULT:      -3.6      0.000      0.000
REMARK  Name = 
REMARK  1 active torsions:
REMARK  status: ('A' for Active; 'I' for Inactive)
REMARK    1  A    between atoms: N_1  and  C_2
REMARK                            x       y       z     vdW  Elec       q    Type
REMARK                         _______ _______ _______ _____ _____    ______ ____
ROOT
ATOM      1  C   UNL     1       7.924  -4.336  24.909  0.00  0.00    +0.168 C 
ATOM      2  C   UNL     1       8.343  -5.366  25.931  0.00  0.00    +0.255 C 
ATOM      3  O   UNL     1       7.653  -5.860  26.808  0.00  0.00    -0.272 OA
ATOM      4  N   UNL     1       9.655  -5.694  25.669  0.00  0.00    -0.193 N 
ATOM      5  H   UNL     1      10.231  -6.209  26.321  0.00  0.00    +0.182 HD
ATOM      6  O   UNL     1      10.250  -4.776  24.769  0.00  0.00    -0.278 OA
ATOM      7  C   UNL     1       9.290  -3.718  24.627  0.00  0.00    +0.218 C 
ENDROOT
BRANCH   1   8
ATOM      8  N   UNL     1       7.313  -4.992  23.735  0.00  0.00    -0.318 NA
ATOM      9  H   UNL     1       6.944  -5.902  24.005  0.00  0.00    +0.119 HD
ATOM     10  H   UNL     1       6.509  -4.438  23.435  0.00  0.00    +0.119 HD
ENDBRANCH   1   8
TORSDOF 1
ENDMDL
MODEL 2
REMARK VINA RESULT:      -3.4      1.858      2.453
REMARK  Name = 
REMARK  1 active torsions:
REMARK  status: ('A' for Active; 'I' for Inactive)
REMARK    1  A    between atoms: N_1  and  C_2
REMARK                            x       y       z     vdW  Elec       q    Type
REMARK                         _______ _______ _______ _____ _____    ______ ____
ROOT
ATOM      1  C   UNL     1       8.781  -4.645  25.134  0.00  0.00    +0.168 C 
ATOM      2  C   UNL     1       7.392  -5.233  25.069  0.00  0.00    +0.255 C 
ATOM      3  O   UNL     1       6.680  -5.338  24.083  0.00  0.00    -0.272 OA
ATOM      4  N   UNL     1       7.078  -5.685  26.332  0.00  0.00    -0.193 N 
ATOM      5  H   UNL     1       6.137  -5.940  26.604  0.00  0.00    +0.182 HD
ATOM      6  O   UNL     1       7.986  -5.191  27.301  0.00  0.00    -0.278 OA
ATOM      7  C   UNL     1       8.790  -4.229  26.601  0.00  0.00    +0.218 C 
ENDROOT
BRANCH   1   8
ATOM      8  N   UNL     1       9.792  -5.668  24.800  0.00  0.00    -0.318 NA
ATOM      9  H   UNL     1       9.906  -6.306  25.586  0.00  0.00    +0.119 HD
ATOM     10  H   UNL     1       9.439  -6.234  24.026  0.00  0.00    +0.119 HD
ENDBRANCH   1   8
TORSDOF 1
ENDMDL
MODEL 3
REMARK VINA RESULT:      -3.4      3.726      4.364
REMARK  Name = 
REMARK  1 active torsions:
REMARK  status: ('A' for Active; 'I' for Inactive)
REMARK    1  A    between atoms: N_1  and  C_2
REMARK                            x       y       z     vdW  Elec       q    Type
REMARK                         _______ _______ _______ _____ _____    ______ ____
ROOT
ATOM      1  C   UNL     1       9.070  -1.883  22.444  0.00  0.00    +0.168 C 
ATOM      2  C   UNL     1       9.670  -2.277  23.773  0.00  0.00    +0.255 C 
ATOM      3  O   UNL     1      10.102  -3.373  24.092  0.00  0.00    -0.272 OA
ATOM      4  N   UNL     1       9.691  -1.149  24.564  0.00  0.00    -0.193 N 
ATOM      5  H   UNL     1       9.859  -1.184  25.561  0.00  0.00    +0.182 HD
ATOM      6  O   UNL     1       8.894  -0.115  24.015  0.00  0.00    -0.278 OA
ATOM      7  C   UNL     1       8.198  -0.723  22.916  0.00  0.00    +0.218 C 
ENDROOT
BRANCH   1   8
ATOM      8  N   UNL     1      10.130  -1.483  21.496  0.00  0.00    -0.318 NA
ATOM      9  H   UNL     1      10.630  -2.310  21.175  0.00  0.00    +0.119 HD
ATOM     10  H   UNL     1       9.690  -1.079  20.668  0.00  0.00    +0.119 HD
ENDBRANCH   1   8
TORSDOF 1
ENDMDL
MODEL 4
REMARK VINA RESULT:      -3.3      1.561      2.721
REMARK  Name = 
REMARK  1 active torsions:
REMARK  status: ('A' for Active; 'I' for Inactive)
REMARK    1  A    between atoms: N_1  and  C_2
REMARK                            x       y       z     vdW  Elec       q    Type
REMARK                         _______ _______ _______ _____ _____    ______ ____
ROOT
ATOM      1  C   UNL     1       8.287  -4.506  26.430  0.00  0.00    +0.168 C 
ATOM      2  C   UNL     1       9.014  -4.849  25.152  0.00  0.00    +0.255 C 
ATOM      3  O   UNL     1      10.220  -4.942  24.990  0.00  0.00    -0.272 OA
ATOM      4  N   UNL     1       8.059  -5.091  24.189  0.00  0.00    -0.193 N 
ATOM      5  H   UNL     1       8.278  -5.147  23.203  0.00  0.00    +0.182 HD
ATOM      6  O   UNL     1       6.778  -4.654  24.607  0.00  0.00    -0.278 OA
ATOM      7  C   UNL     1       7.010  -3.932  25.825  0.00  0.00    +0.218 C 
ENDROOT
BRANCH   1   8
ATOM      8  N   UNL     1       8.068  -5.720  27.242  0.00  0.00    -0.318 NA
ATOM      9  H   UNL     1       7.700  -6.464  26.652  0.00  0.00    +0.119 HD
ATOM     10  H   UNL     1       8.972  -6.050  27.584  0.00  0.00    +0.119 HD
ENDBRANCH   1   8
TORSDOF 1
ENDMDL
MODEL 5
REMARK VINA RESULT:      -3.3      6.911      7.894
REMARK  Name = 
REMARK  1 active torsions:
REMARK  status: ('A' for Active; 'I' for Inactive)
REMARK    1  A    between atoms: N_1  and  C_2
REMARK                            x       y       z     vdW  Elec       q    Type
REMARK                         _______ _______ _______ _____ _____    ______ ____
ROOT
ATOM      1  C   UNL     1      10.083   1.737  24.121  0.00  0.00    +0.168 C 
ATOM      2  C   UNL     1      10.594   2.760  23.135  0.00  0.00    +0.255 C 
ATOM      3  O   UNL     1      11.211   3.783  23.385  0.00  0.00    -0.272 OA
ATOM      4  N   UNL     1      10.280   2.306  21.872  0.00  0.00    -0.193 N 
ATOM      5  H   UNL     1      10.334   2.894  21.051  0.00  0.00    +0.182 HD
ATOM      6  O   UNL     1       9.349   1.239  21.922  0.00  0.00    -0.278 OA
ATOM      7  C   UNL     1       8.933   1.170  23.294  0.00  0.00    +0.218 C 
ENDROOT
BRANCH   1   8
ATOM      8  N   UNL     1      11.135   0.749  24.434  0.00  0.00    -0.318 NA
ATOM      9  H   UNL     1      12.020   1.229  24.586  0.00  0.00    +0.119 HD
ATOM     10  H   UNL     1      10.903   0.297  25.320  0.00  0.00    +0.119 HD
ENDBRANCH   1   8
TORSDOF 1
ENDMDL
MODEL 6
REMARK VINA RESULT:      -3.3      7.044      7.904
REMARK  Name = 
REMARK  1 active torsions:
REMARK  status: ('A' for Active; 'I' for Inactive)
REMARK    1  A    between atoms: N_1  and  C_2
REMARK                            x       y       z     vdW  Elec       q    Type
REMARK                         _______ _______ _______ _____ _____    ______ ____
ROOT
ATOM      1  C   UNL     1       9.583   2.237  23.096  0.00  0.00    +0.168 C 
ATOM      2  C   UNL     1       8.518   2.283  22.026  0.00  0.00    +0.255 C 
ATOM      3  O   UNL     1       7.563   3.040  21.966  0.00  0.00    -0.272 OA
ATOM      4  N   UNL     1       8.843   1.333  21.082  0.00  0.00    -0.193 N 
ATOM      5  H   UNL     1       8.194   1.025  20.370  0.00  0.00    +0.182 HD
ATOM      6  O   UNL     1       9.845   0.451  21.557  0.00  0.00    -0.278 OA
ATOM      7  C   UNL     1      10.001   0.777  22.946  0.00  0.00    +0.218 C 
ENDROOT
BRANCH   1   8
ATOM      8  N   UNL     1      10.661   3.199  22.793  0.00  0.00    -0.318 NA
ATOM      9  H   UNL     1      10.775   3.842  23.574  0.00  0.00    +0.119 HD
ATOM     10  H   UNL     1      11.542   2.687  22.718  0.00  0.00    +0.119 HD
ENDBRANCH   1   8
TORSDOF 1
ENDMDL
MODEL 7
REMARK VINA RESULT:      -3.3      4.957      5.943
REMARK  Name = 
REMARK  1 active torsions:
REMARK  status: ('A' for Active; 'I' for Inactive)
REMARK    1  A    between atoms: N_1  and  C_2
REMARK                            x       y       z     vdW  Elec       q    Type
REMARK                         _______ _______ _______ _____ _____    ______ ____
ROOT
ATOM      1  C   UNL     1       9.635  -0.034  23.506  0.00  0.00    +0.168 C 
ATOM      2  C   UNL     1       9.530  -0.017  22.000  0.00  0.00    +0.255 C 
ATOM      3  O   UNL     1       8.996   0.833  21.306  0.00  0.00    -0.272 OA
ATOM      4  N   UNL     1      10.196  -1.128  21.530  0.00  0.00    -0.193 N 
ATOM      5  H   UNL     1      10.107  -1.456  20.577  0.00  0.00    +0.182 HD
ATOM      6  O   UNL     1      10.477  -2.045  22.573  0.00  0.00    -0.278 OA
ATOM      7  C   UNL     1       9.768  -1.539  23.715  0.00  0.00    +0.218 C 
ENDROOT
BRANCH   1   8
ATOM      8  N   UNL     1      10.814   0.736  23.951  0.00  0.00    -0.318 NA
ATOM      9  H   UNL     1      10.511   1.554  24.476  0.00  0.00    +0.119 HD
ATOM     10  H   UNL     1      11.349   0.162  24.606  0.00  0.00    +0.119 HD
ENDBRANCH   1   8
TORSDOF 1
ENDMDL
MODEL 8
REMARK VINA RESULT:      -3.2      1.774      2.749
REMARK  Name = 
REMARK  1 active torsions:
REMARK  status: ('A' for Active; 'I' for Inactive)
REMARK    1  A    between atoms: N_1  and  C_2
REMARK                            x       y       z     vdW  Elec       q    Type
REMARK                         _______ _______ _______ _____ _____    ______ ____
ROOT
ATOM      1  C   UNL     1       7.683  -3.774  25.787  0.00  0.00    +0.168 C 
ATOM      2  C   UNL     1       8.494  -5.031  25.573  0.00  0.00    +0.255 C 
ATOM      3  O   UNL     1       9.123  -5.342  24.574  0.00  0.00    -0.272 OA
ATOM      4  N   UNL     1       8.438  -5.759  26.741  0.00  0.00    -0.193 N 
ATOM      5  H   UNL     1       8.729  -6.726  26.796  0.00  0.00    +0.182 HD
ATOM      6  O   UNL     1       7.431  -5.271  27.610  0.00  0.00    -0.278 OA
ATOM      7  C   UNL     1       6.709  -4.302  26.835  0.00  0.00    +0.218 C 
ENDROOT
BRANCH   1   8
ATOM      8  N   UNL     1       8.546  -2.679  26.274  0.00  0.00    -0.318 NA
ATOM      9  H   UNL     1       8.194  -1.788  25.930  0.00  0.00    +0.119 HD
ATOM     10  H   UNL     1       8.476  -2.637  27.292  0.00  0.00    +0.119 HD
ENDBRANCH   1   8
TORSDOF 1
ENDMDL
MODEL 9
REMARK VINA RESULT:      -3.2      8.041      8.424
REMARK  Name = 
REMARK  1 active torsions:
REMARK  status: ('A' for Active; 'I' for Inactive)
REMARK    1  A    between atoms: N_1  and  C_2
REMARK                            x       y       z     vdW  Elec       q    Type
REMARK                         _______ _______ _______ _____ _____    ______ ____
ROOT
ATOM      1  C   UNL     1       8.372   3.147  23.059  0.00  0.00    +0.168 C 
ATOM      2  C   UNL     1       8.747   2.197  21.946  0.00  0.00    +0.255 C 
ATOM      3  O   UNL     1       7.990   1.556  21.235  0.00  0.00    -0.272 OA
ATOM      4  N   UNL     1      10.121   2.215  21.837  0.00  0.00    -0.193 N 
ATOM      5  H   UNL     1      10.636   1.526  21.306  0.00  0.00    +0.182 HD
ATOM      6  O   UNL     1      10.722   2.845  22.954  0.00  0.00    -0.278 OA
ATOM      7  C   UNL     1       9.650   3.053  23.886  0.00  0.00    +0.218 C 
ENDROOT
BRANCH   1   8
ATOM      8  N   UNL     1       8.109   4.496  22.521  0.00  0.00    -0.318 NA
ATOM      9  H   UNL     1       8.205   4.485  21.507  0.00  0.00    +0.119 HD
ATOM     10  H   UNL     1       7.135   4.738  22.710  0.00  0.00    +0.119 HD
ENDBRANCH   1   8
TORSDOF 1
ENDMDL
