MODEL 1
REMARK VINA RESULT:      -5.1      0.000      0.000
REMARK  Name = 
REMARK  12 active torsions:
REMARK  status: ('A' for Active; 'I' for Inactive)
REMARK    1  A    between atoms: C_2  and  C_3
REMARK    2  A    between atoms: C_2  and  N_8
REMARK    3  A    between atoms: C_2  and  C_16
REMARK    4  A    between atoms: C_3  and  C_4
REMARK    5  A    between atoms: C_4  and  O_6
REMARK    6  A    between atoms: O_6  and  C_7
REMARK    7  A    between atoms: C_9  and  O_11
REMARK    8  A    between atoms: O_11  and  C_12
REMARK    9  A    between atoms: C_12  and  C_13
REMARK   10  A    between atoms: C_12  and  C_14
REMARK   11  A    between atoms: C_12  and  C_15
REMARK   12  A    between atoms: C_16  and  C_17
REMARK                            x       y       z     vdW  Elec       q    Type
REMARK                         _______ _______ _______ _____ _____    ______ ____
ROOT
ATOM      1  C   UNL     1       7.578  -3.632  22.684  0.00  0.00    +0.153 C 
ENDROOT
BRANCH   1   2
ATOM      2  N   UNL     1       8.453  -2.806  23.507  0.00  0.00    -0.271 N 
ATOM      3  H   UNL     1       8.371  -2.826  24.517  0.00  0.00    +0.153 HD
ATOM      4  C   UNL     1       9.407  -2.019  22.949  0.00  0.00    +0.401 C 
ATOM      5  O   UNL     1       9.550  -1.900  21.741  0.00  0.00    -0.226 OA
BRANCH   4   6
ATOM      6  O   UNL     1      10.160  -1.417  23.906  0.00  0.00    -0.445 OA
BRANCH   6   7
ATOM      7  C   UNL     1       9.685  -0.173  24.494  0.00  0.00    +0.107 C 
ATOM      8  C   UNL     1       8.677   0.533  23.575  0.00  0.00    +0.055 C 
ATOM      9  C   UNL     1      10.909   0.745  24.631  0.00  0.00    +0.055 C 
ATOM     10  C   UNL     1       9.117  -0.423  25.899  0.00  0.00    +0.055 C 
ENDBRANCH   6   7
ENDBRANCH   4   6
ENDBRANCH   1   2
BRANCH   1  11
ATOM     11  C   UNL     1       6.167  -3.036  22.655  0.00  0.00    +0.151 C 
ATOM     12  O   UNL     1       5.402  -3.219  21.705  0.00  0.00    -0.296 OA
ATOM     13  C   UNL     1       5.739  -2.215  23.847  0.00  0.00    +0.088 C 
ENDBRANCH   1  11
BRANCH   1  14
ATOM     14  C   UNL     1       7.589  -5.096  23.109  0.00  0.00    +0.150 C 
BRANCH  14  15
ATOM     15  C   UNL     1       8.264  -5.266  24.440  0.00  0.00    +0.309 C 
ATOM     16  O   UNL     1       9.445  -5.560  24.563  0.00  0.00    -0.251 OA
BRANCH  15  17
ATOM     17  O   UNL     1       7.379  -5.088  25.454  0.00  0.00    -0.468 OA
ATOM     18  C   UNL     1       7.969  -5.060  26.753  0.00  0.00    +0.280 C 
ENDBRANCH  15  17
ENDBRANCH  14  15
ENDBRANCH   1  14
TORSDOF 7
ENDMDL
MODEL 2
REMARK VINA RESULT:      -5.1      1.373      2.019
REMARK  Name = 
REMARK  12 active torsions:
REMARK  status: ('A' for Active; 'I' for Inactive)
REMARK    1  A    between atoms: C_2  and  C_3
REMARK    2  A    between atoms: C_2  and  N_8
REMARK    3  A    between atoms: C_2  and  C_16
REMARK    4  A    between atoms: C_3  and  C_4
REMARK    5  A    between atoms: C_4  and  O_6
REMARK    6  A    between atoms: O_6  and  C_7
REMARK    7  A    between atoms: C_9  and  O_11
REMARK    8  A    between atoms: O_11  and  C_12
REMARK    9  A    between atoms: C_12  and  C_13
REMARK   10  A    between atoms: C_12  and  C_14
REMARK   11  A    between atoms: C_12  and  C_15
REMARK   12  A    between atoms: C_16  and  C_17
REMARK                            x       y       z     vdW  Elec       q    Type
REMARK                         _______ _______ _______ _____ _____    ______ ____
ROOT
ATOM      1  C   UNL     1       7.602  -3.685  22.837  0.00  0.00    +0.153 C 
ENDROOT
BRANCH   1   2
ATOM      2  N   UNL     1       7.506  -2.246  23.042  0.00  0.00    -0.271 N 
ATOM      3  H   UNL     1       6.813  -1.866  23.677  0.00  0.00    +0.153 HD
ATOM      4  C   UNL     1       8.351  -1.388  22.415  0.00  0.00    +0.401 C 
ATOM      5  O   UNL     1       9.188  -1.752  21.602  0.00  0.00    -0.226 OA
BRANCH   4   6
ATOM      6  O   UNL     1       8.139  -0.111  22.827  0.00  0.00    -0.445 OA
BRANCH   6   7
ATOM      7  C   UNL     1       9.268   0.664  23.319  0.00  0.00    +0.107 C 
ATOM      8  C   UNL     1      10.213  -0.199  24.169  0.00  0.00    +0.055 C 
ATOM      9  C   UNL     1       8.689   1.754  24.234  0.00  0.00    +0.055 C 
ATOM     10  C   UNL     1       9.997   1.355  22.158  0.00  0.00    +0.055 C 
ENDBRANCH   6   7
ENDBRANCH   4   6
ENDBRANCH   1   2
BRANCH   1  11
ATOM     11  C   UNL     1       6.492  -4.157  21.893  0.00  0.00    +0.151 C 
ATOM     12  O   UNL     1       5.565  -3.417  21.555  0.00  0.00    -0.296 OA
ATOM     13  C   UNL     1       6.577  -5.575  21.380  0.00  0.00    +0.088 C 
ENDBRANCH   1  11
BRANCH   1  14
ATOM     14  C   UNL     1       7.626  -4.460  24.150  0.00  0.00    +0.150 C 
BRANCH  14  15
ATOM     15  C   UNL     1       8.995  -4.434  24.767  0.00  0.00    +0.309 C 
ATOM     16  O   UNL     1       9.924  -3.777  24.317  0.00  0.00    -0.251 OA
BRANCH  15  17
ATOM     17  O   UNL     1       9.052  -5.256  25.847  0.00  0.00    -0.468 OA
ATOM     18  C   UNL     1       7.956  -5.117  26.751  0.00  0.00    +0.280 C 
ENDBRANCH  15  17
ENDBRANCH  14  15
ENDBRANCH   1  14
TORSDOF 7
ENDMDL
MODEL 3
REMARK VINA RESULT:      -5.0      1.546      1.893
REMARK  Name = 
REMARK  12 active torsions:
REMARK  status: ('A' for Active; 'I' for Inactive)
REMARK    1  A    between atoms: C_2  and  C_3
REMARK    2  A    between atoms: C_2  and  N_8
REMARK    3  A    between atoms: C_2  and  C_16
REMARK    4  A    between atoms: C_3  and  C_4
REMARK    5  A    between atoms: C_4  and  O_6
REMARK    6  A    between atoms: O_6  and  C_7
REMARK    7  A    between atoms: C_9  and  O_11
REMARK    8  A    between atoms: O_11  and  C_12
REMARK    9  A    between atoms: C_12  and  C_13
REMARK   10  A    between atoms: C_12  and  C_14
REMARK   11  A    between atoms: C_12  and  C_15
REMARK   12  A    between atoms: C_16  and  C_17
REMARK                            x       y       z     vdW  Elec       q    Type
REMARK                         _______ _______ _______ _____ _____    ______ ____
ROOT
ATOM      1  C   UNL     1       8.198  -3.974  23.446  0.00  0.00    +0.153 C 
ENDROOT
BRANCH   1   2
ATOM      2  N   UNL     1       8.371  -2.549  23.697  0.00  0.00    -0.271 N 
ATOM      3  H   UNL     1       7.606  -2.002  24.077  0.00  0.00    +0.153 HD
ATOM      4  C   UNL     1       9.555  -1.931  23.459  0.00  0.00    +0.401 C 
ATOM      5  O   UNL     1      10.517  -2.501  22.965  0.00  0.00    -0.226 OA
BRANCH   4   6
ATOM      6  O   UNL     1       9.513  -0.632  23.854  0.00  0.00    -0.445 OA
BRANCH   6   7
ATOM      7  C   UNL     1       9.198   0.392  22.870  0.00  0.00    +0.107 C 
ATOM      8  C   UNL     1       9.415  -0.121  21.438  0.00  0.00    +0.055 C 
ATOM      9  C   UNL     1      10.185   1.546  23.103  0.00  0.00    +0.055 C 
ATOM     10  C   UNL     1       7.776   0.931  23.086  0.00  0.00    +0.055 C 
ENDBRANCH   6   7
ENDBRANCH   4   6
ENDBRANCH   1   2
BRANCH   1  11
ATOM     11  C   UNL     1       7.184  -4.190  22.319  0.00  0.00    +0.151 C 
ATOM     12  O   UNL     1       6.499  -3.266  21.873  0.00  0.00    -0.296 OA
ATOM     13  C   UNL     1       7.057  -5.587  21.760  0.00  0.00    +0.088 C 
ENDBRANCH   1  11
BRANCH   1  14
ATOM     14  C   UNL     1       7.845  -4.751  24.710  0.00  0.00    +0.150 C 
BRANCH  14  15
ATOM     15  C   UNL     1       9.035  -4.870  25.619  0.00  0.00    +0.309 C 
ATOM     16  O   UNL     1      10.183  -4.990  25.213  0.00  0.00    -0.251 OA
BRANCH  15  17
ATOM     17  O   UNL     1       8.648  -4.864  26.920  0.00  0.00    -0.468 OA
ATOM     18  C   UNL     1       7.297  -5.270  27.135  0.00  0.00    +0.280 C 
ENDBRANCH  15  17
ENDBRANCH  14  15
ENDBRANCH   1  14
TORSDOF 7
ENDMDL
MODEL 4
REMARK VINA RESULT:      -4.9      1.483      3.451
REMARK  Name = 
REMARK  12 active torsions:
REMARK  status: ('A' for Active; 'I' for Inactive)
REMARK    1  A    between atoms: C_2  and  C_3
REMARK    2  A    between atoms: C_2  and  N_8
REMARK    3  A    between atoms: C_2  and  C_16
REMARK    4  A    between atoms: C_3  and  C_4
REMARK    5  A    between atoms: C_4  and  O_6
REMARK    6  A    between atoms: O_6  and  C_7
REMARK    7  A    between atoms: C_9  and  O_11
REMARK    8  A    between atoms: O_11  and  C_12
REMARK    9  A    between atoms: C_12  and  C_13
REMARK   10  A    between atoms: C_12  and  C_14
REMARK   11  A    between atoms: C_12  and  C_15
REMARK   12  A    between atoms: C_16  and  C_17
REMARK                            x       y       z     vdW  Elec       q    Type
REMARK                         _______ _______ _______ _____ _____    ______ ____
ROOT
ATOM      1  C   UNL     1       8.091  -3.687  23.995  0.00  0.00    +0.153 C 
ENDROOT
BRANCH   1   2
ATOM      2  N   UNL     1       8.918  -2.587  23.518  0.00  0.00    -0.271 N 
ATOM      3  H   UNL     1       9.370  -2.645  22.612  0.00  0.00    +0.153 HD
ATOM      4  C   UNL     1       9.078  -1.457  24.252  0.00  0.00    +0.401 C 
ATOM      5  O   UNL     1       8.605  -1.316  25.370  0.00  0.00    -0.226 OA
BRANCH   4   6
ATOM      6  O   UNL     1       9.807  -0.535  23.571  0.00  0.00    -0.445 OA
BRANCH   6   7
ATOM      7  C   UNL     1       9.184   0.731  23.217  0.00  0.00    +0.107 C 
ATOM      8  C   UNL     1       7.715   0.539  22.809  0.00  0.00    +0.055 C 
ATOM      9  C   UNL     1       9.939   1.266  21.990  0.00  0.00    +0.055 C 
ATOM     10  C   UNL     1       9.344   1.749  24.356  0.00  0.00    +0.055 C 
ENDBRANCH   6   7
ENDBRANCH   4   6
ENDBRANCH   1   2
BRANCH   1  11
ATOM     11  C   UNL     1       8.907  -4.594  24.921  0.00  0.00    +0.151 C 
ATOM     12  O   UNL     1      10.092  -4.856  24.700  0.00  0.00    -0.296 OA
ATOM     13  C   UNL     1       8.204  -5.158  26.133  0.00  0.00    +0.088 C 
ENDBRANCH   1  11
BRANCH   1  14
ATOM     14  C   UNL     1       7.426  -4.455  22.858  0.00  0.00    +0.150 C 
BRANCH  14  15
ATOM     15  C   UNL     1       6.328  -3.645  22.230  0.00  0.00    +0.309 C 
ATOM     16  O   UNL     1       5.937  -2.577  22.681  0.00  0.00    -0.251 OA
BRANCH  15  17
ATOM     17  O   UNL     1       5.826  -4.279  21.140  0.00  0.00    -0.468 OA
ATOM     18  C   UNL     1       6.205  -5.651  21.030  0.00  0.00    +0.280 C 
ENDBRANCH  15  17
ENDBRANCH  14  15
ENDBRANCH   1  14
TORSDOF 7
ENDMDL
MODEL 5
REMARK VINA RESULT:      -4.6      1.871      5.562
REMARK  Name = 
REMARK  12 active torsions:
REMARK  status: ('A' for Active; 'I' for Inactive)
REMARK    1  A    between atoms: C_2  and  C_3
REMARK    2  A    between atoms: C_2  and  N_8
REMARK    3  A    between atoms: C_2  and  C_16
REMARK    4  A    between atoms: C_3  and  C_4
REMARK    5  A    between atoms: C_4  and  O_6
REMARK    6  A    between atoms: O_6  and  C_7
REMARK    7  A    between atoms: C_9  and  O_11
REMARK    8  A    between atoms: O_11  and  C_12
REMARK    9  A    between atoms: C_12  and  C_13
REMARK   10  A    between atoms: C_12  and  C_14
REMARK   11  A    between atoms: C_12  and  C_15
REMARK   12  A    between atoms: C_16  and  C_17
REMARK                            x       y       z     vdW  Elec       q    Type
REMARK                         _______ _______ _______ _____ _____    ______ ____
ROOT
ATOM      1  C   UNL     1       9.681  -0.589  24.453  0.00  0.00    +0.153 C 
ENDROOT
BRANCH   1   2
ATOM      2  N   UNL     1       8.824  -1.360  23.561  0.00  0.00    -0.271 N 
ATOM      3  H   UNL     1       8.093  -0.899  23.031  0.00  0.00    +0.153 HD
ATOM      4  C   UNL     1       9.001  -2.695  23.396  0.00  0.00    +0.401 C 
ATOM      5  O   UNL     1       9.828  -3.340  24.023  0.00  0.00    -0.226 OA
BRANCH   4   6
ATOM      6  O   UNL     1       8.155  -3.184  22.452  0.00  0.00    -0.445 OA
BRANCH   6   7
ATOM      7  C   UNL     1       6.971  -3.914  22.878  0.00  0.00    +0.107 C 
ATOM      8  C   UNL     1       6.853  -3.945  24.410  0.00  0.00    +0.055 C 
ATOM      9  C   UNL     1       7.149  -5.362  22.398  0.00  0.00    +0.055 C 
ATOM     10  C   UNL     1       5.713  -3.341  22.209  0.00  0.00    +0.055 C 
ENDBRANCH   6   7
ENDBRANCH   4   6
ENDBRANCH   1   2
BRANCH   1  11
ATOM     11  C   UNL     1       8.857  -0.025  25.615  0.00  0.00    +0.151 C 
ATOM     12  O   UNL     1       8.321   1.084  25.555  0.00  0.00    -0.296 OA
ATOM     13  C   UNL     1       8.717  -0.888  26.846  0.00  0.00    +0.088 C 
ENDBRANCH   1  11
BRANCH   1  14
ATOM     14  C   UNL     1      10.471   0.487  23.717  0.00  0.00    +0.150 C 
BRANCH  14  15
ATOM     15  C   UNL     1       9.820   0.836  22.409  0.00  0.00    +0.309 C 
ATOM     16  O   UNL     1       9.868   0.117  21.420  0.00  0.00    -0.251 OA
BRANCH  15  17
ATOM     17  O   UNL     1       9.220   2.051  22.479  0.00  0.00    -0.468 OA
ATOM     18  C   UNL     1       7.945   2.117  21.841  0.00  0.00    +0.280 C 
ENDBRANCH  15  17
ENDBRANCH  14  15
ENDBRANCH   1  14
TORSDOF 7
ENDMDL
MODEL 6
REMARK VINA RESULT:      -4.6      1.820      3.499
REMARK  Name = 
REMARK  12 active torsions:
REMARK  status: ('A' for Active; 'I' for Inactive)
REMARK    1  A    between atoms: C_2  and  C_3
REMARK    2  A    between atoms: C_2  and  N_8
REMARK    3  A    between atoms: C_2  and  C_16
REMARK    4  A    between atoms: C_3  and  C_4
REMARK    5  A    between atoms: C_4  and  O_6
REMARK    6  A    between atoms: O_6  and  C_7
REMARK    7  A    between atoms: C_9  and  O_11
REMARK    8  A    between atoms: O_11  and  C_12
REMARK    9  A    between atoms: C_12  and  C_13
REMARK   10  A    between atoms: C_12  and  C_14
REMARK   11  A    between atoms: C_12  and  C_15
REMARK   12  A    between atoms: C_16  and  C_17
REMARK                            x       y       z     vdW  Elec       q    Type
REMARK                         _______ _______ _______ _____ _____    ______ ____
ROOT
ATOM      1  C   UNL     1       7.165  -4.519  23.948  0.00  0.00    +0.153 C 
ENDROOT
BRANCH   1   2
ATOM      2  N   UNL     1       7.620  -3.358  23.194  0.00  0.00    -0.271 N 
ATOM      3  H   UNL     1       8.009  -3.474  22.264  0.00  0.00    +0.153 HD
ATOM      4  C   UNL     1       7.510  -2.103  23.698  0.00  0.00    +0.401 C 
ATOM      5  O   UNL     1       7.092  -1.872  24.823  0.00  0.00    -0.226 OA
BRANCH   4   6
ATOM      6  O   UNL     1       7.907  -1.177  22.787  0.00  0.00    -0.445 OA
BRANCH   6   7
ATOM      7  C   UNL     1       9.251  -0.629  22.883  0.00  0.00    +0.107 C 
ATOM      8  C   UNL     1       9.347   0.429  23.993  0.00  0.00    +0.055 C 
ATOM      9  C   UNL     1       9.537   0.074  21.548  0.00  0.00    +0.055 C 
ATOM     10  C   UNL     1      10.282  -1.753  23.060  0.00  0.00    +0.055 C 
ENDBRANCH   6   7
ENDBRANCH   4   6
ENDBRANCH   1   2
BRANCH   1  11
ATOM     11  C   UNL     1       8.291  -5.034  24.850  0.00  0.00    +0.151 C 
ATOM     12  O   UNL     1       9.385  -5.377  24.395  0.00  0.00    -0.296 OA
ATOM     13  C   UNL     1       8.014  -5.100  26.333  0.00  0.00    +0.088 C 
ENDBRANCH   1  11
BRANCH   1  14
ATOM     14  C   UNL     1       6.586  -5.607  23.051  0.00  0.00    +0.150 C 
BRANCH  14  15
ATOM     15  C   UNL     1       5.452  -5.076  22.221  0.00  0.00    +0.309 C 
ATOM     16  O   UNL     1       5.579  -4.170  21.409  0.00  0.00    -0.251 OA
BRANCH  15  17
ATOM     17  O   UNL     1       4.292  -5.710  22.530  0.00  0.00    -0.468 OA
ATOM     18  C   UNL     1       3.446  -4.988  23.424  0.00  0.00    +0.280 C 
ENDBRANCH  15  17
ENDBRANCH  14  15
ENDBRANCH   1  14
TORSDOF 7
ENDMDL
MODEL 7
REMARK VINA RESULT:      -4.5      1.977      5.323
REMARK  Name = 
REMARK  12 active torsions:
REMARK  status: ('A' for Active; 'I' for Inactive)
REMARK    1  A    between atoms: C_2  and  C_3
REMARK    2  A    between atoms: C_2  and  N_8
REMARK    3  A    between atoms: C_2  and  C_16
REMARK    4  A    between atoms: C_3  and  C_4
REMARK    5  A    between atoms: C_4  and  O_6
REMARK    6  A    between atoms: O_6  and  C_7
REMARK    7  A    between atoms: C_9  and  O_11
REMARK    8  A    between atoms: O_11  and  C_12
REMARK    9  A    between atoms: C_12  and  C_13
REMARK   10  A    between atoms: C_12  and  C_14
REMARK   11  A    between atoms: C_12  and  C_15
REMARK   12  A    between atoms: C_16  and  C_17
REMARK                            x       y       z     vdW  Elec       q    Type
REMARK                         _______ _______ _______ _____ _____    ______ ____
ROOT
ATOM      1  C   UNL     1       9.068  -1.309  25.410  0.00  0.00    +0.153 C 
ENDROOT
BRANCH   1   2
ATOM      2  N   UNL     1       8.390  -1.905  24.267  0.00  0.00    -0.271 N 
ATOM      3  H   UNL     1       7.567  -1.462  23.874  0.00  0.00    +0.153 HD
ATOM      4  C   UNL     1       8.855  -3.041  23.687  0.00  0.00    +0.401 C 
ATOM      5  O   UNL     1       9.814  -3.665  24.118  0.00  0.00    -0.226 OA
BRANCH   4   6
ATOM      6  O   UNL     1       8.124  -3.358  22.586  0.00  0.00    -0.445 OA
BRANCH   6   7
ATOM      7  C   UNL     1       7.025  -4.302  22.720  0.00  0.00    +0.107 C 
ATOM      8  C   UNL     1       7.183  -5.487  21.754  0.00  0.00    +0.055 C 
ATOM      9  C   UNL     1       5.746  -3.549  22.324  0.00  0.00    +0.055 C 
ATOM     10  C   UNL     1       6.878  -4.757  24.179  0.00  0.00    +0.055 C 
ENDBRANCH   6   7
ENDBRANCH   4   6
ENDBRANCH   1   2
BRANCH   1  11
ATOM     11  C   UNL     1       8.081  -1.119  26.566  0.00  0.00    +0.151 C 
ATOM     12  O   UNL     1       8.333  -0.382  27.523  0.00  0.00    -0.296 OA
ATOM     13  C   UNL     1       6.772  -1.866  26.487  0.00  0.00    +0.088 C 
ENDBRANCH   1  11
BRANCH   1  14
ATOM     14  C   UNL     1       9.803  -0.023  25.048  0.00  0.00    +0.150 C 
BRANCH  14  15
ATOM     15  C   UNL     1       9.272   0.559  23.769  0.00  0.00    +0.309 C 
ATOM     16  O   UNL     1       8.212   1.166  23.695  0.00  0.00    -0.251 OA
BRANCH  15  17
ATOM     17  O   UNL     1      10.105   0.285  22.733  0.00  0.00    -0.468 OA
ATOM     18  C   UNL     1       9.443   0.075  21.485  0.00  0.00    +0.280 C 
ENDBRANCH  15  17
ENDBRANCH  14  15
ENDBRANCH   1  14
TORSDOF 7
ENDMDL
MODEL 8
REMARK VINA RESULT:      -4.5      1.998      5.504
REMARK  Name = 
REMARK  12 active torsions:
REMARK  status: ('A' for Active; 'I' for Inactive)
REMARK    1  A    between atoms: C_2  and  C_3
REMARK    2  A    between atoms: C_2  and  N_8
REMARK    3  A    between atoms: C_2  and  C_16
REMARK    4  A    between atoms: C_3  and  C_4
REMARK    5  A    between atoms: C_4  and  O_6
REMARK    6  A    between atoms: O_6  and  C_7
REMARK    7  A    between atoms: C_9  and  O_11
REMARK    8  A    between atoms: O_11  and  C_12
REMARK    9  A    between atoms: C_12  and  C_13
REMARK   10  A    between atoms: C_12  and  C_14
REMARK   11  A    between atoms: C_12  and  C_15
REMARK   12  A    between atoms: C_16  and  C_17
REMARK                            x       y       z     vdW  Elec       q    Type
REMARK                         _______ _______ _______ _____ _____    ______ ____
ROOT
ATOM      1  C   UNL     1      10.018  -1.517  23.848  0.00  0.00    +0.153 C 
ENDROOT
BRANCH   1   2
ATOM      2  N   UNL     1       8.845  -2.350  24.081  0.00  0.00    -0.271 N 
ATOM      3  H   UNL     1       7.915  -1.953  24.007  0.00  0.00    +0.153 HD
ATOM      4  C   UNL     1       8.966  -3.670  24.373  0.00  0.00    +0.401 C 
ATOM      5  O   UNL     1      10.045  -4.223  24.523  0.00  0.00    -0.226 OA
BRANCH   4   6
ATOM      6  O   UNL     1       7.746  -4.262  24.455  0.00  0.00    -0.445 OA
BRANCH   6   7
ATOM      7  C   UNL     1       7.145  -4.453  25.766  0.00  0.00    +0.107 C 
ATOM      8  C   UNL     1       8.173  -4.969  26.785  0.00  0.00    +0.055 C 
ATOM      9  C   UNL     1       6.069  -5.539  25.603  0.00  0.00    +0.055 C 
ATOM     10  C   UNL     1       6.454  -3.165  26.237  0.00  0.00    +0.055 C 
ENDBRANCH   6   7
ENDBRANCH   4   6
ENDBRANCH   1   2
BRANCH   1  11
ATOM     11  C   UNL     1      10.066  -0.378  24.870  0.00  0.00    +0.151 C 
ATOM     12  O   UNL     1      11.002   0.424  24.909  0.00  0.00    -0.296 OA
ATOM     13  C   UNL     1       8.909  -0.265  25.835  0.00  0.00    +0.088 C 
ENDBRANCH   1  11
BRANCH   1  14
ATOM     14  C   UNL     1      10.103  -1.020  22.409  0.00  0.00    +0.150 C 
BRANCH  14  15
ATOM     15  C   UNL     1       8.978  -0.075  22.098  0.00  0.00    +0.309 C 
ATOM     16  O   UNL     1       7.799  -0.352  22.274  0.00  0.00    -0.251 OA
BRANCH  15  17
ATOM     17  O   UNL     1       9.453   1.082  21.571  0.00  0.00    -0.468 OA
ATOM     18  C   UNL     1       8.942   2.264  22.187  0.00  0.00    +0.280 C 
ENDBRANCH  15  17
ENDBRANCH  14  15
ENDBRANCH   1  14
TORSDOF 7
ENDMDL
MODEL 9
REMARK VINA RESULT:      -4.5      1.736      2.775
REMARK  Name = 
REMARK  12 active torsions:
REMARK  status: ('A' for Active; 'I' for Inactive)
REMARK    1  A    between atoms: C_2  and  C_3
REMARK    2  A    between atoms: C_2  and  N_8
REMARK    3  A    between atoms: C_2  and  C_16
REMARK    4  A    between atoms: C_3  and  C_4
REMARK    5  A    between atoms: C_4  and  O_6
REMARK    6  A    between atoms: O_6  and  C_7
REMARK    7  A    between atoms: C_9  and  O_11
REMARK    8  A    between atoms: O_11  and  C_12
REMARK    9  A    between atoms: C_12  and  C_13
REMARK   10  A    between atoms: C_12  and  C_14
REMARK   11  A    between atoms: C_12  and  C_15
REMARK   12  A    between atoms: C_16  and  C_17
REMARK                            x       y       z     vdW  Elec       q    Type
REMARK                         _______ _______ _______ _____ _____    ______ ____
ROOT
ATOM      1  C   UNL     1       7.045  -3.542  22.885  0.00  0.00    +0.153 C 
ENDROOT
BRANCH   1   2
ATOM      2  N   UNL     1       8.001  -2.558  22.395  0.00  0.00    -0.271 N 
ATOM      3  H   UNL     1       7.822  -2.060  21.529  0.00  0.00    +0.153 HD
ATOM      4  C   UNL     1       9.128  -2.264  23.090  0.00  0.00    +0.401 C 
ATOM      5  O   UNL     1       9.445  -2.841  24.120  0.00  0.00    -0.226 OA
BRANCH   4   6
ATOM      6  O   UNL     1       9.817  -1.255  22.495  0.00  0.00    -0.445 OA
BRANCH   6   7
ATOM      7  C   UNL     1       9.635   0.103  22.982  0.00  0.00    +0.107 C 
ATOM      8  C   UNL     1       9.794   1.131  21.851  0.00  0.00    +0.055 C 
ATOM      9  C   UNL     1      10.755   0.360  24.001  0.00  0.00    +0.055 C 
ATOM     10  C   UNL     1       8.289   0.241  23.709  0.00  0.00    +0.055 C 
ENDBRANCH   6   7
ENDBRANCH   4   6
ENDBRANCH   1   2
BRANCH   1  11
ATOM     11  C   UNL     1       6.523  -4.393  21.723  0.00  0.00    +0.151 C 
ATOM     12  O   UNL     1       5.697  -3.959  20.917  0.00  0.00    -0.296 OA
ATOM     13  C   UNL     1       7.069  -5.795  21.593  0.00  0.00    +0.088 C 
ENDBRANCH   1  11
BRANCH   1  14
ATOM     14  C   UNL     1       5.923  -2.910  23.700  0.00  0.00    +0.150 C 
BRANCH  14  15
ATOM     15  C   UNL     1       5.147  -3.954  24.452  0.00  0.00    +0.309 C 
ATOM     16  O   UNL     1       5.669  -4.781  25.187  0.00  0.00    -0.251 OA
BRANCH  15  17
ATOM     17  O   UNL     1       3.822  -3.867  24.168  0.00  0.00    -0.468 OA
ATOM     18  C   UNL     1       3.294  -4.994  23.471  0.00  0.00    +0.280 C 
ENDBRANCH  15  17
ENDBRANCH  14  15
ENDBRANCH   1  14
TORSDOF 7
ENDMDL
