MODEL 1
REMARK VINA RESULT:      -5.1      0.000      0.000
REMARK  Name = 
REMARK  15 active torsions:
REMARK  status: ('A' for Active; 'I' for Inactive)
REMARK    1  A    between atoms: C_1  and  C_2
REMARK    2  A    between atoms: C_2  and  C_3
REMARK    3  A    between atoms: C_3  and  C_4
REMARK    4  A    between atoms: C_4  and  C_5
REMARK    5  A    between atoms: C_5  and  C_6
REMARK    6  A    between atoms: C_6  and  C_7
REMARK    7  A    between atoms: C_7  and  C_8
REMARK    8  A    between atoms: C_8  and  C_9
REMARK    9  A    between atoms: C_9  and  C_10
REMARK   10  A    between atoms: C_10  and  C_11
REMARK   11  A    between atoms: C_11  and  C_12
REMARK   12  A    between atoms: C_12  and  S_13
REMARK   13  A    between atoms: S_13  and  C_14
REMARK   14  A    between atoms: C_15  and  C_19
REMARK   15  A    between atoms: C_19  and  O_20
REMARK                            x       y       z     vdW  Elec       q    Type
REMARK                         _______ _______ _______ _____ _____    ______ ____
ROOT
ATOM      1  C   UNL     1       5.215  -3.729  24.442  0.00  0.00    +0.076 C 
ENDROOT
BRANCH   1   2
ATOM      2  C   UNL     1       6.092  -2.724  23.698  0.00  0.00    +0.011 C 
BRANCH   2   3
ATOM      3  C   UNL     1       7.315  -3.372  23.052  0.00  0.00    +0.001 C 
BRANCH   3   4
ATOM      4  C   UNL     1       8.213  -2.331  22.399  0.00  0.00    +0.000 C 
BRANCH   4   5
ATOM      5  C   UNL     1       9.482  -2.153  23.225  0.00  0.00    +0.000 C 
BRANCH   5   6
ATOM      6  C   UNL     1      10.369  -1.072  22.624  0.00  0.00    +0.000 C 
BRANCH   6   7
ATOM      7  C   UNL     1       9.628  -0.324  21.522  0.00  0.00    -0.000 C 
BRANCH   7   8
ATOM      8  C   UNL     1       9.608   1.173  21.811  0.00  0.00    -0.000 C 
BRANCH   8   9
ATOM      9  C   UNL     1       8.207   1.745  21.624  0.00  0.00    -0.000 C 
BRANCH   9  10
ATOM     10  C   UNL     1       7.288   1.309  22.760  0.00  0.00    -0.000 C 
BRANCH  10  12
ATOM     11  C   UNL     1       7.612   0.403  25.080  0.00  0.00    +0.004 C 
ATOM     12  C   UNL     1       7.949   1.530  24.118  0.00  0.00    -0.003 C 
ENDBRANCH  10  12
ENDBRANCH   9  10
ENDBRANCH   8   9
ENDBRANCH   7   8
ENDBRANCH   6   7
ENDBRANCH   5   6
ENDBRANCH   4   5
ENDBRANCH   3   4
ENDBRANCH   2   3
ENDBRANCH   1   2
BRANCH   1  13
ATOM     13  S   UNL     1       5.899  -5.418  24.324  0.00  0.00    -0.104 S 
BRANCH  13  14
ATOM     14  C   UNL     1       6.302  -5.723  25.964  0.00  0.00    +0.126 A 
ATOM     15  N   UNL     1       5.557  -6.601  26.695  0.00  0.00    -0.251 N 
ATOM     16  H   UNL     1       4.743  -7.135  26.414  0.00  0.00    +0.191 HD
ATOM     17  N   UNL     1       6.021  -6.700  27.952  0.00  0.00    -0.067 NA
ATOM     18  N   UNL     1       7.092  -5.920  28.045  0.00  0.00    -0.122 NA
ATOM     19  C   UNL     1       7.291  -5.309  26.823  0.00  0.00    +0.202 A 
BRANCH  19  20
ATOM     20  C   UNL     1       8.405  -4.407  26.595  0.00  0.00    +0.360 C 
ATOM     21  O   UNL     1       8.311  -3.195  26.454  0.00  0.00    -0.243 OA
BRANCH  20  22
ATOM     22  O   UNL     1       9.607  -5.041  26.563  0.00  0.00    -0.476 OA
ATOM     23  H   UNL     1      10.096  -4.785  25.752  0.00  0.00    +0.295 HD
ENDBRANCH  20  22
ENDBRANCH  19  20
ENDBRANCH  13  14
ENDBRANCH   1  13
TORSDOF 14
ENDMDL
MODEL 2
REMARK VINA RESULT:      -5.0      1.894      2.502
REMARK  Name = 
REMARK  15 active torsions:
REMARK  status: ('A' for Active; 'I' for Inactive)
REMARK    1  A    between atoms: C_1  and  C_2
REMARK    2  A    between atoms: C_2  and  C_3
REMARK    3  A    between atoms: C_3  and  C_4
REMARK    4  A    between atoms: C_4  and  C_5
REMARK    5  A    between atoms: C_5  and  C_6
REMARK    6  A    between atoms: C_6  and  C_7
REMARK    7  A    between atoms: C_7  and  C_8
REMARK    8  A    between atoms: C_8  and  C_9
REMARK    9  A    between atoms: C_9  and  C_10
REMARK   10  A    between atoms: C_10  and  C_11
REMARK   11  A    between atoms: C_11  and  C_12
REMARK   12  A    between atoms: C_12  and  S_13
REMARK   13  A    between atoms: S_13  and  C_14
REMARK   14  A    between atoms: C_15  and  C_19
REMARK   15  A    between atoms: C_19  and  O_20
REMARK                            x       y       z     vdW  Elec       q    Type
REMARK                         _______ _______ _______ _____ _____    ______ ____
ROOT
ATOM      1  C   UNL     1       7.583  -1.223  25.954  0.00  0.00    +0.076 C 
ENDROOT
BRANCH   1   2
ATOM      2  C   UNL     1       8.281  -0.495  24.807  0.00  0.00    +0.011 C 
BRANCH   2   3
ATOM      3  C   UNL     1       9.689  -0.027  25.175  0.00  0.00    +0.001 C 
BRANCH   3   4
ATOM      4  C   UNL     1      10.514   0.274  23.932  0.00  0.00    +0.000 C 
BRANCH   4   5
ATOM      5  C   UNL     1      10.211  -0.756  22.849  0.00  0.00    +0.000 C 
BRANCH   5   6
ATOM      6  C   UNL     1       9.769  -0.073  21.563  0.00  0.00    +0.000 C 
BRANCH   6   7
ATOM      7  C   UNL     1       9.574   1.421  21.792  0.00  0.00    -0.000 C 
BRANCH   7   8
ATOM      8  C   UNL     1       8.112   1.806  21.598  0.00  0.00    -0.000 C 
BRANCH   8   9
ATOM      9  C   UNL     1       7.645   2.743  22.708  0.00  0.00    -0.000 C 
BRANCH   9  10
ATOM     10  C   UNL     1       8.824   3.505  23.304  0.00  0.00    -0.000 C 
BRANCH  10  12
ATOM     11  C   UNL     1       7.381   3.053  25.310  0.00  0.00    +0.004 C 
ATOM     12  C   UNL     1       8.729   3.562  24.826  0.00  0.00    -0.003 C 
ENDBRANCH  10  12
ENDBRANCH   9  10
ENDBRANCH   8   9
ENDBRANCH   7   8
ENDBRANCH   6   7
ENDBRANCH   5   6
ENDBRANCH   4   5
ENDBRANCH   3   4
ENDBRANCH   2   3
ENDBRANCH   1   2
BRANCH   1  13
ATOM     13  S   UNL     1       6.519  -2.570  25.330  0.00  0.00    -0.104 S 
BRANCH  13  14
ATOM     14  C   UNL     1       7.088  -3.895  26.262  0.00  0.00    +0.126 A 
ATOM     15  N   UNL     1       6.373  -4.322  27.341  0.00  0.00    -0.251 N 
ATOM     16  H   UNL     1       5.505  -3.959  27.716  0.00  0.00    +0.191 HD
ATOM     17  N   UNL     1       6.981  -5.359  27.943  0.00  0.00    -0.067 NA
ATOM     18  N   UNL     1       8.074  -5.641  27.245  0.00  0.00    -0.122 NA
ATOM     19  C   UNL     1       8.160  -4.752  26.193  0.00  0.00    +0.202 A 
BRANCH  19  20
ATOM     20  C   UNL     1       9.240  -4.816  25.226  0.00  0.00    +0.360 C 
ATOM     21  O   UNL     1       9.588  -3.897  24.499  0.00  0.00    -0.243 OA
BRANCH  20  22
ATOM     22  O   UNL     1       9.866  -6.023  25.205  0.00  0.00    -0.476 OA
ATOM     23  H   UNL     1       9.257  -6.706  24.849  0.00  0.00    +0.295 HD
ENDBRANCH  20  22
ENDBRANCH  19  20
ENDBRANCH  13  14
ENDBRANCH   1  13
TORSDOF 14
ENDMDL
MODEL 3
REMARK VINA RESULT:      -5.0      3.022      3.709
REMARK  Name = 
REMARK  15 active torsions:
REMARK  status: ('A' for Active; 'I' for Inactive)
REMARK    1  A    between atoms: C_1  and  C_2
REMARK    2  A    between atoms: C_2  and  C_3
REMARK    3  A    between atoms: C_3  and  C_4
REMARK    4  A    between atoms: C_4  and  C_5
REMARK    5  A    between atoms: C_5  and  C_6
REMARK    6  A    between atoms: C_6  and  C_7
REMARK    7  A    between atoms: C_7  and  C_8
REMARK    8  A    between atoms: C_8  and  C_9
REMARK    9  A    between atoms: C_9  and  C_10
REMARK   10  A    between atoms: C_10  and  C_11
REMARK   11  A    between atoms: C_11  and  C_12
REMARK   12  A    between atoms: C_12  and  S_13
REMARK   13  A    between atoms: S_13  and  C_14
REMARK   14  A    between atoms: C_15  and  C_19
REMARK   15  A    between atoms: C_19  and  O_20
REMARK                            x       y       z     vdW  Elec       q    Type
REMARK                         _______ _______ _______ _____ _____    ______ ____
ROOT
ATOM      1  C   UNL     1       7.601  -3.235  25.180  0.00  0.00    +0.076 C 
ENDROOT
BRANCH   1   2
ATOM      2  C   UNL     1       8.662  -2.185  24.858  0.00  0.00    +0.011 C 
BRANCH   2   3
ATOM      3  C   UNL     1       9.806  -2.741  24.012  0.00  0.00    +0.001 C 
BRANCH   3   4
ATOM      4  C   UNL     1      10.180  -1.784  22.889  0.00  0.00    +0.000 C 
BRANCH   4   5
ATOM      5  C   UNL     1       8.916  -1.196  22.270  0.00  0.00    +0.000 C 
BRANCH   5   6
ATOM      6  C   UNL     1       9.266  -0.209  21.166  0.00  0.00    +0.000 C 
BRANCH   6   7
ATOM      7  C   UNL     1       8.938   1.215  21.598  0.00  0.00    -0.000 C 
BRANCH   7   8
ATOM      8  C   UNL     1      10.187   1.917  22.120  0.00  0.00    -0.000 C 
BRANCH   8   9
ATOM      9  C   UNL     1       9.918   2.570  23.472  0.00  0.00    -0.000 C 
BRANCH   9  10
ATOM     10  C   UNL     1       9.787   1.516  24.566  0.00  0.00    -0.000 C 
BRANCH  10  12
ATOM     11  C   UNL     1       7.745   2.903  25.024  0.00  0.00    +0.004 C 
ATOM     12  C   UNL     1       8.394   1.540  25.189  0.00  0.00    -0.003 C 
ENDBRANCH  10  12
ENDBRANCH   9  10
ENDBRANCH   8   9
ENDBRANCH   7   8
ENDBRANCH   6   7
ENDBRANCH   5   6
ENDBRANCH   4   5
ENDBRANCH   3   4
ENDBRANCH   2   3
ENDBRANCH   1   2
BRANCH   1  13
ATOM     13  S   UNL     1       8.037  -4.857  24.464  0.00  0.00    -0.104 S 
BRANCH  13  14
ATOM     14  C   UNL     1       6.776  -5.059  23.317  0.00  0.00    +0.126 A 
ATOM     15  N   UNL     1       6.918  -4.559  22.057  0.00  0.00    -0.251 N 
ATOM     16  H   UNL     1       7.694  -4.045  21.658  0.00  0.00    +0.191 HD
ATOM     17  N   UNL     1       5.827  -4.809  21.312  0.00  0.00    -0.067 NA
ATOM     18  N   UNL     1       4.982  -5.504  22.063  0.00  0.00    -0.122 NA
ATOM     19  C   UNL     1       5.550  -5.679  23.309  0.00  0.00    +0.202 A 
BRANCH  19  20
ATOM     20  C   UNL     1       4.877  -6.425  24.356  0.00  0.00    +0.360 C 
ATOM     21  O   UNL     1       4.747  -6.052  25.514  0.00  0.00    -0.243 OA
BRANCH  20  22
ATOM     22  O   UNL     1       4.373  -7.612  23.925  0.00  0.00    -0.476 OA
ATOM     23  H   UNL     1       4.479  -8.292  24.625  0.00  0.00    +0.295 HD
ENDBRANCH  20  22
ENDBRANCH  19  20
ENDBRANCH  13  14
ENDBRANCH   1  13
TORSDOF 14
ENDMDL
MODEL 4
REMARK VINA RESULT:      -5.0      1.627      2.359
REMARK  Name = 
REMARK  15 active torsions:
REMARK  status: ('A' for Active; 'I' for Inactive)
REMARK    1  A    between atoms: C_1  and  C_2
REMARK    2  A    between atoms: C_2  and  C_3
REMARK    3  A    between atoms: C_3  and  C_4
REMARK    4  A    between atoms: C_4  and  C_5
REMARK    5  A    between atoms: C_5  and  C_6
REMARK    6  A    between atoms: C_6  and  C_7
REMARK    7  A    between atoms: C_7  and  C_8
REMARK    8  A    between atoms: C_8  and  C_9
REMARK    9  A    between atoms: C_9  and  C_10
REMARK   10  A    between atoms: C_10  and  C_11
REMARK   11  A    between atoms: C_11  and  C_12
REMARK   12  A    between atoms: C_12  and  S_13
REMARK   13  A    between atoms: S_13  and  C_14
REMARK   14  A    between atoms: C_15  and  C_19
REMARK   15  A    between atoms: C_19  and  O_20
REMARK                            x       y       z     vdW  Elec       q    Type
REMARK                         _______ _______ _______ _____ _____    ______ ____
ROOT
ATOM      1  C   UNL     1       6.758  -3.191  23.059  0.00  0.00    +0.076 C 
ENDROOT
BRANCH   1   2
ATOM      2  C   UNL     1       6.351  -2.056  23.995  0.00  0.00    +0.011 C 
BRANCH   2   3
ATOM      3  C   UNL     1       7.178  -0.788  23.782  0.00  0.00    +0.001 C 
BRANCH   3   4
ATOM      4  C   UNL     1       6.997   0.190  24.933  0.00  0.00    +0.000 C 
BRANCH   4   5
ATOM      5  C   UNL     1       8.357   0.698  25.398  0.00  0.00    +0.000 C 
BRANCH   5   6
ATOM      6  C   UNL     1       9.474  -0.193  24.872  0.00  0.00    +0.000 C 
BRANCH   6   7
ATOM      7  C   UNL     1      10.636   0.650  24.362  0.00  0.00    -0.000 C 
BRANCH   7   8
ATOM      8  C   UNL     1      10.126   1.790  23.489  0.00  0.00    -0.000 C 
BRANCH   8   9
ATOM      9  C   UNL     1       9.980   1.341  22.038  0.00  0.00    -0.000 C 
BRANCH   9  10
ATOM     10  C   UNL     1       8.589   1.669  21.507  0.00  0.00    -0.000 C 
BRANCH  10  12
ATOM     11  C   UNL     1       6.483   2.739  22.359  0.00  0.00    +0.004 C 
ATOM     12  C   UNL     1       7.991   2.870  22.235  0.00  0.00    -0.003 C 
ENDBRANCH  10  12
ENDBRANCH   9  10
ENDBRANCH   8   9
ENDBRANCH   7   8
ENDBRANCH   6   7
ENDBRANCH   5   6
ENDBRANCH   4   5
ENDBRANCH   3   4
ENDBRANCH   2   3
ENDBRANCH   1   2
BRANCH   1  13
ATOM     13  S   UNL     1       6.262  -4.814  23.733  0.00  0.00    -0.104 S 
BRANCH  13  14
ATOM     14  C   UNL     1       6.954  -4.743  25.302  0.00  0.00    +0.126 A 
ATOM     15  N   UNL     1       6.152  -4.812  26.402  0.00  0.00    -0.251 N 
ATOM     16  H   UNL     1       5.144  -4.897  26.452  0.00  0.00    +0.191 HD
ATOM     17  N   UNL     1       6.874  -4.732  27.533  0.00  0.00    -0.067 NA
ATOM     18  N   UNL     1       8.152  -4.648  27.185  0.00  0.00    -0.122 NA
ATOM     19  C   UNL     1       8.229  -4.659  25.807  0.00  0.00    +0.202 A 
BRANCH  19  20
ATOM     20  C   UNL     1       9.503  -4.604  25.113  0.00  0.00    +0.360 C 
ATOM     21  O   UNL     1       9.863  -3.698  24.375  0.00  0.00    -0.243 OA
BRANCH  20  22
ATOM     22  O   UNL     1      10.299  -5.675  25.374  0.00  0.00    -0.476 OA
ATOM     23  H   UNL     1      11.198  -5.516  25.012  0.00  0.00    +0.295 HD
ENDBRANCH  20  22
ENDBRANCH  19  20
ENDBRANCH  13  14
ENDBRANCH   1  13
TORSDOF 14
ENDMDL
MODEL 5
REMARK VINA RESULT:      -4.9      1.952      2.895
REMARK  Name = 
REMARK  15 active torsions:
REMARK  status: ('A' for Active; 'I' for Inactive)
REMARK    1  A    between atoms: C_1  and  C_2
REMARK    2  A    between atoms: C_2  and  C_3
REMARK    3  A    between atoms: C_3  and  C_4
REMARK    4  A    between atoms: C_4  and  C_5
REMARK    5  A    between atoms: C_5  and  C_6
REMARK    6  A    between atoms: C_6  and  C_7
REMARK    7  A    between atoms: C_7  and  C_8
REMARK    8  A    between atoms: C_8  and  C_9
REMARK    9  A    between atoms: C_9  and  C_10
REMARK   10  A    between atoms: C_10  and  C_11
REMARK   11  A    between atoms: C_11  and  C_12
REMARK   12  A    between atoms: C_12  and  S_13
REMARK   13  A    between atoms: S_13  and  C_14
REMARK   14  A    between atoms: C_15  and  C_19
REMARK   15  A    between atoms: C_19  and  O_20
REMARK                            x       y       z     vdW  Elec       q    Type
REMARK                         _______ _______ _______ _____ _____    ______ ____
ROOT
ATOM      1  C   UNL     1       8.938  -2.937  24.770  0.00  0.00    +0.076 C 
ENDROOT
BRANCH   1   2
ATOM      2  C   UNL     1       9.766  -2.321  23.644  0.00  0.00    +0.011 C 
BRANCH   2   3
ATOM      3  C   UNL     1       8.903  -1.743  22.524  0.00  0.00    +0.001 C 
BRANCH   3   4
ATOM      4  C   UNL     1       9.723  -0.862  21.592  0.00  0.00    +0.000 C 
BRANCH   4   5
ATOM      5  C   UNL     1       9.114   0.535  21.535  0.00  0.00    +0.000 C 
BRANCH   5   6
ATOM      6  C   UNL     1      10.100   1.573  22.053  0.00  0.00    +0.000 C 
BRANCH   6   7
ATOM      7  C   UNL     1       9.545   2.264  23.293  0.00  0.00    -0.000 C 
BRANCH   7   8
ATOM      8  C   UNL     1       9.802   1.419  24.535  0.00  0.00    -0.000 C 
BRANCH   8   9
ATOM      9  C   UNL     1       8.490   0.938  25.147  0.00  0.00    -0.000 C 
BRANCH   9  10
ATOM     10  C   UNL     1       7.316   1.760  24.624  0.00  0.00    -0.000 C 
BRANCH  10  12
ATOM     11  C   UNL     1       6.179  -0.475  24.764  0.00  0.00    +0.004 C 
ATOM     12  C   UNL     1       6.232   0.859  24.039  0.00  0.00    -0.003 C 
ENDBRANCH  10  12
ENDBRANCH   9  10
ENDBRANCH   8   9
ENDBRANCH   7   8
ENDBRANCH   6   7
ENDBRANCH   5   6
ENDBRANCH   4   5
ENDBRANCH   3   4
ENDBRANCH   2   3
ENDBRANCH   1   2
BRANCH   1  13
ATOM     13  S   UNL     1       9.439  -4.664  25.090  0.00  0.00    -0.104 S 
BRANCH  13  14
ATOM     14  C   UNL     1       8.041  -5.270  25.878  0.00  0.00    +0.126 A 
ATOM     15  N   UNL     1       8.134  -5.756  27.148  0.00  0.00    -0.251 N 
ATOM     16  H   UNL     1       8.950  -5.832  27.744  0.00  0.00    +0.191 HD
ATOM     17  N   UNL     1       6.940  -6.190  27.589  0.00  0.00    -0.067 NA
ATOM     18  N   UNL     1       6.053  -5.958  26.629  0.00  0.00    -0.122 NA
ATOM     19  C   UNL     1       6.708  -5.382  25.560  0.00  0.00    +0.202 A 
BRANCH  19  20
ATOM     20  C   UNL     1       6.002  -4.986  24.356  0.00  0.00    +0.360 C 
ATOM     21  O   UNL     1       5.108  -4.152  24.307  0.00  0.00    -0.243 OA
BRANCH  20  22
ATOM     22  O   UNL     1       6.443  -5.630  23.243  0.00  0.00    -0.476 OA
ATOM     23  H   UNL     1       5.932  -6.458  23.114  0.00  0.00    +0.295 HD
ENDBRANCH  20  22
ENDBRANCH  19  20
ENDBRANCH  13  14
ENDBRANCH   1  13
TORSDOF 14
ENDMDL
MODEL 6
REMARK VINA RESULT:      -4.9      1.013      1.893
REMARK  Name = 
REMARK  15 active torsions:
REMARK  status: ('A' for Active; 'I' for Inactive)
REMARK    1  A    between atoms: C_1  and  C_2
REMARK    2  A    between atoms: C_2  and  C_3
REMARK    3  A    between atoms: C_3  and  C_4
REMARK    4  A    between atoms: C_4  and  C_5
REMARK    5  A    between atoms: C_5  and  C_6
REMARK    6  A    between atoms: C_6  and  C_7
REMARK    7  A    between atoms: C_7  and  C_8
REMARK    8  A    between atoms: C_8  and  C_9
REMARK    9  A    between atoms: C_9  and  C_10
REMARK   10  A    between atoms: C_10  and  C_11
REMARK   11  A    between atoms: C_11  and  C_12
REMARK   12  A    between atoms: C_12  and  S_13
REMARK   13  A    between atoms: S_13  and  C_14
REMARK   14  A    between atoms: C_15  and  C_19
REMARK   15  A    between atoms: C_19  and  O_20
REMARK                            x       y       z     vdW  Elec       q    Type
REMARK                         _______ _______ _______ _____ _____    ______ ____
ROOT
ATOM      1  C   UNL     1       7.021  -3.018  23.502  0.00  0.00    +0.076 C 
ENDROOT
BRANCH   1   2
ATOM      2  C   UNL     1       8.101  -2.367  22.641  0.00  0.00    +0.011 C 
BRANCH   2   3
ATOM      3  C   UNL     1       9.445  -2.261  23.361  0.00  0.00    +0.001 C 
BRANCH   3   4
ATOM      4  C   UNL     1      10.289  -1.129  22.793  0.00  0.00    +0.000 C 
BRANCH   4   5
ATOM      5  C   UNL     1       9.461  -0.314  21.804  0.00  0.00    +0.000 C 
BRANCH   5   6
ATOM      6  C   UNL     1       9.908   1.141  21.799  0.00  0.00    +0.000 C 
BRANCH   6   7
ATOM      7  C   UNL     1       8.734   2.061  22.113  0.00  0.00    -0.000 C 
BRANCH   7   8
ATOM      8  C   UNL     1       7.459   1.251  22.316  0.00  0.00    -0.000 C 
BRANCH   8   9
ATOM      9  C   UNL     1       6.772   1.637  23.622  0.00  0.00    -0.000 C 
BRANCH   9  10
ATOM     10  C   UNL     1       6.938   0.537  24.665  0.00  0.00    -0.000 C 
BRANCH  10  12
ATOM     11  C   UNL     1       8.452  -0.445  26.412  0.00  0.00    +0.004 C 
ATOM     12  C   UNL     1       8.261   0.682  25.412  0.00  0.00    -0.003 C 
ENDBRANCH  10  12
ENDBRANCH   9  10
ENDBRANCH   8   9
ENDBRANCH   7   8
ENDBRANCH   6   7
ENDBRANCH   5   6
ENDBRANCH   4   5
ENDBRANCH   3   4
ENDBRANCH   2   3
ENDBRANCH   1   2
BRANCH   1  13
ATOM     13  S   UNL     1       6.967  -4.825  23.240  0.00  0.00    -0.104 S 
BRANCH  13  14
ATOM     14  C   UNL     1       6.799  -5.385  24.854  0.00  0.00    +0.126 A 
ATOM     15  N   UNL     1       5.651  -6.012  25.239  0.00  0.00    -0.251 N 
ATOM     16  H   UNL     1       4.819  -6.210  24.695  0.00  0.00    +0.191 HD
ATOM     17  N   UNL     1       5.705  -6.367  26.534  0.00  0.00    -0.067 NA
ATOM     18  N   UNL     1       6.897  -6.012  26.996  0.00  0.00    -0.122 NA
ATOM     19  C   UNL     1       7.597  -5.407  25.972  0.00  0.00    +0.202 A 
BRANCH  19  20
ATOM     20  C   UNL     1       8.954  -4.925  26.156  0.00  0.00    +0.360 C 
ATOM     21  O   UNL     1       9.258  -3.862  26.680  0.00  0.00    -0.243 OA
BRANCH  20  22
ATOM     22  O   UNL     1       9.895  -5.791  25.694  0.00  0.00    -0.476 OA
ATOM     23  H   UNL     1      10.368  -6.201  26.449  0.00  0.00    +0.295 HD
ENDBRANCH  20  22
ENDBRANCH  19  20
ENDBRANCH  13  14
ENDBRANCH   1  13
TORSDOF 14
ENDMDL
MODEL 7
REMARK VINA RESULT:      -4.9      1.965      2.334
REMARK  Name = 
REMARK  15 active torsions:
REMARK  status: ('A' for Active; 'I' for Inactive)
REMARK    1  A    between atoms: C_1  and  C_2
REMARK    2  A    between atoms: C_2  and  C_3
REMARK    3  A    between atoms: C_3  and  C_4
REMARK    4  A    between atoms: C_4  and  C_5
REMARK    5  A    between atoms: C_5  and  C_6
REMARK    6  A    between atoms: C_6  and  C_7
REMARK    7  A    between atoms: C_7  and  C_8
REMARK    8  A    between atoms: C_8  and  C_9
REMARK    9  A    between atoms: C_9  and  C_10
REMARK   10  A    between atoms: C_10  and  C_11
REMARK   11  A    between atoms: C_11  and  C_12
REMARK   12  A    between atoms: C_12  and  S_13
REMARK   13  A    between atoms: S_13  and  C_14
REMARK   14  A    between atoms: C_15  and  C_19
REMARK   15  A    between atoms: C_19  and  O_20
REMARK                            x       y       z     vdW  Elec       q    Type
REMARK                         _______ _______ _______ _____ _____    ______ ____
ROOT
ATOM      1  C   UNL     1       5.165  -3.311  23.450  0.00  0.00    +0.076 C 
ENDROOT
BRANCH   1   2
ATOM      2  C   UNL     1       5.709  -2.250  24.404  0.00  0.00    +0.011 C 
BRANCH   2   3
ATOM      3  C   UNL     1       6.765  -1.357  23.755  0.00  0.00    +0.001 C 
BRANCH   3   4
ATOM      4  C   UNL     1       7.858  -0.983  24.746  0.00  0.00    +0.000 C 
BRANCH   4   5
ATOM      5  C   UNL     1       9.141  -1.735  24.408  0.00  0.00    +0.000 C 
BRANCH   5   6
ATOM      6  C   UNL     1      10.099  -0.844  23.630  0.00  0.00    +0.000 C 
BRANCH   6   7
ATOM      7  C   UNL     1       9.984  -1.113  22.134  0.00  0.00    -0.000 C 
BRANCH   7   8
ATOM      8  C   UNL     1       9.437   0.111  21.411  0.00  0.00    -0.000 C 
BRANCH   8   9
ATOM      9  C   UNL     1       9.973   1.396  22.034  0.00  0.00    -0.000 C 
BRANCH   9  10
ATOM     10  C   UNL     1       8.848   2.403  22.250  0.00  0.00    -0.000 C 
BRANCH  10  12
ATOM     11  C   UNL     1       6.401   2.216  22.782  0.00  0.00    +0.004 C 
ATOM     12  C   UNL     1       7.504   1.829  21.812  0.00  0.00    -0.003 C 
ENDBRANCH  10  12
ENDBRANCH   9  10
ENDBRANCH   8   9
ENDBRANCH   7   8
ENDBRANCH   6   7
ENDBRANCH   5   6
ENDBRANCH   4   5
ENDBRANCH   3   4
ENDBRANCH   2   3
ENDBRANCH   1   2
BRANCH   1  13
ATOM     13  S   UNL     1       5.158  -4.962  24.231  0.00  0.00    -0.104 S 
BRANCH  13  14
ATOM     14  C   UNL     1       6.808  -5.121  24.674  0.00  0.00    +0.126 A 
ATOM     15  N   UNL     1       7.771  -5.153  23.709  0.00  0.00    -0.251 N 
ATOM     16  H   UNL     1       7.667  -5.101  22.703  0.00  0.00    +0.191 HD
ATOM     17  N   UNL     1       8.994  -5.290  24.250  0.00  0.00    -0.067 NA
ATOM     18  N   UNL     1       8.846  -5.311  25.569  0.00  0.00    -0.122 NA
ATOM     19  C   UNL     1       7.501  -5.202  25.858  0.00  0.00    +0.202 A 
BRANCH  19  20
ATOM     20  C   UNL     1       7.015  -5.171  27.225  0.00  0.00    +0.360 C 
ATOM     21  O   UNL     1       6.219  -4.356  27.671  0.00  0.00    -0.243 OA
BRANCH  20  22
ATOM     22  O   UNL     1       7.523  -6.170  27.995  0.00  0.00    -0.476 OA
ATOM     23  H   UNL     1       8.373  -6.482  27.615  0.00  0.00    +0.295 HD
ENDBRANCH  20  22
ENDBRANCH  19  20
ENDBRANCH  13  14
ENDBRANCH   1  13
TORSDOF 14
ENDMDL
MODEL 8
REMARK VINA RESULT:      -4.9      2.793      3.194
REMARK  Name = 
REMARK  15 active torsions:
REMARK  status: ('A' for Active; 'I' for Inactive)
REMARK    1  A    between atoms: C_1  and  C_2
REMARK    2  A    between atoms: C_2  and  C_3
REMARK    3  A    between atoms: C_3  and  C_4
REMARK    4  A    between atoms: C_4  and  C_5
REMARK    5  A    between atoms: C_5  and  C_6
REMARK    6  A    between atoms: C_6  and  C_7
REMARK    7  A    between atoms: C_7  and  C_8
REMARK    8  A    between atoms: C_8  and  C_9
REMARK    9  A    between atoms: C_9  and  C_10
REMARK   10  A    between atoms: C_10  and  C_11
REMARK   11  A    between atoms: C_11  and  C_12
REMARK   12  A    between atoms: C_12  and  S_13
REMARK   13  A    between atoms: S_13  and  C_14
REMARK   14  A    between atoms: C_15  and  C_19
REMARK   15  A    between atoms: C_19  and  O_20
REMARK                            x       y       z     vdW  Elec       q    Type
REMARK                         _______ _______ _______ _____ _____    ______ ____
ROOT
ATOM      1  C   UNL     1       4.766  -2.961  24.848  0.00  0.00    +0.076 C 
ENDROOT
BRANCH   1   2
ATOM      2  C   UNL     1       5.871  -1.938  24.596  0.00  0.00    +0.011 C 
BRANCH   2   3
ATOM      3  C   UNL     1       6.159  -1.734  23.109  0.00  0.00    +0.001 C 
BRANCH   3   4
ATOM      4  C   UNL     1       7.452  -0.959  22.898  0.00  0.00    +0.000 C 
BRANCH   4   5
ATOM      5  C   UNL     1       8.504  -1.871  22.275  0.00  0.00    +0.000 C 
BRANCH   5   6
ATOM      6  C   UNL     1       9.668  -1.056  21.728  0.00  0.00    +0.000 C 
BRANCH   6   7
ATOM      7  C   UNL     1       9.194   0.324  21.288  0.00  0.00    -0.000 C 
BRANCH   7   8
ATOM      8  C   UNL     1      10.042   1.413  21.933  0.00  0.00    -0.000 C 
BRANCH   8   9
ATOM      9  C   UNL     1       9.173   2.375  22.737  0.00  0.00    -0.000 C 
BRANCH   9  10
ATOM     10  C   UNL     1       9.359   2.150  24.234  0.00  0.00    -0.000 C 
BRANCH  10  12
ATOM     11  C   UNL     1       9.989  -0.024  25.322  0.00  0.00    +0.004 C 
ATOM     12  C   UNL     1      10.486   1.157  24.506  0.00  0.00    -0.003 C 
ENDBRANCH  10  12
ENDBRANCH   9  10
ENDBRANCH   8   9
ENDBRANCH   7   8
ENDBRANCH   6   7
ENDBRANCH   5   6
ENDBRANCH   4   5
ENDBRANCH   3   4
ENDBRANCH   2   3
ENDBRANCH   1   2
BRANCH   1  13
ATOM     13  S   UNL     1       5.411  -4.430  25.720  0.00  0.00    -0.104 S 
BRANCH  13  14
ATOM     14  C   UNL     1       6.705  -4.883  24.687  0.00  0.00    +0.126 A 
ATOM     15  N   UNL     1       7.977  -4.932  25.173  0.00  0.00    -0.251 N 
ATOM     16  H   UNL     1       8.312  -4.724  26.106  0.00  0.00    +0.191 HD
ATOM     17  N   UNL     1       8.847  -5.297  24.216  0.00  0.00    -0.067 NA
ATOM     18  N   UNL     1       8.150  -5.526  23.109  0.00  0.00    -0.122 NA
ATOM     19  C   UNL     1       6.818  -5.283  23.377  0.00  0.00    +0.202 A 
BRANCH  19  20
ATOM     20  C   UNL     1       5.791  -5.468  22.368  0.00  0.00    +0.360 C 
ATOM     21  O   UNL     1       5.646  -4.767  21.376  0.00  0.00    -0.243 OA
BRANCH  20  22
ATOM     22  O   UNL     1       4.983  -6.532  22.618  0.00  0.00    -0.476 OA
ATOM     23  H   UNL     1       4.462  -6.369  23.434  0.00  0.00    +0.295 HD
ENDBRANCH  20  22
ENDBRANCH  19  20
ENDBRANCH  13  14
ENDBRANCH   1  13
TORSDOF 14
ENDMDL
MODEL 9
REMARK VINA RESULT:      -4.9      2.793      3.497
REMARK  Name = 
REMARK  15 active torsions:
REMARK  status: ('A' for Active; 'I' for Inactive)
REMARK    1  A    between atoms: C_1  and  C_2
REMARK    2  A    between atoms: C_2  and  C_3
REMARK    3  A    between atoms: C_3  and  C_4
REMARK    4  A    between atoms: C_4  and  C_5
REMARK    5  A    between atoms: C_5  and  C_6
REMARK    6  A    between atoms: C_6  and  C_7
REMARK    7  A    between atoms: C_7  and  C_8
REMARK    8  A    between atoms: C_8  and  C_9
REMARK    9  A    between atoms: C_9  and  C_10
REMARK   10  A    between atoms: C_10  and  C_11
REMARK   11  A    between atoms: C_11  and  C_12
REMARK   12  A    between atoms: C_12  and  S_13
REMARK   13  A    between atoms: S_13  and  C_14
REMARK   14  A    between atoms: C_15  and  C_19
REMARK   15  A    between atoms: C_19  and  O_20
REMARK                            x       y       z     vdW  Elec       q    Type
REMARK                         _______ _______ _______ _____ _____    ______ ____
ROOT
ATOM      1  C   UNL     1       6.465  -0.504  24.133  0.00  0.00    +0.076 C 
ENDROOT
BRANCH   1   2
ATOM      2  C   UNL     1       7.504  -0.095  25.174  0.00  0.00    +0.011 C 
BRANCH   2   3
ATOM      3  C   UNL     1       8.820  -0.859  25.028  0.00  0.00    +0.001 C 
BRANCH   3   4
ATOM      4  C   UNL     1      10.017   0.072  25.154  0.00  0.00    +0.000 C 
BRANCH   4   5
ATOM      5  C   UNL     1      10.709   0.209  23.802  0.00  0.00    +0.000 C 
BRANCH   5   6
ATOM      6  C   UNL     1      10.168  -0.815  22.813  0.00  0.00    +0.000 C 
BRANCH   6   7
ATOM      7  C   UNL     1       9.665  -0.125  21.551  0.00  0.00    -0.000 C 
BRANCH   7   8
ATOM      8  C   UNL     1       9.544   1.378  21.775  0.00  0.00    -0.000 C 
BRANCH   8   9
ATOM      9  C   UNL     1       8.086   1.822  21.709  0.00  0.00    -0.000 C 
BRANCH   9  10
ATOM     10  C   UNL     1       7.890   3.146  22.441  0.00  0.00    -0.000 C 
BRANCH  10  12
ATOM     11  C   UNL     1       8.514   3.479  24.850  0.00  0.00    +0.004 C 
ATOM     12  C   UNL     1       9.029   3.406  23.423  0.00  0.00    -0.003 C 
ENDBRANCH  10  12
ENDBRANCH   9  10
ENDBRANCH   8   9
ENDBRANCH   7   8
ENDBRANCH   6   7
ENDBRANCH   5   6
ENDBRANCH   4   5
ENDBRANCH   3   4
ENDBRANCH   2   3
ENDBRANCH   1   2
BRANCH   1  13
ATOM     13  S   UNL     1       5.558  -2.001  24.656  0.00  0.00    -0.104 S 
BRANCH  13  14
ATOM     14  C   UNL     1       6.034  -3.114  23.440  0.00  0.00    +0.126 A 
ATOM     15  N   UNL     1       5.447  -3.068  22.210  0.00  0.00    -0.251 N 
ATOM     16  H   UNL     1       4.720  -2.448  21.873  0.00  0.00    +0.191 HD
ATOM     17  N   UNL     1       5.944  -4.019  21.401  0.00  0.00    -0.067 NA
ATOM     18  N   UNL     1       6.883  -4.668  22.079  0.00  0.00    -0.122 NA
ATOM     19  C   UNL     1       6.963  -4.122  23.343  0.00  0.00    +0.202 A 
BRANCH  19  20
ATOM     20  C   UNL     1       7.920  -4.602  24.323  0.00  0.00    +0.360 C 
ATOM     21  O   UNL     1       7.647  -5.299  25.291  0.00  0.00    -0.243 OA
BRANCH  20  22
ATOM     22  O   UNL     1       9.196  -4.213  24.058  0.00  0.00    -0.476 OA
ATOM     23  H   UNL     1       9.258  -3.234  24.093  0.00  0.00    +0.295 HD
ENDBRANCH  20  22
ENDBRANCH  19  20
ENDBRANCH  13  14
ENDBRANCH   1  13
TORSDOF 14
ENDMDL
