MODEL 1
REMARK VINA RESULT:      -7.3      0.000      0.000
REMARK  Name = 
REMARK  8 active torsions:
REMARK  status: ('A' for Active; 'I' for Inactive)
REMARK    1  A    between atoms: N_1  and  C_2
REMARK    2  A    between atoms: C_2  and  C_3
REMARK    3  A    between atoms: C_3  and  C_4
REMARK    4  A    between atoms: C_4  and  C_5
REMARK    5  A    between atoms: N_7  and  C_8
REMARK    6  A    between atoms: C_11  and  O_12
REMARK    7  A    between atoms: O_12  and  C_13
REMARK    8  A    between atoms: C_13  and  C_14
REMARK                            x       y       z     vdW  Elec       q    Type
REMARK                         _______ _______ _______ _____ _____    ______ ____
ROOT
ATOM      1  C   UNL     1      10.429   2.084  23.094  0.00  0.00    +0.034 A 
ATOM      2  C   UNL     1       9.896   1.504  21.943  0.00  0.00    +0.027 A 
ATOM      3  C   UNL     1       9.733   0.117  21.884  0.00  0.00    +0.047 A 
ATOM      4  C   UNL     1      10.032  -0.683  22.990  0.00  0.00    +0.121 A 
ATOM      5  C   UNL     1      10.504  -0.090  24.159  0.00  0.00    +0.047 A 
ATOM      6  C   UNL     1      10.694   1.288  24.211  0.00  0.00    +0.027 A 
ENDROOT
BRANCH   1   8
ATOM      7  C   UNL     1       9.985   4.369  23.796  0.00  0.00    +0.217 C 
ATOM      8  N   UNL     1      10.750   3.453  23.091  0.00  0.00    -0.285 N 
ATOM      9  H   UNL     1      11.719   3.716  22.930  0.00  0.00    +0.155 HD
ATOM     10  O   UNL     1       9.016   4.099  24.505  0.00  0.00    -0.275 OA
BRANCH   7  11
ATOM     11  C   UNL     1      10.492   5.786  23.709  0.00  0.00    +0.097 C 
BRANCH  11  12
ATOM     12  C   UNL     1      11.991   5.851  23.995  0.00  0.00    +0.024 C 
BRANCH  12  13
ATOM     13  C   UNL     1      12.878   5.736  22.755  0.00  0.00    +0.078 C 
BRANCH  13  14
ATOM     14  N   UNL     1      14.172   5.139  23.078  0.00  0.00    -0.330 NA
ATOM     15  H   UNL     1      14.328   4.341  22.459  0.00  0.00    +0.118 HD
ATOM     16  H   UNL     1      14.908   5.805  22.839  0.00  0.00    +0.118 HD
ENDBRANCH  13  14
ENDBRANCH  12  13
ENDBRANCH  11  12
ENDBRANCH   7  11
ENDBRANCH   1   8
BRANCH   4  17
ATOM     17  O   UNL     1       9.836  -2.025  22.815  0.00  0.00    -0.487 OA
BRANCH  17  18
ATOM     18  C   UNL     1       9.099  -2.673  23.853  0.00  0.00    +0.264 C 
BRANCH  18  19
ATOM     19  C   UNL     1       7.958  -3.431  23.228  0.00  0.00    -0.010 A 
ATOM     20  C   UNL     1       7.022  -2.763  22.427  0.00  0.00    +0.007 A 
ATOM     21  C   UNL     1       5.964  -3.458  21.856  0.00  0.00    +0.000 A 
ATOM     22  C   UNL     1       5.828  -4.827  22.075  0.00  0.00    +0.000 A 
ATOM     23  C   UNL     1       6.753  -5.500  22.872  0.00  0.00    +0.000 A 
ATOM     24  C   UNL     1       7.815  -4.808  23.449  0.00  0.00    +0.007 A 
ENDBRANCH  18  19
ENDBRANCH  17  18
ENDBRANCH   4  17
TORSDOF 8
ENDMDL
MODEL 2
REMARK VINA RESULT:      -7.2      1.166      1.804
REMARK  Name = 
REMARK  8 active torsions:
REMARK  status: ('A' for Active; 'I' for Inactive)
REMARK    1  A    between atoms: N_1  and  C_2
REMARK    2  A    between atoms: C_2  and  C_3
REMARK    3  A    between atoms: C_3  and  C_4
REMARK    4  A    between atoms: C_4  and  C_5
REMARK    5  A    between atoms: N_7  and  C_8
REMARK    6  A    between atoms: C_11  and  O_12
REMARK    7  A    between atoms: O_12  and  C_13
REMARK    8  A    between atoms: C_13  and  C_14
REMARK                            x       y       z     vdW  Elec       q    Type
REMARK                         _______ _______ _______ _____ _____    ______ ____
ROOT
ATOM      1  C   UNL     1      10.364   1.962  23.033  0.00  0.00    +0.034 A 
ATOM      2  C   UNL     1       9.797   1.364  21.908  0.00  0.00    +0.027 A 
ATOM      3  C   UNL     1       9.628  -0.023  21.878  0.00  0.00    +0.047 A 
ATOM      4  C   UNL     1       9.954  -0.805  22.989  0.00  0.00    +0.121 A 
ATOM      5  C   UNL     1      10.461  -0.193  24.135  0.00  0.00    +0.047 A 
ATOM      6  C   UNL     1      10.656   1.185  24.157  0.00  0.00    +0.027 A 
ENDROOT
BRANCH   1   8
ATOM      7  C   UNL     1       9.989   4.252  23.761  0.00  0.00    +0.217 C 
ATOM      8  N   UNL     1      10.688   3.330  22.997  0.00  0.00    -0.285 N 
ATOM      9  H   UNL     1      11.642   3.587  22.754  0.00  0.00    +0.155 HD
ATOM     10  O   UNL     1       9.083   3.990  24.549  0.00  0.00    -0.275 OA
BRANCH   7  11
ATOM     11  C   UNL     1      10.494   5.667  23.624  0.00  0.00    +0.097 C 
BRANCH  11  12
ATOM     12  C   UNL     1      11.989   5.747  23.926  0.00  0.00    +0.024 C 
BRANCH  12  13
ATOM     13  C   UNL     1      12.892   5.575  22.704  0.00  0.00    +0.078 C 
BRANCH  13  14
ATOM     14  N   UNL     1      14.225   5.117  23.087  0.00  0.00    -0.330 NA
ATOM     15  H   UNL     1      14.481   4.323  22.496  0.00  0.00    +0.118 HD
ATOM     16  H   UNL     1      14.901   5.846  22.854  0.00  0.00    +0.118 HD
ENDBRANCH  13  14
ENDBRANCH  12  13
ENDBRANCH  11  12
ENDBRANCH   7  11
ENDBRANCH   1   8
BRANCH   4  17
ATOM     17  O   UNL     1       9.749  -2.149  22.844  0.00  0.00    -0.487 OA
BRANCH  17  18
ATOM     18  C   UNL     1       8.389  -2.572  22.949  0.00  0.00    +0.264 C 
BRANCH  18  19
ATOM     19  C   UNL     1       8.277  -3.541  24.097  0.00  0.00    -0.010 A 
ATOM     20  C   UNL     1       7.021  -4.003  24.510  0.00  0.00    +0.007 A 
ATOM     21  C   UNL     1       6.914  -4.890  25.573  0.00  0.00    +0.000 A 
ATOM     22  C   UNL     1       8.060  -5.330  26.233  0.00  0.00    +0.000 A 
ATOM     23  C   UNL     1       9.314  -4.874  25.830  0.00  0.00    +0.000 A 
ATOM     24  C   UNL     1       9.427  -3.983  24.766  0.00  0.00    +0.007 A 
ENDBRANCH  18  19
ENDBRANCH  17  18
ENDBRANCH   4  17
TORSDOF 8
ENDMDL
MODEL 3
REMARK VINA RESULT:      -6.9      1.440      2.279
REMARK  Name = 
REMARK  8 active torsions:
REMARK  status: ('A' for Active; 'I' for Inactive)
REMARK    1  A    between atoms: N_1  and  C_2
REMARK    2  A    between atoms: C_2  and  C_3
REMARK    3  A    between atoms: C_3  and  C_4
REMARK    4  A    between atoms: C_4  and  C_5
REMARK    5  A    between atoms: N_7  and  C_8
REMARK    6  A    between atoms: C_11  and  O_12
REMARK    7  A    between atoms: O_12  and  C_13
REMARK    8  A    between atoms: C_13  and  C_14
REMARK                            x       y       z     vdW  Elec       q    Type
REMARK                         _______ _______ _______ _____ _____    ______ ____
ROOT
ATOM      1  C   UNL     1      10.071   2.263  23.224  0.00  0.00    +0.034 A 
ATOM      2  C   UNL     1      10.366   1.465  24.328  0.00  0.00    +0.027 A 
ATOM      3  C   UNL     1      10.373   0.075  24.190  0.00  0.00    +0.047 A 
ATOM      4  C   UNL     1      10.159  -0.518  22.942  0.00  0.00    +0.121 A 
ATOM      5  C   UNL     1       9.928   0.288  21.829  0.00  0.00    +0.047 A 
ATOM      6  C   UNL     1       9.892   1.672  21.970  0.00  0.00    +0.027 A 
ENDROOT
BRANCH   1   8
ATOM      7  C   UNL     1      10.986   4.504  23.465  0.00  0.00    +0.217 C 
ATOM      8  N   UNL     1       9.897   3.648  23.400  0.00  0.00    -0.285 N 
ATOM      9  H   UNL     1       9.026   4.063  23.081  0.00  0.00    +0.155 HD
ATOM     10  O   UNL     1      12.165   4.175  23.339  0.00  0.00    -0.275 OA
BRANCH   7  11
ATOM     11  C   UNL     1      10.614   5.956  23.623  0.00  0.00    +0.097 C 
BRANCH  11  12
ATOM     12  C   UNL     1       9.173   6.104  24.107  0.00  0.00    +0.024 C 
BRANCH  12  13
ATOM     13  C   UNL     1       8.244   6.816  23.122  0.00  0.00    +0.078 C 
BRANCH  13  14
ATOM     14  N   UNL     1       8.024   6.013  21.922  0.00  0.00    -0.330 NA
ATOM     15  H   UNL     1       8.219   6.590  21.102  0.00  0.00    +0.118 HD
ATOM     16  H   UNL     1       8.724   5.270  21.892  0.00  0.00    +0.118 HD
ENDBRANCH  13  14
ENDBRANCH  12  13
ENDBRANCH  11  12
ENDBRANCH   7  11
ENDBRANCH   1   8
BRANCH   4  17
ATOM     17  O   UNL     1      10.187  -1.885  22.928  0.00  0.00    -0.487 OA
BRANCH  17  18
ATOM     18  C   UNL     1       9.476  -2.520  23.992  0.00  0.00    +0.264 C 
BRANCH  18  19
ATOM     19  C   UNL     1       8.304  -3.263  23.407  0.00  0.00    -0.010 A 
ATOM     20  C   UNL     1       7.411  -2.609  22.549  0.00  0.00    +0.007 A 
ATOM     21  C   UNL     1       6.324  -3.290  22.015  0.00  0.00    +0.000 A 
ATOM     22  C   UNL     1       6.119  -4.633  22.327  0.00  0.00    +0.000 A 
ATOM     23  C   UNL     1       7.001  -5.291  23.182  0.00  0.00    +0.000 A 
ATOM     24  C   UNL     1       8.091  -4.613  23.722  0.00  0.00    +0.007 A 
ENDBRANCH  18  19
ENDBRANCH  17  18
ENDBRANCH   4  17
TORSDOF 8
ENDMDL
MODEL 4
REMARK VINA RESULT:      -6.8      1.759      2.892
REMARK  Name = 
REMARK  8 active torsions:
REMARK  status: ('A' for Active; 'I' for Inactive)
REMARK    1  A    between atoms: N_1  and  C_2
REMARK    2  A    between atoms: C_2  and  C_3
REMARK    3  A    between atoms: C_3  and  C_4
REMARK    4  A    between atoms: C_4  and  C_5
REMARK    5  A    between atoms: N_7  and  C_8
REMARK    6  A    between atoms: C_11  and  O_12
REMARK    7  A    between atoms: O_12  and  C_13
REMARK    8  A    between atoms: C_13  and  C_14
REMARK                            x       y       z     vdW  Elec       q    Type
REMARK                         _______ _______ _______ _____ _____    ______ ____
ROOT
ATOM      1  C   UNL     1      10.033   2.266  23.239  0.00  0.00    +0.034 A 
ATOM      2  C   UNL     1      10.303   1.445  24.333  0.00  0.00    +0.027 A 
ATOM      3  C   UNL     1      10.267   0.057  24.178  0.00  0.00    +0.047 A 
ATOM      4  C   UNL     1      10.033  -0.513  22.923  0.00  0.00    +0.121 A 
ATOM      5  C   UNL     1       9.828   0.314  21.820  0.00  0.00    +0.047 A 
ATOM      6  C   UNL     1       9.836   1.696  21.979  0.00  0.00    +0.027 A 
ENDROOT
BRANCH   1   8
ATOM      7  C   UNL     1      11.019   4.475  23.489  0.00  0.00    +0.217 C 
ATOM      8  N   UNL     1       9.904   3.653  23.433  0.00  0.00    -0.285 N 
ATOM      9  H   UNL     1       9.041   4.098  23.133  0.00  0.00    +0.155 HD
ATOM     10  O   UNL     1      12.185   4.113  23.340  0.00  0.00    -0.275 OA
BRANCH   7  11
ATOM     11  C   UNL     1      10.693   5.936  23.668  0.00  0.00    +0.097 C 
BRANCH  11  12
ATOM     12  C   UNL     1       9.253   6.123  24.142  0.00  0.00    +0.024 C 
BRANCH  12  13
ATOM     13  C   UNL     1       8.325   6.766  23.110  0.00  0.00    +0.078 C 
BRANCH  13  14
ATOM     14  N   UNL     1       7.979   5.827  22.046  0.00  0.00    -0.330 NA
ATOM     15  H   UNL     1       8.840   5.423  21.672  0.00  0.00    +0.118 HD
ATOM     16  H   UNL     1       7.476   5.038  22.457  0.00  0.00    +0.118 HD
ENDBRANCH  13  14
ENDBRANCH  12  13
ENDBRANCH  11  12
ENDBRANCH   7  11
ENDBRANCH   1   8
BRANCH   4  17
ATOM     17  O   UNL     1      10.018  -1.880  22.891  0.00  0.00    -0.487 OA
BRANCH  17  18
ATOM     18  C   UNL     1       8.728  -2.470  22.718  0.00  0.00    +0.264 C 
BRANCH  18  19
ATOM     19  C   UNL     1       8.499  -3.455  23.834  0.00  0.00    -0.010 A 
ATOM     20  C   UNL     1       9.554  -3.821  24.679  0.00  0.00    +0.007 A 
ATOM     21  C   UNL     1       9.347  -4.736  25.704  0.00  0.00    +0.000 A 
ATOM     22  C   UNL     1       8.084  -5.291  25.900  0.00  0.00    +0.000 A 
ATOM     23  C   UNL     1       7.029  -4.934  25.063  0.00  0.00    +0.000 A 
ATOM     24  C   UNL     1       7.231  -4.019  24.032  0.00  0.00    +0.007 A 
ENDBRANCH  18  19
ENDBRANCH  17  18
ENDBRANCH   4  17
TORSDOF 8
ENDMDL
MODEL 5
REMARK VINA RESULT:      -6.6      1.330      1.815
REMARK  Name = 
REMARK  8 active torsions:
REMARK  status: ('A' for Active; 'I' for Inactive)
REMARK    1  A    between atoms: N_1  and  C_2
REMARK    2  A    between atoms: C_2  and  C_3
REMARK    3  A    between atoms: C_3  and  C_4
REMARK    4  A    between atoms: C_4  and  C_5
REMARK    5  A    between atoms: N_7  and  C_8
REMARK    6  A    between atoms: C_11  and  O_12
REMARK    7  A    between atoms: O_12  and  C_13
REMARK    8  A    between atoms: C_13  and  C_14
REMARK                            x       y       z     vdW  Elec       q    Type
REMARK                         _______ _______ _______ _____ _____    ______ ____
ROOT
ATOM      1  C   UNL     1      10.061   0.598  23.256  0.00  0.00    +0.034 A 
ATOM      2  C   UNL     1       9.620  -0.040  22.098  0.00  0.00    +0.027 A 
ATOM      3  C   UNL     1       9.326  -1.406  22.134  0.00  0.00    +0.047 A 
ATOM      4  C   UNL     1       9.401  -2.119  23.333  0.00  0.00    +0.121 A 
ATOM      5  C   UNL     1       9.781  -1.460  24.502  0.00  0.00    +0.047 A 
ATOM      6  C   UNL     1      10.102  -0.107  24.462  0.00  0.00    +0.027 A 
ENDROOT
BRANCH   1   8
ATOM      7  C   UNL     1       9.785   2.967  23.732  0.00  0.00    +0.217 C 
ATOM      8  N   UNL     1      10.517   1.926  23.181  0.00  0.00    -0.285 N 
ATOM      9  H   UNL     1      11.518   2.083  23.100  0.00  0.00    +0.155 HD
ATOM     10  O   UNL     1       8.733   2.850  24.357  0.00  0.00    -0.275 OA
BRANCH   7  11
ATOM     11  C   UNL     1      10.439   4.318  23.588  0.00  0.00    +0.097 C 
BRANCH  11  12
ATOM     12  C   UNL     1      11.940   4.177  23.342  0.00  0.00    +0.024 C 
BRANCH  12  13
ATOM     13  C   UNL     1      12.681   5.504  23.170  0.00  0.00    +0.078 C 
BRANCH  13  14
ATOM     14  N   UNL     1      14.110   5.293  22.958  0.00  0.00    -0.330 NA
ATOM     15  H   UNL     1      14.556   6.200  22.804  0.00  0.00    +0.118 HD
ATOM     16  H   UNL     1      14.522   4.943  23.824  0.00  0.00    +0.118 HD
ENDBRANCH  13  14
ENDBRANCH  12  13
ENDBRANCH  11  12
ENDBRANCH   7  11
ENDBRANCH   1   8
BRANCH   4  17
ATOM     17  O   UNL     1       9.093  -3.449  23.248  0.00  0.00    -0.487 OA
BRANCH  17  18
ATOM     18  C   UNL     1       8.549  -4.025  24.436  0.00  0.00    +0.264 C 
BRANCH  18  19
ATOM     19  C   UNL     1       7.319  -4.812  24.066  0.00  0.00    -0.010 A 
ATOM     20  C   UNL     1       6.384  -5.163  25.048  0.00  0.00    +0.007 A 
ATOM     21  C   UNL     1       5.254  -5.897  24.711  0.00  0.00    +0.000 A 
ATOM     22  C   UNL     1       5.042  -6.286  23.389  0.00  0.00    +0.000 A 
ATOM     23  C   UNL     1       5.969  -5.943  22.406  0.00  0.00    +0.000 A 
ATOM     24  C   UNL     1       7.105  -5.209  22.739  0.00  0.00    +0.007 A 
ENDBRANCH  18  19
ENDBRANCH  17  18
ENDBRANCH   4  17
TORSDOF 8
ENDMDL
MODEL 6
REMARK VINA RESULT:      -6.5      3.202      8.707
REMARK  Name = 
REMARK  8 active torsions:
REMARK  status: ('A' for Active; 'I' for Inactive)
REMARK    1  A    between atoms: N_1  and  C_2
REMARK    2  A    between atoms: C_2  and  C_3
REMARK    3  A    between atoms: C_3  and  C_4
REMARK    4  A    between atoms: C_4  and  C_5
REMARK    5  A    between atoms: N_7  and  C_8
REMARK    6  A    between atoms: C_11  and  O_12
REMARK    7  A    between atoms: O_12  and  C_13
REMARK    8  A    between atoms: C_13  and  C_14
REMARK                            x       y       z     vdW  Elec       q    Type
REMARK                         _______ _______ _______ _____ _____    ______ ____
ROOT
ATOM      1  C   UNL     1       9.664  -1.670  23.513  0.00  0.00    +0.034 A 
ATOM      2  C   UNL     1       9.784  -0.674  24.481  0.00  0.00    +0.027 A 
ATOM      3  C   UNL     1       9.998   0.649  24.085  0.00  0.00    +0.047 A 
ATOM      4  C   UNL     1      10.020   0.992  22.730  0.00  0.00    +0.121 A 
ATOM      5  C   UNL     1       9.835   0.001  21.767  0.00  0.00    +0.047 A 
ATOM      6  C   UNL     1       9.650  -1.321  22.160  0.00  0.00    +0.027 A 
ENDROOT
BRANCH   1   8
ATOM      7  C   UNL     1       8.416  -3.705  23.976  0.00  0.00    +0.217 C 
ATOM      8  N   UNL     1       9.618  -3.017  23.911  0.00  0.00    -0.285 N 
ATOM      9  H   UNL     1      10.447  -3.587  23.762  0.00  0.00    +0.155 HD
ATOM     10  O   UNL     1       7.315  -3.254  23.666  0.00  0.00    -0.275 OA
BRANCH   7  11
ATOM     11  C   UNL     1       8.559  -5.148  24.390  0.00  0.00    +0.097 C 
BRANCH  11  12
ATOM     12  C   UNL     1       9.038  -5.260  25.836  0.00  0.00    +0.024 C 
BRANCH  12  13
ATOM     13  C   UNL     1       7.986  -4.885  26.881  0.00  0.00    +0.078 C 
BRANCH  13  14
ATOM     14  N   UNL     1       7.015  -5.960  27.070  0.00  0.00    -0.330 NA
ATOM     15  H   UNL     1       6.283  -5.867  26.364  0.00  0.00    +0.118 HD
ATOM     16  H   UNL     1       7.469  -6.851  26.861  0.00  0.00    +0.118 HD
ENDBRANCH  13  14
ENDBRANCH  12  13
ENDBRANCH  11  12
ENDBRANCH   7  11
ENDBRANCH   1   8
BRANCH   4  17
ATOM     17  O   UNL     1      10.239   2.315  22.461  0.00  0.00    -0.487 OA
BRANCH  17  18
ATOM     18  C   UNL     1       9.504   3.231  23.275  0.00  0.00    +0.264 C 
BRANCH  18  19
ATOM     19  C   UNL     1      10.419   4.362  23.666  0.00  0.00    -0.010 A 
ATOM     20  C   UNL     1      11.775   4.325  23.319  0.00  0.00    +0.007 A 
ATOM     21  C   UNL     1      12.623   5.362  23.687  0.00  0.00    +0.000 A 
ATOM     22  C   UNL     1      12.125   6.450  24.401  0.00  0.00    +0.000 A 
ATOM     23  C   UNL     1      10.777   6.495  24.752  0.00  0.00    +0.000 A 
ATOM     24  C   UNL     1       9.923   5.457  24.388  0.00  0.00    +0.007 A 
ENDBRANCH  18  19
ENDBRANCH  17  18
ENDBRANCH   4  17
TORSDOF 8
ENDMDL
MODEL 7
REMARK VINA RESULT:      -6.5      4.822      9.309
REMARK  Name = 
REMARK  8 active torsions:
REMARK  status: ('A' for Active; 'I' for Inactive)
REMARK    1  A    between atoms: N_1  and  C_2
REMARK    2  A    between atoms: C_2  and  C_3
REMARK    3  A    between atoms: C_3  and  C_4
REMARK    4  A    between atoms: C_4  and  C_5
REMARK    5  A    between atoms: N_7  and  C_8
REMARK    6  A    between atoms: C_11  and  O_12
REMARK    7  A    between atoms: O_12  and  C_13
REMARK    8  A    between atoms: C_13  and  C_14
REMARK                            x       y       z     vdW  Elec       q    Type
REMARK                         _______ _______ _______ _____ _____    ______ ____
ROOT
ATOM      1  C   UNL     1       7.340  -4.976  25.669  0.00  0.00    +0.034 A 
ATOM      2  C   UNL     1       8.687  -5.334  25.655  0.00  0.00    +0.027 A 
ATOM      3  C   UNL     1       9.611  -4.509  25.007  0.00  0.00    +0.047 A 
ATOM      4  C   UNL     1       9.209  -3.298  24.438  0.00  0.00    +0.121 A 
ATOM      5  C   UNL     1       7.870  -2.916  24.511  0.00  0.00    +0.047 A 
ATOM      6  C   UNL     1       6.944  -3.749  25.131  0.00  0.00    +0.027 A 
ENDROOT
BRANCH   1   8
ATOM      7  C   UNL     1       6.051  -5.895  27.516  0.00  0.00    +0.217 C 
ATOM      8  N   UNL     1       6.391  -5.884  26.171  0.00  0.00    -0.285 N 
ATOM      9  H   UNL     1       5.681  -6.233  25.532  0.00  0.00    +0.155 HD
ATOM     10  O   UNL     1       6.485  -5.125  28.371  0.00  0.00    -0.275 OA
BRANCH   7  11
ATOM     11  C   UNL     1       4.994  -6.910  27.871  0.00  0.00    +0.097 C 
BRANCH  11  12
ATOM     12  C   UNL     1       3.593  -6.347  27.636  0.00  0.00    +0.024 C 
BRANCH  12  13
ATOM     13  C   UNL     1       2.974  -6.730  26.291  0.00  0.00    +0.078 C 
BRANCH  13  14
ATOM     14  N   UNL     1       3.734  -7.793  25.638  0.00  0.00    -0.330 NA
ATOM     15  H   UNL     1       4.104  -8.420  26.356  0.00  0.00    +0.118 HD
ATOM     16  H   UNL     1       3.090  -8.369  25.094  0.00  0.00    +0.118 HD
ENDBRANCH  13  14
ENDBRANCH  12  13
ENDBRANCH  11  12
ENDBRANCH   7  11
ENDBRANCH   1   8
BRANCH   4  17
ATOM     17  O   UNL     1      10.198  -2.577  23.829  0.00  0.00    -0.487 OA
BRANCH  17  18
ATOM     18  C   UNL     1       9.814  -1.913  22.624  0.00  0.00    +0.264 C 
BRANCH  18  19
ATOM     19  C   UNL     1      10.018  -0.432  22.808  0.00  0.00    -0.010 A 
ATOM     20  C   UNL     1       9.701   0.457  21.773  0.00  0.00    +0.007 A 
ATOM     21  C   UNL     1       9.896   1.823  21.936  0.00  0.00    +0.000 A 
ATOM     22  C   UNL     1      10.406   2.317  23.136  0.00  0.00    +0.000 A 
ATOM     23  C   UNL     1      10.726   1.439  24.170  0.00  0.00    +0.000 A 
ATOM     24  C   UNL     1      10.534   0.069  24.011  0.00  0.00    +0.007 A 
ENDBRANCH  18  19
ENDBRANCH  17  18
ENDBRANCH   4  17
TORSDOF 8
ENDMDL
MODEL 8
REMARK VINA RESULT:      -6.4      1.841      2.870
REMARK  Name = 
REMARK  8 active torsions:
REMARK  status: ('A' for Active; 'I' for Inactive)
REMARK    1  A    between atoms: N_1  and  C_2
REMARK    2  A    between atoms: C_2  and  C_3
REMARK    3  A    between atoms: C_3  and  C_4
REMARK    4  A    between atoms: C_4  and  C_5
REMARK    5  A    between atoms: N_7  and  C_8
REMARK    6  A    between atoms: C_11  and  O_12
REMARK    7  A    between atoms: O_12  and  C_13
REMARK    8  A    between atoms: C_13  and  C_14
REMARK                            x       y       z     vdW  Elec       q    Type
REMARK                         _______ _______ _______ _____ _____    ______ ____
ROOT
ATOM      1  C   UNL     1      10.008   2.206  23.065  0.00  0.00    +0.034 A 
ATOM      2  C   UNL     1      10.392   1.493  24.199  0.00  0.00    +0.027 A 
ATOM      3  C   UNL     1      10.409   0.096  24.161  0.00  0.00    +0.047 A 
ATOM      4  C   UNL     1      10.115  -0.587  22.977  0.00  0.00    +0.121 A 
ATOM      5  C   UNL     1       9.794   0.134  21.829  0.00  0.00    +0.047 A 
ATOM      6  C   UNL     1       9.749   1.525  21.873  0.00  0.00    +0.027 A 
ENDROOT
BRANCH   1   8
ATOM      7  C   UNL     1       8.588   4.143  23.450  0.00  0.00    +0.217 C 
ATOM      8  N   UNL     1       9.828   3.598  23.154  0.00  0.00    -0.285 N 
ATOM      9  H   UNL     1      10.633   4.168  23.402  0.00  0.00    +0.155 HD
ATOM     10  O   UNL     1       7.566   3.505  23.700  0.00  0.00    -0.275 OA
BRANCH   7  11
ATOM     11  C   UNL     1       8.586   5.648  23.538  0.00  0.00    +0.097 C 
BRANCH  11  12
ATOM     12  C   UNL     1       7.860   6.267  22.345  0.00  0.00    +0.024 C 
BRANCH  12  13
ATOM     13  C   UNL     1       6.392   6.608  22.605  0.00  0.00    +0.078 C 
BRANCH  13  14
ATOM     14  N   UNL     1       5.517   5.487  22.271  0.00  0.00    -0.330 NA
ATOM     15  H   UNL     1       4.580   5.685  22.627  0.00  0.00    +0.118 HD
ATOM     16  H   UNL     1       5.409   5.448  21.256  0.00  0.00    +0.118 HD
ENDBRANCH  13  14
ENDBRANCH  12  13
ENDBRANCH  11  12
ENDBRANCH   7  11
ENDBRANCH   1   8
BRANCH   4  17
ATOM     17  O   UNL     1      10.161  -1.951  23.059  0.00  0.00    -0.487 OA
BRANCH  17  18
ATOM     18  C   UNL     1       9.331  -2.529  24.067  0.00  0.00    +0.264 C 
BRANCH  18  19
ATOM     19  C   UNL     1       8.232  -3.309  23.393  0.00  0.00    -0.010 A 
ATOM     20  C   UNL     1       7.348  -2.668  22.517  0.00  0.00    +0.007 A 
ATOM     21  C   UNL     1       6.328  -3.382  21.901  0.00  0.00    +0.000 A 
ATOM     22  C   UNL     1       6.182  -4.745  22.149  0.00  0.00    +0.000 A 
ATOM     23  C   UNL     1       7.056  -5.391  23.022  0.00  0.00    +0.000 A 
ATOM     24  C   UNL     1       8.079  -4.679  23.644  0.00  0.00    +0.007 A 
ENDBRANCH  18  19
ENDBRANCH  17  18
ENDBRANCH   4  17
TORSDOF 8
ENDMDL
MODEL 9
REMARK VINA RESULT:      -6.4      1.916      2.759
REMARK  Name = 
REMARK  8 active torsions:
REMARK  status: ('A' for Active; 'I' for Inactive)
REMARK    1  A    between atoms: N_1  and  C_2
REMARK    2  A    between atoms: C_2  and  C_3
REMARK    3  A    between atoms: C_3  and  C_4
REMARK    4  A    between atoms: C_4  and  C_5
REMARK    5  A    between atoms: N_7  and  C_8
REMARK    6  A    between atoms: C_11  and  O_12
REMARK    7  A    between atoms: O_12  and  C_13
REMARK    8  A    between atoms: C_13  and  C_14
REMARK                            x       y       z     vdW  Elec       q    Type
REMARK                         _______ _______ _______ _____ _____    ______ ____
ROOT
ATOM      1  C   UNL     1       9.130   0.423  23.539  0.00  0.00    +0.034 A 
ATOM      2  C   UNL     1       7.939   0.098  24.186  0.00  0.00    +0.027 A 
ATOM      3  C   UNL     1       7.198  -1.004  23.752  0.00  0.00    +0.047 A 
ATOM      4  C   UNL     1       7.675  -1.823  22.725  0.00  0.00    +0.121 A 
ATOM      5  C   UNL     1       8.898  -1.530  22.125  0.00  0.00    +0.047 A 
ATOM      6  C   UNL     1       9.624  -0.416  22.537  0.00  0.00    +0.027 A 
ENDROOT
BRANCH   1   8
ATOM      7  C   UNL     1       9.454   2.814  23.235  0.00  0.00    +0.217 C 
ATOM      8  N   UNL     1       9.786   1.624  23.864  0.00  0.00    -0.285 N 
ATOM      9  H   UNL     1      10.188   1.711  24.793  0.00  0.00    +0.155 HD
ATOM     10  O   UNL     1       8.564   2.959  22.399  0.00  0.00    -0.275 OA
BRANCH   7  11
ATOM     11  C   UNL     1      10.234   4.006  23.730  0.00  0.00    +0.097 C 
BRANCH  11  12
ATOM     12  C   UNL     1      11.687   3.942  23.264  0.00  0.00    +0.024 C 
BRANCH  12  13
ATOM     13  C   UNL     1      12.457   5.256  23.411  0.00  0.00    +0.078 C 
BRANCH  13  14
ATOM     14  N   UNL     1      13.887   5.064  23.180  0.00  0.00    -0.330 NA
ATOM     15  H   UNL     1      14.160   4.154  23.557  0.00  0.00    +0.118 HD
ATOM     16  H   UNL     1      14.049   4.990  22.175  0.00  0.00    +0.118 HD
ENDBRANCH  13  14
ENDBRANCH  12  13
ENDBRANCH  11  12
ENDBRANCH   7  11
ENDBRANCH   1   8
BRANCH   4  17
ATOM     17  O   UNL     1       6.865  -2.870  22.382  0.00  0.00    -0.487 OA
BRANCH  17  18
ATOM     18  C   UNL     1       7.479  -4.158  22.439  0.00  0.00    +0.264 C 
BRANCH  18  19
ATOM     19  C   UNL     1       7.575  -4.579  23.882  0.00  0.00    -0.010 A 
ATOM     20  C   UNL     1       6.417  -4.898  24.603  0.00  0.00    +0.007 A 
ATOM     21  C   UNL     1       6.502  -5.277  25.936  0.00  0.00    +0.000 A 
ATOM     22  C   UNL     1       7.744  -5.347  26.565  0.00  0.00    +0.000 A 
ATOM     23  C   UNL     1       8.902  -5.029  25.856  0.00  0.00    +0.000 A 
ATOM     24  C   UNL     1       8.822  -4.646  24.519  0.00  0.00    +0.007 A 
ENDBRANCH  18  19
ENDBRANCH  17  18
ENDBRANCH   4  17
TORSDOF 8
ENDMDL
