MODEL 1
REMARK VINA RESULT:      -6.8      0.000      0.000
REMARK  Name = 
REMARK  16 active torsions:
REMARK  status: ('A' for Active; 'I' for Inactive)
REMARK    1  A    between atoms: O_1  and  C_2
REMARK    2  A    between atoms: C_2  and  C_3
REMARK    3  A    between atoms: C_6  and  O_8
REMARK    4  A    between atoms: O_8  and  P_9
REMARK    5  A    between atoms: P_9  and  O_10
REMARK    6  A    between atoms: P_9  and  O_12
REMARK    7  A    between atoms: O_12  and  P_13
REMARK    8  A    between atoms: P_13  and  O_14
REMARK    9  A    between atoms: P_13  and  O_16
REMARK   10  A    between atoms: O_16  and  C_17
REMARK   11  A    between atoms: C_17  and  C_18
REMARK   12  A    between atoms: C_21  and  N_29
REMARK   13  A    between atoms: C_23  and  O_25
REMARK   14  A    between atoms: C_26  and  O_28
REMARK   15  A    between atoms: C_40  and  O_42
REMARK   16  A    between atoms: C_43  and  O_45
REMARK                            x       y       z     vdW  Elec       q    Type
REMARK                         _______ _______ _______ _____ _____    ______ ____
ROOT
ATOM      1  P   UNL     1       9.246  -1.472  22.411  0.00  0.00    +0.483 P 
ATOM      2  O   UNL     1      10.678  -1.902  22.274  0.00  0.00    -0.227 OA
ENDROOT
BRANCH   1   3
ATOM      3  O   UNL     1       8.892  -1.195  23.954  0.00  0.00    -0.302 OA
ATOM      4  H   UNL     1       9.689  -0.934  24.455  0.00  0.00    +0.222 HD
ENDBRANCH   1   3
BRANCH   1   5
ATOM      5  O   UNL     1       8.152  -2.560  22.047  0.00  0.00    -0.186 OA
BRANCH   5   6
ATOM      6  P   UNL     1       6.636  -2.644  22.486  0.00  0.00    +0.486 P 
ATOM      7  O   UNL     1       5.725  -3.320  21.532  0.00  0.00    -0.227 OA
BRANCH   6   8
ATOM      8  O   UNL     1       6.213  -1.137  22.803  0.00  0.00    -0.302 OA
ATOM      9  H   UNL     1       5.330  -1.111  23.206  0.00  0.00    +0.222 HD
ENDBRANCH   6   8
BRANCH   6  10
ATOM     10  O   UNL     1       6.747  -3.341  23.898  0.00  0.00    -0.253 OA
BRANCH  10  16
ATOM     11  C   UNL     1       6.164  -4.874  26.291  0.00  0.00    +0.178 C 
ATOM     12  C   UNL     1       7.413  -4.781  27.160  0.00  0.00    +0.177 C 
ATOM     13  C   UNL     1       8.540  -4.026  26.425  0.00  0.00    +0.184 C 
ATOM     14  C   UNL     1       8.701  -4.481  24.969  0.00  0.00    +0.253 C 
ATOM     15  F   UNL     1       9.278  -5.722  24.980  0.00  0.00    -0.237 F 
ATOM     16  C   UNL     1       7.374  -4.571  24.200  0.00  0.00    +0.298 C 
ATOM     17  O   UNL     1       6.457  -5.367  24.961  0.00  0.00    -0.340 OA
BRANCH  12  18
ATOM     18  O   UNL     1       7.818  -6.107  27.506  0.00  0.00    -0.386 OA
ATOM     19  H   UNL     1       7.203  -6.443  28.178  0.00  0.00    +0.210 HD
ENDBRANCH  12  18
BRANCH  13  20
ATOM     20  O   UNL     1       8.400  -2.604  26.554  0.00  0.00    -0.386 OA
ATOM     21  H   UNL     1       8.123  -2.206  25.709  0.00  0.00    +0.210 HD
ENDBRANCH  13  20
BRANCH  11  22
ATOM     22  C   UNL     1       5.495  -3.506  26.304  0.00  0.00    +0.190 C 
BRANCH  22  23
ATOM     23  O   UNL     1       5.656  -2.940  27.571  0.00  0.00    -0.392 OA
ATOM     24  H   UNL     1       6.445  -3.371  27.931  0.00  0.00    +0.210 HD
ENDBRANCH  22  23
ENDBRANCH  11  22
ENDBRANCH  10  16
ENDBRANCH   6  10
ENDBRANCH   5   6
ENDBRANCH   1   5
BRANCH   1  25
ATOM     25  O   UNL     1       8.849  -0.051  21.765  0.00  0.00    -0.284 OA
BRANCH  25  26
ATOM     26  C   UNL     1       9.718   1.075  21.936  0.00  0.00    +0.206 C 
BRANCH  26  27
ATOM     27  C   UNL     1       9.037   2.321  22.593  0.00  0.00    +0.178 C 
ATOM     28  C   UNL     1       7.615   2.773  22.163  0.00  0.00    +0.178 C 
ATOM     29  C   UNL     1       6.709   2.471  23.383  0.00  0.00    +0.195 C 
ATOM     30  C   UNL     1       7.620   1.627  24.285  0.00  0.00    +0.255 C 
ATOM     31  O   UNL     1       8.960   2.091  24.022  0.00  0.00    -0.346 OA
BRANCH  30  32
ATOM     32  N   UNL     1       7.280   1.743  25.696  0.00  0.00    -0.271 N 
ATOM     33  C   UNL     1       6.863   0.581  26.335  0.00  0.00    +0.331 A 
ATOM     34  O   UNL     1       6.708  -0.493  25.748  0.00  0.00    -0.246 OA
ATOM     35  N   UNL     1       6.602   0.692  27.672  0.00  0.00    -0.275 N 
ATOM     36  H   UNL     1       6.310  -0.143  28.152  0.00  0.00    +0.173 HD
ATOM     37  C   UNL     1       6.631   1.848  28.391  0.00  0.00    +0.254 A 
ATOM     38  O   UNL     1       6.344   1.905  29.581  0.00  0.00    -0.268 OA
ATOM     39  C   UNL     1       7.002   3.060  27.642  0.00  0.00    +0.088 A 
ATOM     40  C   UNL     1       7.301   2.953  26.351  0.00  0.00    +0.098 A 
ENDBRANCH  30  32
BRANCH  29  41
ATOM     41  O   UNL     1       5.439   1.897  23.076  0.00  0.00    -0.385 OA
ATOM     42  H   UNL     1       4.761   2.321  23.644  0.00  0.00    +0.210 HD
ENDBRANCH  29  41
BRANCH  28  43
ATOM     43  O   UNL     1       7.662   4.201  21.926  0.00  0.00    -0.386 OA
ATOM     44  H   UNL     1       8.361   4.594  22.475  0.00  0.00    +0.210 HD
ENDBRANCH  28  43
ENDBRANCH  26  27
ENDBRANCH  25  26
ENDBRANCH   1  25
TORSDOF 16
ENDMDL
MODEL 2
REMARK VINA RESULT:      -6.7      3.028      7.335
REMARK  Name = 
REMARK  16 active torsions:
REMARK  status: ('A' for Active; 'I' for Inactive)
REMARK    1  A    between atoms: O_1  and  C_2
REMARK    2  A    between atoms: C_2  and  C_3
REMARK    3  A    between atoms: C_6  and  O_8
REMARK    4  A    between atoms: O_8  and  P_9
REMARK    5  A    between atoms: P_9  and  O_10
REMARK    6  A    between atoms: P_9  and  O_12
REMARK    7  A    between atoms: O_12  and  P_13
REMARK    8  A    between atoms: P_13  and  O_14
REMARK    9  A    between atoms: P_13  and  O_16
REMARK   10  A    between atoms: O_16  and  C_17
REMARK   11  A    between atoms: C_17  and  C_18
REMARK   12  A    between atoms: C_21  and  N_29
REMARK   13  A    between atoms: C_23  and  O_25
REMARK   14  A    between atoms: C_26  and  O_28
REMARK   15  A    between atoms: C_40  and  O_42
REMARK   16  A    between atoms: C_43  and  O_45
REMARK                            x       y       z     vdW  Elec       q    Type
REMARK                         _______ _______ _______ _____ _____    ______ ____
ROOT
ATOM      1  P   UNL     1       9.179  -1.782  23.815  0.00  0.00    +0.483 P 
ATOM      2  O   UNL     1       8.432  -1.771  25.117  0.00  0.00    -0.227 OA
ENDROOT
BRANCH   1   3
ATOM      3  O   UNL     1      10.196  -3.025  23.766  0.00  0.00    -0.302 OA
ATOM      4  H   UNL     1      11.078  -2.770  24.097  0.00  0.00    +0.222 HD
ENDBRANCH   1   3
BRANCH   1   5
ATOM      5  O   UNL     1      10.176  -0.574  23.572  0.00  0.00    -0.186 OA
BRANCH   5   6
ATOM      6  P   UNL     1      10.487   0.671  24.497  0.00  0.00    +0.486 P 
ATOM      7  O   UNL     1      11.889   1.151  24.481  0.00  0.00    -0.227 OA
BRANCH   6   8
ATOM      8  O   UNL     1       9.983   0.242  25.951  0.00  0.00    -0.302 OA
ATOM      9  H   UNL     1       9.096  -0.150  25.899  0.00  0.00    +0.222 HD
ENDBRANCH   6   8
BRANCH   6  10
ATOM     10  O   UNL     1       9.424   1.722  23.990  0.00  0.00    -0.253 OA
BRANCH  10  16
ATOM     11  C   UNL     1       7.235   1.795  22.089  0.00  0.00    +0.178 C 
ATOM     12  C   UNL     1       6.674   3.211  22.153  0.00  0.00    +0.177 C 
ATOM     13  C   UNL     1       7.378   4.032  23.254  0.00  0.00    +0.184 C 
ATOM     14  C   UNL     1       7.528   3.251  24.566  0.00  0.00    +0.253 C 
ATOM     15  F   UNL     1       6.293   3.169  25.149  0.00  0.00    -0.237 F 
ATOM     16  C   UNL     1       8.069   1.825  24.376  0.00  0.00    +0.298 C 
ATOM     17  O   UNL     1       7.270   1.160  23.390  0.00  0.00    -0.340 OA
BRANCH  12  18
ATOM     18  O   UNL     1       5.268   3.126  22.390  0.00  0.00    -0.386 OA
ATOM     19  H   UNL     1       5.012   3.879  22.950  0.00  0.00    +0.210 HD
ENDBRANCH  12  18
BRANCH  13  20
ATOM     20  O   UNL     1       8.615   4.592  22.792  0.00  0.00    -0.386 OA
ATOM     21  H   UNL     1       9.374   4.143  23.206  0.00  0.00    +0.210 HD
ENDBRANCH  13  20
BRANCH  11  22
ATOM     22  C   UNL     1       8.594   1.872  21.407  0.00  0.00    +0.190 C 
BRANCH  22  23
ATOM     23  O   UNL     1       9.005   0.579  21.076  0.00  0.00    -0.392 OA
ATOM     24  H   UNL     1       9.745   0.400  21.673  0.00  0.00    +0.210 HD
ENDBRANCH  22  23
ENDBRANCH  11  22
ENDBRANCH  10  16
ENDBRANCH   6  10
ENDBRANCH   5   6
ENDBRANCH   1   5
BRANCH   1  25
ATOM     25  O   UNL     1       8.316  -2.063  22.484  0.00  0.00    -0.284 OA
BRANCH  25  26
ATOM     26  C   UNL     1       6.914  -2.337  22.590  0.00  0.00    +0.206 C 
BRANCH  26  27
ATOM     27  C   UNL     1       6.555  -3.859  22.615  0.00  0.00    +0.178 C 
ATOM     28  C   UNL     1       7.648  -4.940  22.398  0.00  0.00    +0.178 C 
ATOM     29  C   UNL     1       7.801  -5.640  23.772  0.00  0.00    +0.195 C 
ATOM     30  C   UNL     1       7.000  -4.728  24.712  0.00  0.00    +0.255 C 
ATOM     31  O   UNL     1       5.953  -4.161  23.898  0.00  0.00    -0.346 OA
BRANCH  30  32
ATOM     32  N   UNL     1       6.459  -5.439  25.862  0.00  0.00    -0.271 N 
ATOM     33  C   UNL     1       7.214  -5.405  27.027  0.00  0.00    +0.331 A 
ATOM     34  O   UNL     1       8.325  -4.872  27.096  0.00  0.00    -0.246 OA
ATOM     35  N   UNL     1       6.668  -6.028  28.115  0.00  0.00    -0.275 N 
ATOM     36  H   UNL     1       7.197  -6.003  28.971  0.00  0.00    +0.173 HD
ATOM     37  C   UNL     1       5.507  -6.740  28.119  0.00  0.00    +0.254 A 
ATOM     38  O   UNL     1       5.081  -7.321  29.110  0.00  0.00    -0.268 OA
ATOM     39  C   UNL     1       4.792  -6.807  26.834  0.00  0.00    +0.088 A 
ATOM     40  C   UNL     1       5.293  -6.167  25.782  0.00  0.00    +0.098 A 
ENDBRANCH  30  32
BRANCH  29  41
ATOM     41  O   UNL     1       9.142  -5.915  24.173  0.00  0.00    -0.385 OA
ATOM     42  H   UNL     1       9.271  -6.888  24.179  0.00  0.00    +0.210 HD
ENDBRANCH  29  41
BRANCH  28  43
ATOM     43  O   UNL     1       7.147  -5.881  21.419  0.00  0.00    -0.386 OA
ATOM     44  H   UNL     1       7.081  -5.441  20.555  0.00  0.00    +0.210 HD
ENDBRANCH  28  43
ENDBRANCH  26  27
ENDBRANCH  25  26
ENDBRANCH   1  25
TORSDOF 16
ENDMDL
MODEL 3
REMARK VINA RESULT:      -6.5      3.333      7.406
REMARK  Name = 
REMARK  16 active torsions:
REMARK  status: ('A' for Active; 'I' for Inactive)
REMARK    1  A    between atoms: O_1  and  C_2
REMARK    2  A    between atoms: C_2  and  C_3
REMARK    3  A    between atoms: C_6  and  O_8
REMARK    4  A    between atoms: O_8  and  P_9
REMARK    5  A    between atoms: P_9  and  O_10
REMARK    6  A    between atoms: P_9  and  O_12
REMARK    7  A    between atoms: O_12  and  P_13
REMARK    8  A    between atoms: P_13  and  O_14
REMARK    9  A    between atoms: P_13  and  O_16
REMARK   10  A    between atoms: O_16  and  C_17
REMARK   11  A    between atoms: C_17  and  C_18
REMARK   12  A    between atoms: C_21  and  N_29
REMARK   13  A    between atoms: C_23  and  O_25
REMARK   14  A    between atoms: C_26  and  O_28
REMARK   15  A    between atoms: C_40  and  O_42
REMARK   16  A    between atoms: C_43  and  O_45
REMARK                            x       y       z     vdW  Elec       q    Type
REMARK                         _______ _______ _______ _____ _____    ______ ____
ROOT
ATOM      1  P   UNL     1       6.485   0.438  27.509  0.00  0.00    +0.483 P 
ATOM      2  O   UNL     1       6.160   0.651  28.959  0.00  0.00    -0.227 OA
ENDROOT
BRANCH   1   3
ATOM      3  O   UNL     1       7.950   1.008  27.177  0.00  0.00    -0.302 OA
ATOM      4  H   UNL     1       8.431   0.409  26.574  0.00  0.00    +0.222 HD
ENDBRANCH   1   3
BRANCH   1   5
ATOM      5  O   UNL     1       5.607   1.252  26.470  0.00  0.00    -0.186 OA
BRANCH   5   6
ATOM      6  P   UNL     1       5.531   1.115  24.897  0.00  0.00    +0.486 P 
ATOM      7  O   UNL     1       4.574   2.020  24.217  0.00  0.00    -0.227 OA
BRANCH   6   8
ATOM      8  O   UNL     1       5.237  -0.432  24.630  0.00  0.00    -0.302 OA
ATOM      9  H   UNL     1       5.985  -0.975  24.930  0.00  0.00    +0.222 HD
ENDBRANCH   6   8
BRANCH   6  10
ATOM     10  O   UNL     1       7.040   1.321  24.483  0.00  0.00    -0.253 OA
BRANCH  10  16
ATOM     11  C   UNL     1       8.741   1.159  22.138  0.00  0.00    +0.178 C 
ATOM     12  C   UNL     1      10.142   1.532  22.613  0.00  0.00    +0.177 C 
ATOM     13  C   UNL     1      10.124   1.958  24.096  0.00  0.00    +0.184 C 
ATOM     14  C   UNL     1       8.969   2.914  24.421  0.00  0.00    +0.253 C 
ATOM     15  F   UNL     1       9.269   4.133  23.876  0.00  0.00    -0.237 F 
ATOM     16  C   UNL     1       7.613   2.454  23.864  0.00  0.00    +0.298 C 
ATOM     17  O   UNL     1       7.763   2.175  22.466  0.00  0.00    -0.340 OA
BRANCH  12  18
ATOM     18  O   UNL     1      10.633   2.583  21.779  0.00  0.00    -0.386 OA
ATOM     19  H   UNL     1      11.527   2.814  22.082  0.00  0.00    +0.210 HD
ENDBRANCH  12  18
BRANCH  13  20
ATOM     20  O   UNL     1      10.177   0.826  24.976  0.00  0.00    -0.386 OA
ATOM     21  H   UNL     1      10.659   1.045  25.793  0.00  0.00    +0.210 HD
ENDBRANCH  13  20
BRANCH  11  22
ATOM     22  C   UNL     1       8.416  -0.213  22.711  0.00  0.00    +0.190 C 
BRANCH  22  23
ATOM     23  O   UNL     1       9.535  -1.037  22.566  0.00  0.00    -0.392 OA
ATOM     24  H   UNL     1       9.428  -1.713  23.252  0.00  0.00    +0.210 HD
ENDBRANCH  22  23
ENDBRANCH  11  22
ENDBRANCH  10  16
ENDBRANCH   6  10
ENDBRANCH   5   6
ENDBRANCH   1   5
BRANCH   1  25
ATOM     25  O   UNL     1       6.651  -1.088  27.018  0.00  0.00    -0.284 OA
BRANCH  25  26
ATOM     26  C   UNL     1       7.946  -1.581  26.656  0.00  0.00    +0.206 C 
BRANCH  26  27
ATOM     27  C   UNL     1       7.951  -2.516  25.402  0.00  0.00    +0.178 C 
ATOM     28  C   UNL     1       9.032  -3.618  25.233  0.00  0.00    +0.178 C 
ATOM     29  C   UNL     1       8.273  -4.958  25.396  0.00  0.00    +0.195 C 
ATOM     30  C   UNL     1       6.898  -4.510  25.916  0.00  0.00    +0.255 C 
ATOM     31  O   UNL     1       6.677  -3.205  25.346  0.00  0.00    -0.346 OA
BRANCH  30  32
ATOM     32  N   UNL     1       5.833  -5.438  25.561  0.00  0.00    -0.271 N 
ATOM     33  C   UNL     1       5.494  -6.391  26.513  0.00  0.00    +0.331 A 
ATOM     34  O   UNL     1       6.096  -6.521  27.583  0.00  0.00    -0.246 OA
ATOM     35  N   UNL     1       4.454  -7.218  26.191  0.00  0.00    -0.275 N 
ATOM     36  H   UNL     1       4.189  -7.908  26.874  0.00  0.00    +0.173 HD
ATOM     37  C   UNL     1       3.798  -7.236  24.998  0.00  0.00    +0.254 A 
ATOM     38  O   UNL     1       2.901  -8.029  24.739  0.00  0.00    -0.268 OA
ATOM     39  C   UNL     1       4.255  -6.255  23.999  0.00  0.00    +0.088 A 
ATOM     40  C   UNL     1       5.236  -5.417  24.321  0.00  0.00    +0.098 A 
ENDBRANCH  30  32
BRANCH  29  41
ATOM     41  O   UNL     1       8.937  -5.948  26.179  0.00  0.00    -0.385 OA
ATOM     42  H   UNL     1       9.791  -5.577  26.488  0.00  0.00    +0.210 HD
ENDBRANCH  29  41
BRANCH  28  43
ATOM     43  O   UNL     1       9.561  -3.511  23.889  0.00  0.00    -0.386 OA
ATOM     44  H   UNL     1       9.855  -2.598  23.732  0.00  0.00    +0.210 HD
ENDBRANCH  28  43
ENDBRANCH  26  27
ENDBRANCH  25  26
ENDBRANCH   1  25
TORSDOF 16
ENDMDL
MODEL 4
REMARK VINA RESULT:      -6.5      3.074      7.157
REMARK  Name = 
REMARK  16 active torsions:
REMARK  status: ('A' for Active; 'I' for Inactive)
REMARK    1  A    between atoms: O_1  and  C_2
REMARK    2  A    between atoms: C_2  and  C_3
REMARK    3  A    between atoms: C_6  and  O_8
REMARK    4  A    between atoms: O_8  and  P_9
REMARK    5  A    between atoms: P_9  and  O_10
REMARK    6  A    between atoms: P_9  and  O_12
REMARK    7  A    between atoms: O_12  and  P_13
REMARK    8  A    between atoms: P_13  and  O_14
REMARK    9  A    between atoms: P_13  and  O_16
REMARK   10  A    between atoms: O_16  and  C_17
REMARK   11  A    between atoms: C_17  and  C_18
REMARK   12  A    between atoms: C_21  and  N_29
REMARK   13  A    between atoms: C_23  and  O_25
REMARK   14  A    between atoms: C_26  and  O_28
REMARK   15  A    between atoms: C_40  and  O_42
REMARK   16  A    between atoms: C_43  and  O_45
REMARK                            x       y       z     vdW  Elec       q    Type
REMARK                         _______ _______ _______ _____ _____    ______ ____
ROOT
ATOM      1  P   UNL     1       8.374  -3.065  23.757  0.00  0.00    +0.483 P 
ATOM      2  O   UNL     1       8.680  -4.516  23.524  0.00  0.00    -0.227 OA
ENDROOT
BRANCH   1   3
ATOM      3  O   UNL     1       9.294  -2.144  22.816  0.00  0.00    -0.302 OA
ATOM      4  H   UNL     1       9.839  -1.532  23.348  0.00  0.00    +0.222 HD
ENDBRANCH   1   3
BRANCH   1   5
ATOM      5  O   UNL     1       8.748  -2.494  25.188  0.00  0.00    -0.186 OA
BRANCH   5   6
ATOM      6  P   UNL     1       8.415  -1.085  25.823  0.00  0.00    +0.486 P 
ATOM      7  O   UNL     1       9.134  -0.758  27.078  0.00  0.00    -0.227 OA
BRANCH   6   8
ATOM      8  O   UNL     1       6.826  -1.069  25.984  0.00  0.00    -0.302 OA
ATOM      9  H   UNL     1       6.425  -0.492  25.313  0.00  0.00    +0.222 HD
ENDBRANCH   6   8
BRANCH   6  10
ATOM     10  O   UNL     1       8.714  -0.109  24.619  0.00  0.00    -0.253 OA
BRANCH  10  16
ATOM     11  C   UNL     1       7.345   2.051  23.251  0.00  0.00    +0.178 C 
ATOM     12  C   UNL     1       8.289   2.508  22.143  0.00  0.00    +0.177 C 
ATOM     13  C   UNL     1       9.634   1.756  22.223  0.00  0.00    +0.184 C 
ATOM     14  C   UNL     1      10.180   1.675  23.655  0.00  0.00    +0.253 C 
ATOM     15  F   UNL     1      10.635   2.919  24.000  0.00  0.00    -0.237 F 
ATOM     16  C   UNL     1       9.132   1.238  24.690  0.00  0.00    +0.298 C 
ATOM     17  O   UNL     1       7.976   2.075  24.553  0.00  0.00    -0.340 OA
BRANCH  12  18
ATOM     18  O   UNL     1       8.476   3.919  22.268  0.00  0.00    -0.386 OA
ATOM     19  H   UNL     1       8.175   4.185  23.152  0.00  0.00    +0.210 HD
ENDBRANCH  12  18
BRANCH  13  20
ATOM     20  O   UNL     1       9.568   0.477  21.577  0.00  0.00    -0.386 OA
ATOM     21  H   UNL     1       8.659   0.130  21.590  0.00  0.00    +0.210 HD
ENDBRANCH  13  20
BRANCH  11  22
ATOM     22  C   UNL     1       6.805   0.684  22.855  0.00  0.00    +0.190 C 
BRANCH  22  23
ATOM     23  O   UNL     1       5.784   0.330  23.740  0.00  0.00    -0.392 OA
ATOM     24  H   UNL     1       6.221   0.272  24.602  0.00  0.00    +0.210 HD
ENDBRANCH  22  23
ENDBRANCH  11  22
ENDBRANCH  10  16
ENDBRANCH   6  10
ENDBRANCH   5   6
ENDBRANCH   1   5
BRANCH   1  25
ATOM     25  O   UNL     1       6.910  -2.552  23.322  0.00  0.00    -0.284 OA
BRANCH  25  26
ATOM     26  C   UNL     1       6.022  -3.439  22.632  0.00  0.00    +0.206 C 
BRANCH  26  27
ATOM     27  C   UNL     1       4.803  -3.922  23.486  0.00  0.00    +0.178 C 
ATOM     28  C   UNL     1       4.040  -5.224  23.121  0.00  0.00    +0.178 C 
ATOM     29  C   UNL     1       4.375  -6.221  24.259  0.00  0.00    +0.195 C 
ATOM     30  C   UNL     1       5.507  -5.509  25.014  0.00  0.00    +0.255 C 
ATOM     31  O   UNL     1       5.252  -4.099  24.853  0.00  0.00    -0.346 OA
BRANCH  30  32
ATOM     32  N   UNL     1       5.571  -5.886  26.420  0.00  0.00    -0.271 N 
ATOM     33  C   UNL     1       6.832  -5.919  27.000  0.00  0.00    +0.331 A 
ATOM     34  O   UNL     1       7.872  -5.717  26.367  0.00  0.00    -0.246 OA
ATOM     35  N   UNL     1       6.872  -6.217  28.334  0.00  0.00    -0.275 N 
ATOM     36  H   UNL     1       7.777  -6.234  28.772  0.00  0.00    +0.173 HD
ATOM     37  C   UNL     1       5.800  -6.565  29.098  0.00  0.00    +0.254 A 
ATOM     38  O   UNL     1       5.893  -6.870  30.282  0.00  0.00    -0.268 OA
ATOM     39  C   UNL     1       4.500  -6.591  28.408  0.00  0.00    +0.088 A 
ATOM     40  C   UNL     1       4.447  -6.258  27.122  0.00  0.00    +0.098 A 
ENDBRANCH  30  32
BRANCH  29  41
ATOM     41  O   UNL     1       4.655  -7.556  23.841  0.00  0.00    -0.385 OA
ATOM     42  H   UNL     1       4.667  -7.578  22.860  0.00  0.00    +0.210 HD
ENDBRANCH  29  41
BRANCH  28  43
ATOM     43  O   UNL     1       2.624  -4.920  23.134  0.00  0.00    -0.386 OA
ATOM     44  H   UNL     1       2.148  -5.631  23.595  0.00  0.00    +0.210 HD
ENDBRANCH  28  43
ENDBRANCH  26  27
ENDBRANCH  25  26
ENDBRANCH   1  25
TORSDOF 16
ENDMDL
MODEL 5
REMARK VINA RESULT:      -6.4      3.270      5.681
REMARK  Name = 
REMARK  16 active torsions:
REMARK  status: ('A' for Active; 'I' for Inactive)
REMARK    1  A    between atoms: O_1  and  C_2
REMARK    2  A    between atoms: C_2  and  C_3
REMARK    3  A    between atoms: C_6  and  O_8
REMARK    4  A    between atoms: O_8  and  P_9
REMARK    5  A    between atoms: P_9  and  O_10
REMARK    6  A    between atoms: P_9  and  O_12
REMARK    7  A    between atoms: O_12  and  P_13
REMARK    8  A    between atoms: P_13  and  O_14
REMARK    9  A    between atoms: P_13  and  O_16
REMARK   10  A    between atoms: O_16  and  C_17
REMARK   11  A    between atoms: C_17  and  C_18
REMARK   12  A    between atoms: C_21  and  N_29
REMARK   13  A    between atoms: C_23  and  O_25
REMARK   14  A    between atoms: C_26  and  O_28
REMARK   15  A    between atoms: C_40  and  O_42
REMARK   16  A    between atoms: C_43  and  O_45
REMARK                            x       y       z     vdW  Elec       q    Type
REMARK                         _______ _______ _______ _____ _____    ______ ____
ROOT
ATOM      1  P   UNL     1       7.598  -4.953  26.149  0.00  0.00    +0.483 P 
ATOM      2  O   UNL     1       9.064  -4.685  26.328  0.00  0.00    -0.227 OA
ENDROOT
BRANCH   1   3
ATOM      3  O   UNL     1       6.743  -3.643  26.512  0.00  0.00    -0.302 OA
ATOM      4  H   UNL     1       7.257  -2.830  26.342  0.00  0.00    +0.222 HD
ENDBRANCH   1   3
BRANCH   1   5
ATOM      5  O   UNL     1       6.956  -6.011  27.140  0.00  0.00    -0.186 OA
BRANCH   5   6
ATOM      6  P   UNL     1       5.530  -6.008  27.823  0.00  0.00    +0.486 P 
ATOM      7  O   UNL     1       5.319  -4.981  28.870  0.00  0.00    -0.227 OA
BRANCH   6   8
ATOM      8  O   UNL     1       5.322  -7.501  28.351  0.00  0.00    -0.302 OA
ATOM      9  H   UNL     1       4.448  -7.834  28.087  0.00  0.00    +0.222 HD
ENDBRANCH   6   8
BRANCH   6  10
ATOM     10  O   UNL     1       4.575  -5.881  26.573  0.00  0.00    -0.253 OA
BRANCH  10  16
ATOM     11  C   UNL     1       2.031  -6.581  25.368  0.00  0.00    +0.178 C 
ATOM     12  C   UNL     1       2.004  -5.882  24.013  0.00  0.00    +0.177 C 
ATOM     13  C   UNL     1       3.252  -4.992  23.830  0.00  0.00    +0.184 C 
ATOM     14  C   UNL     1       3.563  -4.151  25.074  0.00  0.00    +0.253 C 
ATOM     15  F   UNL     1       2.627  -3.155  25.152  0.00  0.00    -0.237 F 
ATOM     16  C   UNL     1       3.527  -4.953  26.385  0.00  0.00    +0.298 C 
ATOM     17  O   UNL     1       2.283  -5.659  26.456  0.00  0.00    -0.340 OA
BRANCH  12  18
ATOM     18  O   UNL     1       0.803  -5.114  23.928  0.00  0.00    -0.386 OA
ATOM     19  H   UNL     1       0.153  -5.504  24.536  0.00  0.00    +0.210 HD
ENDBRANCH  12  18
BRANCH  13  20
ATOM     20  O   UNL     1       4.381  -5.746  23.368  0.00  0.00    -0.386 OA
ATOM     21  H   UNL     1       4.417  -6.616  23.803  0.00  0.00    +0.210 HD
ENDBRANCH  13  20
BRANCH  11  22
ATOM     22  C   UNL     1       3.043  -7.714  25.277  0.00  0.00    +0.190 C 
BRANCH  22  23
ATOM     23  O   UNL     1       2.933  -8.317  24.022  0.00  0.00    -0.392 OA
ATOM     24  H   UNL     1       3.848  -8.444  23.733  0.00  0.00    +0.210 HD
ENDBRANCH  22  23
ENDBRANCH  11  22
ENDBRANCH  10  16
ENDBRANCH   6  10
ENDBRANCH   5   6
ENDBRANCH   1   5
BRANCH   1  25
ATOM     25  O   UNL     1       7.088  -5.224  24.645  0.00  0.00    -0.284 OA
BRANCH  25  26
ATOM     26  C   UNL     1       7.941  -4.912  23.538  0.00  0.00    +0.206 C 
BRANCH  26  27
ATOM     27  C   UNL     1       7.509  -3.645  22.729  0.00  0.00    +0.178 C 
ATOM     28  C   UNL     1       6.213  -2.870  23.090  0.00  0.00    +0.178 C 
ATOM     29  C   UNL     1       6.698  -1.516  23.663  0.00  0.00    +0.195 C 
ATOM     30  C   UNL     1       8.207  -1.740  23.841  0.00  0.00    +0.255 C 
ATOM     31  O   UNL     1       8.582  -2.673  22.807  0.00  0.00    -0.346 OA
BRANCH  30  32
ATOM     32  N   UNL     1       8.974  -0.505  23.753  0.00  0.00    -0.271 N 
ATOM     33  C   UNL     1       9.316   0.103  24.954  0.00  0.00    +0.331 A 
ATOM     34  O   UNL     1       8.941  -0.315  26.053  0.00  0.00    -0.246 OA
ATOM     35  N   UNL     1      10.085   1.229  24.859  0.00  0.00    -0.275 N 
ATOM     36  H   UNL     1      10.351   1.676  25.721  0.00  0.00    +0.173 HD
ATOM     37  C   UNL     1      10.458   1.837  23.700  0.00  0.00    +0.254 A 
ATOM     38  O   UNL     1      11.110   2.874  23.666  0.00  0.00    -0.268 OA
ATOM     39  C   UNL     1       9.998   1.190  22.459  0.00  0.00    +0.088 A 
ATOM     40  C   UNL     1       9.288   0.070  22.542  0.00  0.00    +0.098 A 
ENDBRANCH  30  32
BRANCH  29  41
ATOM     41  O   UNL     1       6.002  -1.056  24.820  0.00  0.00    -0.385 OA
ATOM     42  H   UNL     1       5.423  -1.779  25.143  0.00  0.00    +0.210 HD
ENDBRANCH  29  41
BRANCH  28  43
ATOM     43  O   UNL     1       5.477  -2.650  21.862  0.00  0.00    -0.386 OA
ATOM     44  H   UNL     1       5.032  -3.475  21.603  0.00  0.00    +0.210 HD
ENDBRANCH  28  43
ENDBRANCH  26  27
ENDBRANCH  25  26
ENDBRANCH   1  25
TORSDOF 16
ENDMDL
MODEL 6
REMARK VINA RESULT:      -6.4      4.043      8.447
REMARK  Name = 
REMARK  16 active torsions:
REMARK  status: ('A' for Active; 'I' for Inactive)
REMARK    1  A    between atoms: O_1  and  C_2
REMARK    2  A    between atoms: C_2  and  C_3
REMARK    3  A    between atoms: C_6  and  O_8
REMARK    4  A    between atoms: O_8  and  P_9
REMARK    5  A    between atoms: P_9  and  O_10
REMARK    6  A    between atoms: P_9  and  O_12
REMARK    7  A    between atoms: O_12  and  P_13
REMARK    8  A    between atoms: P_13  and  O_14
REMARK    9  A    between atoms: P_13  and  O_16
REMARK   10  A    between atoms: O_16  and  C_17
REMARK   11  A    between atoms: C_17  and  C_18
REMARK   12  A    between atoms: C_21  and  N_29
REMARK   13  A    between atoms: C_23  and  O_25
REMARK   14  A    between atoms: C_26  and  O_28
REMARK   15  A    between atoms: C_40  and  O_42
REMARK   16  A    between atoms: C_43  and  O_45
REMARK                            x       y       z     vdW  Elec       q    Type
REMARK                         _______ _______ _______ _____ _____    ______ ____
ROOT
ATOM      1  P   UNL     1       8.204  -3.431  24.189  0.00  0.00    +0.483 P 
ATOM      2  O   UNL     1       9.599  -3.884  24.510  0.00  0.00    -0.227 OA
ENDROOT
BRANCH   1   3
ATOM      3  O   UNL     1       8.010  -3.305  22.599  0.00  0.00    -0.302 OA
ATOM      4  H   UNL     1       7.145  -3.663  22.322  0.00  0.00    +0.222 HD
ENDBRANCH   1   3
BRANCH   1   5
ATOM      5  O   UNL     1       7.824  -1.963  24.652  0.00  0.00    -0.186 OA
BRANCH   5   6
ATOM      6  P   UNL     1       6.688  -1.005  24.113  0.00  0.00    +0.486 P 
ATOM      7  O   UNL     1       6.033  -0.146  25.129  0.00  0.00    -0.227 OA
BRANCH   6   8
ATOM      8  O   UNL     1       5.668  -1.964  23.345  0.00  0.00    -0.302 OA
ATOM      9  H   UNL     1       6.150  -2.668  22.881  0.00  0.00    +0.222 HD
ENDBRANCH   6   8
BRANCH   6  10
ATOM     10  O   UNL     1       7.444  -0.217  22.973  0.00  0.00    -0.253 OA
BRANCH  10  16
ATOM     11  C   UNL     1       9.807   1.144  21.985  0.00  0.00    +0.178 C 
ATOM     12  C   UNL     1      10.363   1.928  23.169  0.00  0.00    +0.177 C 
ATOM     13  C   UNL     1       9.431   1.808  24.393  0.00  0.00    +0.184 C 
ATOM     14  C   UNL     1       7.953   1.994  24.029  0.00  0.00    +0.253 C 
ATOM     15  F   UNL     1       7.751   3.322  23.764  0.00  0.00    -0.237 F 
ATOM     16  C   UNL     1       7.513   1.183  22.800  0.00  0.00    +0.298 C 
ATOM     17  O   UNL     1       8.418   1.458  21.723  0.00  0.00    -0.340 OA
BRANCH  12  18
ATOM     18  O   UNL     1      10.521   3.291  22.770  0.00  0.00    -0.386 OA
ATOM     19  H   UNL     1       9.646   3.714  22.795  0.00  0.00    +0.210 HD
ENDBRANCH  12  18
BRANCH  13  20
ATOM     20  O   UNL     1       9.677   0.604  25.134  0.00  0.00    -0.386 OA
ATOM     21  H   UNL     1       8.944   0.420  25.748  0.00  0.00    +0.210 HD
ENDBRANCH  13  20
BRANCH  11  22
ATOM     22  C   UNL     1      10.062  -0.333  22.255  0.00  0.00    +0.190 C 
BRANCH  22  23
ATOM     23  O   UNL     1       9.578  -1.077  21.177  0.00  0.00    -0.392 OA
ATOM     24  H   UNL     1       9.834  -1.989  21.378  0.00  0.00    +0.210 HD
ENDBRANCH  22  23
ENDBRANCH  11  22
ENDBRANCH  10  16
ENDBRANCH   6  10
ENDBRANCH   5   6
ENDBRANCH   1   5
BRANCH   1  25
ATOM     25  O   UNL     1       7.009  -4.450  24.546  0.00  0.00    -0.284 OA
BRANCH  25  26
ATOM     26  C   UNL     1       6.619  -4.637  25.912  0.00  0.00    +0.206 C 
BRANCH  26  27
ATOM     27  C   UNL     1       6.012  -6.045  26.222  0.00  0.00    +0.178 C 
ATOM     28  C   UNL     1       5.064  -6.257  27.433  0.00  0.00    +0.178 C 
ATOM     29  C   UNL     1       3.672  -6.534  26.814  0.00  0.00    +0.195 C 
ATOM     30  C   UNL     1       3.881  -6.184  25.333  0.00  0.00    +0.255 C 
ATOM     31  O   UNL     1       5.265  -6.481  25.058  0.00  0.00    -0.346 OA
BRANCH  30  32
ATOM     32  N   UNL     1       2.988  -6.920  24.449  0.00  0.00    -0.271 N 
ATOM     33  C   UNL     1       2.743  -6.359  23.202  0.00  0.00    +0.331 A 
ATOM     34  O   UNL     1       3.183  -5.258  22.859  0.00  0.00    -0.246 OA
ATOM     35  N   UNL     1       1.950  -7.088  22.361  0.00  0.00    -0.275 N 
ATOM     36  H   UNL     1       1.771  -6.701  21.449  0.00  0.00    +0.173 HD
ATOM     37  C   UNL     1       1.323  -8.255  22.677  0.00  0.00    +0.254 A 
ATOM     38  O   UNL     1       0.584  -8.850  21.902  0.00  0.00    -0.268 OA
ATOM     39  C   UNL     1       1.558  -8.760  24.040  0.00  0.00    +0.088 A 
ATOM     40  C   UNL     1       2.364  -8.079  24.850  0.00  0.00    +0.098 A 
ENDBRANCH  30  32
BRANCH  29  41
ATOM     41  O   UNL     1       2.576  -5.884  27.454  0.00  0.00    -0.385 OA
ATOM     42  H   UNL     1       2.684  -4.915  27.347  0.00  0.00    +0.210 HD
ENDBRANCH  29  41
BRANCH  28  43
ATOM     43  O   UNL     1       5.526  -7.426  28.152  0.00  0.00    -0.386 OA
ATOM     44  H   UNL     1       5.929  -8.050  27.524  0.00  0.00    +0.210 HD
ENDBRANCH  28  43
ENDBRANCH  26  27
ENDBRANCH  25  26
ENDBRANCH   1  25
TORSDOF 16
ENDMDL
MODEL 7
REMARK VINA RESULT:      -6.3      2.753      4.725
REMARK  Name = 
REMARK  16 active torsions:
REMARK  status: ('A' for Active; 'I' for Inactive)
REMARK    1  A    between atoms: O_1  and  C_2
REMARK    2  A    between atoms: C_2  and  C_3
REMARK    3  A    between atoms: C_6  and  O_8
REMARK    4  A    between atoms: O_8  and  P_9
REMARK    5  A    between atoms: P_9  and  O_10
REMARK    6  A    between atoms: P_9  and  O_12
REMARK    7  A    between atoms: O_12  and  P_13
REMARK    8  A    between atoms: P_13  and  O_14
REMARK    9  A    between atoms: P_13  and  O_16
REMARK   10  A    between atoms: O_16  and  C_17
REMARK   11  A    between atoms: C_17  and  C_18
REMARK   12  A    between atoms: C_21  and  N_29
REMARK   13  A    between atoms: C_23  and  O_25
REMARK   14  A    between atoms: C_26  and  O_28
REMARK   15  A    between atoms: C_40  and  O_42
REMARK   16  A    between atoms: C_43  and  O_45
REMARK                            x       y       z     vdW  Elec       q    Type
REMARK                         _______ _______ _______ _____ _____    ______ ____
ROOT
ATOM      1  P   UNL     1       8.527  -3.719  24.066  0.00  0.00    +0.483 P 
ATOM      2  O   UNL     1       9.852  -3.054  23.826  0.00  0.00    -0.227 OA
ENDROOT
BRANCH   1   3
ATOM      3  O   UNL     1       8.704  -5.315  24.108  0.00  0.00    -0.302 OA
ATOM      4  H   UNL     1       9.648  -5.564  24.087  0.00  0.00    +0.222 HD
ENDBRANCH   1   3
BRANCH   1   5
ATOM      5  O   UNL     1       7.452  -3.569  22.911  0.00  0.00    -0.186 OA
BRANCH   5   6
ATOM      6  P   UNL     1       6.596  -4.685  22.188  0.00  0.00    +0.486 P 
ATOM      7  O   UNL     1       7.363  -5.821  21.623  0.00  0.00    -0.227 OA
BRANCH   6   8
ATOM      8  O   UNL     1       5.733  -3.901  21.096  0.00  0.00    -0.302 OA
ATOM      9  H   UNL     1       6.296  -3.628  20.353  0.00  0.00    +0.222 HD
ENDBRANCH   6   8
BRANCH   6  10
ATOM     10  O   UNL     1       5.565  -5.081  23.315  0.00  0.00    -0.253 OA
BRANCH  10  16
ATOM     11  C   UNL     1       4.118  -5.155  25.828  0.00  0.00    +0.178 C 
ATOM     12  C   UNL     1       3.045  -6.226  25.660  0.00  0.00    +0.177 C 
ATOM     13  C   UNL     1       3.045  -6.782  24.221  0.00  0.00    +0.184 C 
ATOM     14  C   UNL     1       3.139  -5.677  23.162  0.00  0.00    +0.253 C 
ATOM     15  F   UNL     1       1.931  -5.035  23.118  0.00  0.00    -0.237 F 
ATOM     16  C   UNL     1       4.231  -4.636  23.452  0.00  0.00    +0.298 C 
ATOM     17  O   UNL     1       4.056  -4.149  24.789  0.00  0.00    -0.340 OA
BRANCH  12  18
ATOM     18  O   UNL     1       1.781  -5.650  25.992  0.00  0.00    -0.386 OA
ATOM     19  H   UNL     1       1.158  -5.861  25.277  0.00  0.00    +0.210 HD
ENDBRANCH  12  18
BRANCH  13  20
ATOM     20  O   UNL     1       4.032  -7.809  24.047  0.00  0.00    -0.386 OA
ATOM     21  H   UNL     1       4.741  -7.722  24.709  0.00  0.00    +0.210 HD
ENDBRANCH  13  20
BRANCH  11  22
ATOM     22  C   UNL     1       5.462  -5.865  25.915  0.00  0.00    +0.190 C 
BRANCH  22  23
ATOM     23  O   UNL     1       5.341  -6.951  26.785  0.00  0.00    -0.392 OA
ATOM     24  H   UNL     1       6.251  -7.158  27.042  0.00  0.00    +0.210 HD
ENDBRANCH  22  23
ENDBRANCH  11  22
ENDBRANCH  10  16
ENDBRANCH   6  10
ENDBRANCH   5   6
ENDBRANCH   1   5
BRANCH   1  25
ATOM     25  O   UNL     1       7.837  -3.467  25.500  0.00  0.00    -0.284 OA
BRANCH  25  26
ATOM     26  C   UNL     1       6.859  -2.431  25.646  0.00  0.00    +0.206 C 
BRANCH  26  27
ATOM     27  C   UNL     1       7.425  -1.085  26.207  0.00  0.00    +0.178 C 
ATOM     28  C   UNL     1       8.955  -0.862  26.354  0.00  0.00    +0.178 C 
ATOM     29  C   UNL     1       9.312   0.206  25.290  0.00  0.00    +0.195 C 
ATOM     30  C   UNL     1       8.030   0.294  24.450  0.00  0.00    +0.255 C 
ATOM     31  O   UNL     1       6.952  -0.008  25.359  0.00  0.00    -0.346 OA
BRANCH  30  32
ATOM     32  N   UNL     1       7.854   1.597  23.824  0.00  0.00    -0.271 N 
ATOM     33  C   UNL     1       8.372   1.749  22.544  0.00  0.00    +0.331 A 
ATOM     34  O   UNL     1       9.017   0.869  21.969  0.00  0.00    -0.246 OA
ATOM     35  N   UNL     1       8.150   2.958  21.946  0.00  0.00    -0.275 N 
ATOM     36  H   UNL     1       8.509   3.081  21.014  0.00  0.00    +0.173 HD
ATOM     37  C   UNL     1       7.552   4.032  22.532  0.00  0.00    +0.254 A 
ATOM     38  O   UNL     1       7.416   5.112  21.970  0.00  0.00    -0.268 OA
ATOM     39  C   UNL     1       7.095   3.836  23.918  0.00  0.00    +0.088 A 
ATOM     40  C   UNL     1       7.267   2.648  24.491  0.00  0.00    +0.098 A 
ENDBRANCH  30  32
BRANCH  29  41
ATOM     41  O   UNL     1      10.514  -0.035  24.560  0.00  0.00    -0.385 OA
ATOM     42  H   UNL     1      11.124  -0.551  25.128  0.00  0.00    +0.210 HD
ENDBRANCH  29  41
BRANCH  28  43
ATOM     43  O   UNL     1       9.195  -0.335  27.681  0.00  0.00    -0.386 OA
ATOM     44  H   UNL     1       8.395  -0.448  28.221  0.00  0.00    +0.210 HD
ENDBRANCH  28  43
ENDBRANCH  26  27
ENDBRANCH  25  26
ENDBRANCH   1  25
TORSDOF 16
ENDMDL
MODEL 8
REMARK VINA RESULT:      -6.3      2.737      4.792
REMARK  Name = 
REMARK  16 active torsions:
REMARK  status: ('A' for Active; 'I' for Inactive)
REMARK    1  A    between atoms: O_1  and  C_2
REMARK    2  A    between atoms: C_2  and  C_3
REMARK    3  A    between atoms: C_6  and  O_8
REMARK    4  A    between atoms: O_8  and  P_9
REMARK    5  A    between atoms: P_9  and  O_10
REMARK    6  A    between atoms: P_9  and  O_12
REMARK    7  A    between atoms: O_12  and  P_13
REMARK    8  A    between atoms: P_13  and  O_14
REMARK    9  A    between atoms: P_13  and  O_16
REMARK   10  A    between atoms: O_16  and  C_17
REMARK   11  A    between atoms: C_17  and  C_18
REMARK   12  A    between atoms: C_21  and  N_29
REMARK   13  A    between atoms: C_23  and  O_25
REMARK   14  A    between atoms: C_26  and  O_28
REMARK   15  A    between atoms: C_40  and  O_42
REMARK   16  A    between atoms: C_43  and  O_45
REMARK                            x       y       z     vdW  Elec       q    Type
REMARK                         _______ _______ _______ _____ _____    ______ ____
ROOT
ATOM      1  P   UNL     1       6.142  -4.807  21.859  0.00  0.00    +0.483 P 
ATOM      2  O   UNL     1       6.005  -5.370  20.474  0.00  0.00    -0.227 OA
ENDROOT
BRANCH   1   3
ATOM      3  O   UNL     1       6.813  -5.890  22.838  0.00  0.00    -0.302 OA
ATOM      4  H   UNL     1       7.750  -5.674  23.009  0.00  0.00    +0.222 HD
ENDBRANCH   1   3
BRANCH   1   5
ATOM      5  O   UNL     1       4.787  -4.511  22.628  0.00  0.00    -0.186 OA
BRANCH   5   6
ATOM      6  P   UNL     1       4.193  -5.209  23.916  0.00  0.00    +0.486 P 
ATOM      7  O   UNL     1       4.140  -6.690  23.880  0.00  0.00    -0.227 OA
BRANCH   6   8
ATOM      8  O   UNL     1       2.762  -4.532  24.130  0.00  0.00    -0.302 OA
ATOM      9  H   UNL     1       2.357  -4.319  23.272  0.00  0.00    +0.222 HD
ENDBRANCH   6   8
BRANCH   6  10
ATOM     10  O   UNL     1       5.103  -4.609  25.057  0.00  0.00    -0.253 OA
BRANCH  10  16
ATOM     11  C   UNL     1       6.776  -4.769  27.421  0.00  0.00    +0.178 C 
ATOM     12  C   UNL     1       6.125  -5.811  28.324  0.00  0.00    +0.177 C 
ATOM     13  C   UNL     1       4.791  -6.303  27.721  0.00  0.00    +0.184 C 
ATOM     14  C   UNL     1       3.923  -5.153  27.196  0.00  0.00    +0.253 C 
ATOM     15  F   UNL     1       3.410  -4.487  28.276  0.00  0.00    -0.237 F 
ATOM     16  C   UNL     1       4.693  -4.146  26.327  0.00  0.00    +0.298 C 
ATOM     17  O   UNL     1       5.856  -3.717  27.045  0.00  0.00    -0.340 OA
BRANCH  12  18
ATOM     18  O   UNL     1       5.926  -5.227  29.612  0.00  0.00    -0.386 OA
ATOM     19  H   UNL     1       5.621  -4.314  29.484  0.00  0.00    +0.210 HD
ENDBRANCH  12  18
BRANCH  13  20
ATOM     20  O   UNL     1       4.996  -7.339  26.750  0.00  0.00    -0.386 OA
ATOM     21  H   UNL     1       5.768  -7.884  26.984  0.00  0.00    +0.210 HD
ENDBRANCH  13  20
BRANCH  11  22
ATOM     22  C   UNL     1       7.381  -5.507  26.235  0.00  0.00    +0.190 C 
BRANCH  22  23
ATOM     23  O   UNL     1       8.774  -5.438  26.325  0.00  0.00    -0.392 OA
ATOM     24  H   UNL     1       9.019  -4.715  25.729  0.00  0.00    +0.210 HD
ENDBRANCH  22  23
ENDBRANCH  11  22
ENDBRANCH  10  16
ENDBRANCH   6  10
ENDBRANCH   5   6
ENDBRANCH   1   5
BRANCH   1  25
ATOM     25  O   UNL     1       7.164  -3.576  22.045  0.00  0.00    -0.284 OA
BRANCH  25  26
ATOM     26  C   UNL     1       8.045  -3.549  23.174  0.00  0.00    +0.206 C 
BRANCH  26  27
ATOM     27  C   UNL     1       7.743  -2.408  24.200  0.00  0.00    +0.178 C 
ATOM     28  C   UNL     1       8.837  -1.906  25.181  0.00  0.00    +0.178 C 
ATOM     29  C   UNL     1       9.180  -0.472  24.705  0.00  0.00    +0.195 C 
ATOM     30  C   UNL     1       8.469  -0.384  23.346  0.00  0.00    +0.255 C 
ATOM     31  O   UNL     1       7.312  -1.238  23.460  0.00  0.00    -0.346 OA
BRANCH  30  32
ATOM     32  N   UNL     1       8.097   0.978  22.992  0.00  0.00    -0.271 N 
ATOM     33  C   UNL     1       8.998   1.687  22.207  0.00  0.00    +0.331 A 
ATOM     34  O   UNL     1      10.098   1.240  21.873  0.00  0.00    -0.246 OA
ATOM     35  N   UNL     1       8.610   2.944  21.835  0.00  0.00    -0.275 N 
ATOM     36  H   UNL     1       9.246   3.467  21.256  0.00  0.00    +0.173 HD
ATOM     37  C   UNL     1       7.473   3.574  22.240  0.00  0.00    +0.254 A 
ATOM     38  O   UNL     1       7.191   4.721  21.915  0.00  0.00    -0.268 OA
ATOM     39  C   UNL     1       6.596   2.802  23.136  0.00  0.00    +0.088 A 
ATOM     40  C   UNL     1       6.944   1.562  23.467  0.00  0.00    +0.098 A 
ENDBRANCH  30  32
BRANCH  29  41
ATOM     41  O   UNL     1      10.568  -0.144  24.698  0.00  0.00    -0.385 OA
ATOM     42  H   UNL     1      11.075  -0.934  24.984  0.00  0.00    +0.210 HD
ENDBRANCH  29  41
BRANCH  28  43
ATOM     43  O   UNL     1       8.251  -1.859  26.504  0.00  0.00    -0.386 OA
ATOM     44  H   UNL     1       8.057  -2.764  26.802  0.00  0.00    +0.210 HD
ENDBRANCH  28  43
ENDBRANCH  26  27
ENDBRANCH  25  26
ENDBRANCH   1  25
TORSDOF 16
ENDMDL
MODEL 9
REMARK VINA RESULT:      -6.2      2.211      2.872
REMARK  Name = 
REMARK  16 active torsions:
REMARK  status: ('A' for Active; 'I' for Inactive)
REMARK    1  A    between atoms: O_1  and  C_2
REMARK    2  A    between atoms: C_2  and  C_3
REMARK    3  A    between atoms: C_6  and  O_8
REMARK    4  A    between atoms: O_8  and  P_9
REMARK    5  A    between atoms: P_9  and  O_10
REMARK    6  A    between atoms: P_9  and  O_12
REMARK    7  A    between atoms: O_12  and  P_13
REMARK    8  A    between atoms: P_13  and  O_14
REMARK    9  A    between atoms: P_13  and  O_16
REMARK   10  A    between atoms: O_16  and  C_17
REMARK   11  A    between atoms: C_17  and  C_18
REMARK   12  A    between atoms: C_21  and  N_29
REMARK   13  A    between atoms: C_23  and  O_25
REMARK   14  A    between atoms: C_26  and  O_28
REMARK   15  A    between atoms: C_40  and  O_42
REMARK   16  A    between atoms: C_43  and  O_45
REMARK                            x       y       z     vdW  Elec       q    Type
REMARK                         _______ _______ _______ _____ _____    ______ ____
ROOT
ATOM      1  P   UNL     1       9.476  -2.029  23.070  0.00  0.00    +0.483 P 
ATOM      2  O   UNL     1      10.728  -1.734  22.296  0.00  0.00    -0.227 OA
ENDROOT
BRANCH   1   3
ATOM      3  O   UNL     1       9.732  -3.226  24.110  0.00  0.00    -0.302 OA
ATOM      4  H   UNL     1      10.405  -3.848  23.771  0.00  0.00    +0.222 HD
ENDBRANCH   1   3
BRANCH   1   5
ATOM      5  O   UNL     1       8.263  -2.616  22.235  0.00  0.00    -0.186 OA
BRANCH   5   6
ATOM      6  P   UNL     1       6.737  -2.733  22.631  0.00  0.00    +0.486 P 
ATOM      7  O   UNL     1       5.860  -3.392  21.633  0.00  0.00    -0.227 OA
BRANCH   6   8
ATOM      8  O   UNL     1       6.285  -1.241  22.980  0.00  0.00    -0.302 OA
ATOM      9  H   UNL     1       6.607  -0.623  22.303  0.00  0.00    +0.222 HD
ENDBRANCH   6   8
BRANCH   6  10
ATOM     10  O   UNL     1       6.820  -3.470  24.024  0.00  0.00    -0.253 OA
BRANCH  10  16
ATOM     11  C   UNL     1       5.978  -3.275  26.793  0.00  0.00    +0.178 C 
ATOM     12  C   UNL     1       6.528  -4.517  27.485  0.00  0.00    +0.177 C 
ATOM     13  C   UNL     1       7.214  -5.454  26.468  0.00  0.00    +0.184 C 
ATOM     14  C   UNL     1       6.387  -5.642  25.190  0.00  0.00    +0.253 C 
ATOM     15  F   UNL     1       5.318  -6.440  25.496  0.00  0.00    -0.237 F 
ATOM     16  C   UNL     1       5.855  -4.326  24.600  0.00  0.00    +0.298 C 
ATOM     17  O   UNL     1       5.175  -3.603  25.634  0.00  0.00    -0.340 OA
BRANCH  12  18
ATOM     18  O   UNL     1       5.449  -5.176  28.150  0.00  0.00    -0.386 OA
ATOM     19  H   UNL     1       4.618  -4.788  27.828  0.00  0.00    +0.210 HD
ENDBRANCH  12  18
BRANCH  13  20
ATOM     20  O   UNL     1       8.567  -5.057  26.205  0.00  0.00    -0.386 OA
ATOM     21  H   UNL     1       8.678  -4.099  26.339  0.00  0.00    +0.210 HD
ENDBRANCH  13  20
BRANCH  11  22
ATOM     22  C   UNL     1       7.158  -2.364  26.483  0.00  0.00    +0.190 C 
BRANCH  22  23
ATOM     23  O   UNL     1       6.675  -1.169  25.946  0.00  0.00    -0.392 OA
ATOM     24  H   UNL     1       5.744  -1.349  25.754  0.00  0.00    +0.210 HD
ENDBRANCH  22  23
ENDBRANCH  11  22
ENDBRANCH  10  16
ENDBRANCH   6  10
ENDBRANCH   5   6
ENDBRANCH   1   5
BRANCH   1  25
ATOM     25  O   UNL     1       8.954  -0.882  24.072  0.00  0.00    -0.284 OA
BRANCH  25  26
ATOM     26  C   UNL     1       9.896  -0.004  24.700  0.00  0.00    +0.206 C 
BRANCH  26  27
ATOM     27  C   UNL     1       9.804   1.484  24.226  0.00  0.00    +0.178 C 
ATOM     28  C   UNL     1      10.015   1.861  22.734  0.00  0.00    +0.178 C 
ATOM     29  C   UNL     1       8.622   2.317  22.232  0.00  0.00    +0.195 C 
ATOM     30  C   UNL     1       7.692   1.901  23.381  0.00  0.00    +0.255 C 
ATOM     31  O   UNL     1       8.493   1.991  24.577  0.00  0.00    -0.346 OA
BRANCH  30  32
ATOM     32  N   UNL     1       6.500   2.734  23.471  0.00  0.00    -0.271 N 
ATOM     33  C   UNL     1       5.391   2.170  24.088  0.00  0.00    +0.331 A 
ATOM     34  O   UNL     1       5.360   1.002  24.485  0.00  0.00    -0.246 OA
ATOM     35  N   UNL     1       4.298   2.982  24.217  0.00  0.00    -0.275 N 
ATOM     36  H   UNL     1       3.490   2.593  24.673  0.00  0.00    +0.173 HD
ATOM     37  C   UNL     1       4.186   4.243  23.716  0.00  0.00    +0.254 A 
ATOM     38  O   UNL     1       3.167   4.916  23.817  0.00  0.00    -0.268 OA
ATOM     39  C   UNL     1       5.367   4.757  23.002  0.00  0.00    +0.088 A 
ATOM     40  C   UNL     1       6.449   3.990  22.912  0.00  0.00    +0.098 A 
ENDBRANCH  30  32
BRANCH  29  41
ATOM     41  O   UNL     1       8.253   1.846  20.937  0.00  0.00    -0.385 OA
ATOM     42  H   UNL     1       8.370   0.873  20.916  0.00  0.00    +0.210 HD
ENDBRANCH  29  41
BRANCH  28  43
ATOM     43  O   UNL     1      10.943   2.971  22.689  0.00  0.00    -0.386 OA
ATOM     44  H   UNL     1      10.465   3.796  22.879  0.00  0.00    +0.210 HD
ENDBRANCH  28  43
ENDBRANCH  26  27
ENDBRANCH  25  26
ENDBRANCH   1  25
TORSDOF 16
ENDMDL
