MODEL 1
REMARK VINA RESULT:      -3.7      0.000      0.000
REMARK  Name = 
REMARK  6 active torsions:
REMARK  status: ('A' for Active; 'I' for Inactive)
REMARK    1  A    between atoms: C_1  and  S_2
REMARK    2  A    between atoms: S_2  and  C_3
REMARK    3  A    between atoms: C_3  and  C_4
REMARK    4  A    between atoms: C_4  and  N_6
REMARK    5  A    between atoms: C_4  and  C_7
REMARK    6  A    between atoms: C_7  and  O_8
REMARK                            x       y       z     vdW  Elec       q    Type
REMARK                         _______ _______ _______ _____ _____    ______ ____
ROOT
ATOM      1  C   UNK     1       9.045  -4.632  25.542  0.00  0.00    +0.170 C 
ENDROOT
BRANCH   1   2
ATOM      2  N   UNK     1      10.099  -5.677  25.308  0.00  0.00    -0.318 NA
ATOM      3  H   UNK     1       9.634  -6.588  25.244  0.00  0.00    +0.119 HD
ATOM      4  H   UNK     1      10.478  -5.527  24.364  0.00  0.00    +0.119 HD
ENDBRANCH   1   2
BRANCH   1   5
ATOM      5  C   UNK     1       7.821  -5.347  26.151  0.00  0.00    +0.323 C 
ATOM      6  O   UNK     1       6.734  -5.489  25.615  0.00  0.00    -0.249 OA
BRANCH   5   7
ATOM      7  O   UNK     1       8.090  -5.791  27.408  0.00  0.00    -0.480 OA
ATOM      8  H   UNK     1       7.311  -5.545  27.967  0.00  0.00    +0.295 HD
ENDBRANCH   5   7
ENDBRANCH   1   5
BRANCH   1   9
ATOM      9  C   UNK     1       8.691  -3.953  24.212  0.00  0.00    +0.098 C 
BRANCH   9  11
ATOM     10  C   UNK     1       8.892  -1.950  22.323  0.00  0.00    +0.084 C 
ATOM     11  S   UNK     1       9.654  -2.438  23.889  0.00  0.00    -0.162 S 
ENDBRANCH   9  11
ENDBRANCH   1   9
TORSDOF 5
ENDMDL
MODEL 2
REMARK VINA RESULT:      -3.5      5.291      6.081
REMARK  Name = 
REMARK  6 active torsions:
REMARK  status: ('A' for Active; 'I' for Inactive)
REMARK    1  A    between atoms: C_1  and  S_2
REMARK    2  A    between atoms: S_2  and  C_3
REMARK    3  A    between atoms: C_3  and  C_4
REMARK    4  A    between atoms: C_4  and  N_6
REMARK    5  A    between atoms: C_4  and  C_7
REMARK    6  A    between atoms: C_7  and  O_8
REMARK                            x       y       z     vdW  Elec       q    Type
REMARK                         _______ _______ _______ _____ _____    ______ ____
ROOT
ATOM      1  C   UNK     1       9.729   0.707  21.947  0.00  0.00    +0.170 C 
ENDROOT
BRANCH   1   2
ATOM      2  N   UNK     1       8.815   1.435  21.003  0.00  0.00    -0.318 NA
ATOM      3  H   UNK     1       9.193   1.337  20.057  0.00  0.00    +0.119 HD
ATOM      4  H   UNK     1       7.928   0.916  20.969  0.00  0.00    +0.119 HD
ENDBRANCH   1   2
BRANCH   1   5
ATOM      5  C   UNK     1       9.310  -0.777  21.935  0.00  0.00    +0.323 C 
ATOM      6  O   UNK     1       8.230  -1.220  22.288  0.00  0.00    -0.249 OA
BRANCH   5   7
ATOM      7  O   UNK     1      10.327  -1.567  21.496  0.00  0.00    -0.480 OA
ATOM      8  H   UNK     1       9.922  -2.240  20.894  0.00  0.00    +0.295 HD
ENDBRANCH   5   7
ENDBRANCH   1   5
BRANCH   1   9
ATOM      9  C   UNK     1       9.601   1.312  23.353  0.00  0.00    +0.098 C 
BRANCH   9  11
ATOM     10  C   UNK     1       9.371  -0.301  25.581  0.00  0.00    +0.084 C 
ATOM     11  S   UNK     1      10.660   0.498  24.595  0.00  0.00    -0.162 S 
ENDBRANCH   9  11
ENDBRANCH   1   9
TORSDOF 5
ENDMDL
MODEL 3
REMARK VINA RESULT:      -3.5      1.748      1.807
REMARK  Name = 
REMARK  6 active torsions:
REMARK  status: ('A' for Active; 'I' for Inactive)
REMARK    1  A    between atoms: C_1  and  S_2
REMARK    2  A    between atoms: S_2  and  C_3
REMARK    3  A    between atoms: C_3  and  C_4
REMARK    4  A    between atoms: C_4  and  N_6
REMARK    5  A    between atoms: C_4  and  C_7
REMARK    6  A    between atoms: C_7  and  O_8
REMARK                            x       y       z     vdW  Elec       q    Type
REMARK                         _______ _______ _______ _____ _____    ______ ____
ROOT
ATOM      1  C   UNK     1       9.055  -4.623  25.273  0.00  0.00    +0.170 C 
ENDROOT
BRANCH   1   2
ATOM      2  N   UNK     1      10.200  -5.587  25.403  0.00  0.00    -0.318 NA
ATOM      3  H   UNK     1      10.216  -6.175  24.565  0.00  0.00    +0.119 HD
ATOM      4  H   UNK     1      11.070  -5.043  25.340  0.00  0.00    +0.119 HD
ENDBRANCH   1   2
BRANCH   1   5
ATOM      5  C   UNK     1       8.224  -4.723  26.569  0.00  0.00    +0.323 C 
ATOM      6  O   UNK     1       7.676  -3.796  27.142  0.00  0.00    -0.249 OA
BRANCH   5   7
ATOM      7  O   UNK     1       8.195  -6.001  27.034  0.00  0.00    -0.480 OA
ATOM      8  H   UNK     1       8.918  -6.073  27.706  0.00  0.00    +0.295 HD
ENDBRANCH   5   7
ENDBRANCH   1   5
BRANCH   1   9
ATOM      9  C   UNK     1       8.214  -4.989  24.041  0.00  0.00    +0.098 C 
BRANCH   9  11
ATOM     10  C   UNK     1       6.585  -4.400  21.893  0.00  0.00    +0.084 C 
ATOM     11  S   UNK     1       7.550  -3.539  23.157  0.00  0.00    -0.162 S 
ENDBRANCH   9  11
ENDBRANCH   1   9
TORSDOF 5
ENDMDL
MODEL 4
REMARK VINA RESULT:      -3.4      2.957      3.150
REMARK  Name = 
REMARK  6 active torsions:
REMARK  status: ('A' for Active; 'I' for Inactive)
REMARK    1  A    between atoms: C_1  and  S_2
REMARK    2  A    between atoms: S_2  and  C_3
REMARK    3  A    between atoms: C_3  and  C_4
REMARK    4  A    between atoms: C_4  and  N_6
REMARK    5  A    between atoms: C_4  and  C_7
REMARK    6  A    between atoms: C_7  and  O_8
REMARK                            x       y       z     vdW  Elec       q    Type
REMARK                         _______ _______ _______ _____ _____    ______ ____
ROOT
ATOM      1  C   UNK     1       8.027  -5.268  25.708  0.00  0.00    +0.170 C 
ENDROOT
BRANCH   1   2
ATOM      2  N   UNK     1       8.162  -5.622  27.162  0.00  0.00    -0.318 NA
ATOM      3  H   UNK     1       8.216  -4.750  27.696  0.00  0.00    +0.119 HD
ATOM      4  H   UNK     1       7.273  -6.041  27.461  0.00  0.00    +0.119 HD
ENDBRANCH   1   2
BRANCH   1   5
ATOM      5  C   UNK     1       9.425  -4.854  25.206  0.00  0.00    +0.323 C 
ATOM      6  O   UNK     1       9.665  -3.959  24.412  0.00  0.00    -0.249 OA
BRANCH   5   7
ATOM      7  O   UNK     1      10.392  -5.644  25.745  0.00  0.00    -0.480 OA
ATOM      8  H   UNK     1      10.706  -5.186  26.565  0.00  0.00    +0.295 HD
ENDBRANCH   5   7
ENDBRANCH   1   5
BRANCH   1   9
ATOM      9  C   UNK     1       7.014  -4.124  25.550  0.00  0.00    +0.098 C 
BRANCH   9  11
ATOM     10  C   UNK     1       6.298  -5.417  23.219  0.00  0.00    +0.084 C 
ATOM     11  S   UNK     1       5.514  -4.602  24.630  0.00  0.00    -0.162 S 
ENDBRANCH   9  11
ENDBRANCH   1   9
TORSDOF 5
ENDMDL
MODEL 5
REMARK VINA RESULT:      -3.4      5.363      6.403
REMARK  Name = 
REMARK  6 active torsions:
REMARK  status: ('A' for Active; 'I' for Inactive)
REMARK    1  A    between atoms: C_1  and  S_2
REMARK    2  A    between atoms: S_2  and  C_3
REMARK    3  A    between atoms: C_3  and  C_4
REMARK    4  A    between atoms: C_4  and  N_6
REMARK    5  A    between atoms: C_4  and  C_7
REMARK    6  A    between atoms: C_7  and  O_8
REMARK                            x       y       z     vdW  Elec       q    Type
REMARK                         _______ _______ _______ _____ _____    ______ ____
ROOT
ATOM      1  C   UNK     1      10.369   0.492  23.268  0.00  0.00    +0.170 C 
ENDROOT
BRANCH   1   2
ATOM      2  N   UNK     1      10.571   1.711  24.123  0.00  0.00    -0.318 NA
ATOM      3  H   UNK     1       9.653   2.022  24.454  0.00  0.00    +0.119 HD
ATOM      4  H   UNK     1      11.052   1.410  24.980  0.00  0.00    +0.119 HD
ENDBRANCH   1   2
BRANCH   1   5
ATOM      5  C   UNK     1       9.844   0.975  21.900  0.00  0.00    +0.323 C 
ATOM      6  O   UNK     1       9.185   0.317  21.113  0.00  0.00    -0.249 OA
BRANCH   5   7
ATOM      7  O   UNK     1      10.236   2.253  21.651  0.00  0.00    -0.480 OA
ATOM      8  H   UNK     1      11.118   2.196  21.204  0.00  0.00    +0.295 HD
ENDBRANCH   5   7
ENDBRANCH   1   5
BRANCH   1   9
ATOM      9  C   UNK     1       9.368  -0.453  23.949  0.00  0.00    +0.098 C 
BRANCH   9  11
ATOM     10  C   UNK     1       8.252  -2.690  22.779  0.00  0.00    +0.084 C 
ATOM     11  S   UNK     1       9.742  -2.219  23.689  0.00  0.00    -0.162 S 
ENDBRANCH   9  11
ENDBRANCH   1   9
TORSDOF 5
ENDMDL
MODEL 6
REMARK VINA RESULT:      -3.4      5.427      6.375
REMARK  Name = 
REMARK  6 active torsions:
REMARK  status: ('A' for Active; 'I' for Inactive)
REMARK    1  A    between atoms: C_1  and  S_2
REMARK    2  A    between atoms: S_2  and  C_3
REMARK    3  A    between atoms: C_3  and  C_4
REMARK    4  A    between atoms: C_4  and  N_6
REMARK    5  A    between atoms: C_4  and  C_7
REMARK    6  A    between atoms: C_7  and  O_8
REMARK                            x       y       z     vdW  Elec       q    Type
REMARK                         _______ _______ _______ _____ _____    ______ ____
ROOT
ATOM      1  C   UNK     1       9.595   1.077  22.665  0.00  0.00    +0.170 C 
ENDROOT
BRANCH   1   2
ATOM      2  N   UNK     1      10.125   2.185  21.798  0.00  0.00    -0.318 NA
ATOM      3  H   UNK     1       9.521   2.259  20.974  0.00  0.00    +0.119 HD
ATOM      4  H   UNK     1       9.969   3.069  22.298  0.00  0.00    +0.119 HD
ENDBRANCH   1   2
BRANCH   1   5
ATOM      5  C   UNK     1      10.231   1.246  24.060  0.00  0.00    +0.323 C 
ATOM      6  O   UNK     1      11.304   0.789  24.418  0.00  0.00    -0.249 OA
BRANCH   5   7
ATOM      7  O   UNK     1       9.419   1.961  24.883  0.00  0.00    -0.480 OA
ATOM      8  H   UNK     1       9.364   1.457  25.733  0.00  0.00    +0.295 HD
ENDBRANCH   5   7
ENDBRANCH   1   5
BRANCH   1   9
ATOM      9  C   UNK     1       9.960  -0.279  22.044  0.00  0.00    +0.098 C 
BRANCH   9  11
ATOM     10  C   UNK     1       9.853  -2.457  23.736  0.00  0.00    +0.084 C 
ATOM     11  S   UNK     1       8.818  -1.623  22.510  0.00  0.00    -0.162 S 
ENDBRANCH   9  11
ENDBRANCH   1   9
TORSDOF 5
ENDMDL
MODEL 7
REMARK VINA RESULT:      -3.4      2.510      2.657
REMARK  Name = 
REMARK  6 active torsions:
REMARK  status: ('A' for Active; 'I' for Inactive)
REMARK    1  A    between atoms: C_1  and  S_2
REMARK    2  A    between atoms: S_2  and  C_3
REMARK    3  A    between atoms: C_3  and  C_4
REMARK    4  A    between atoms: C_4  and  N_6
REMARK    5  A    between atoms: C_4  and  C_7
REMARK    6  A    between atoms: C_7  and  O_8
REMARK                            x       y       z     vdW  Elec       q    Type
REMARK                         _______ _______ _______ _____ _____    ______ ____
ROOT
ATOM      1  C   UNK     1       8.026  -4.798  26.011  0.00  0.00    +0.170 C 
ENDROOT
BRANCH   1   2
ATOM      2  N   UNK     1       8.055  -5.685  27.223  0.00  0.00    -0.318 NA
ATOM      3  H   UNK     1       7.507  -5.233  27.960  0.00  0.00    +0.119 HD
ATOM      4  H   UNK     1       7.517  -6.531  26.999  0.00  0.00    +0.119 HD
ENDBRANCH   1   2
BRANCH   1   5
ATOM      5  C   UNK     1       9.382  -4.959  25.294  0.00  0.00    +0.323 C 
ATOM      6  O   UNK     1       9.899  -4.144  24.546  0.00  0.00    -0.249 OA
BRANCH   5   7
ATOM      7  O   UNK     1       9.944  -6.164  25.576  0.00  0.00    -0.480 OA
ATOM      8  H   UNK     1       9.335  -6.617  26.212  0.00  0.00    +0.295 HD
ENDBRANCH   5   7
ENDBRANCH   1   5
BRANCH   1   9
ATOM      9  C   UNK     1       7.793  -3.343  26.445  0.00  0.00    +0.098 C 
BRANCH   9  11
ATOM     10  C   UNK     1       7.922  -1.180  24.735  0.00  0.00    +0.084 C 
ATOM     11  S   UNK     1       6.721  -2.406  25.305  0.00  0.00    -0.162 S 
ENDBRANCH   9  11
ENDBRANCH   1   9
TORSDOF 5
ENDMDL
MODEL 8
REMARK VINA RESULT:      -3.4      3.870      4.641
REMARK  Name = 
REMARK  6 active torsions:
REMARK  status: ('A' for Active; 'I' for Inactive)
REMARK    1  A    between atoms: C_1  and  S_2
REMARK    2  A    between atoms: S_2  and  C_3
REMARK    3  A    between atoms: C_3  and  C_4
REMARK    4  A    between atoms: C_4  and  N_6
REMARK    5  A    between atoms: C_4  and  C_7
REMARK    6  A    between atoms: C_7  and  O_8
REMARK                            x       y       z     vdW  Elec       q    Type
REMARK                         _______ _______ _______ _____ _____    ______ ____
ROOT
ATOM      1  C   UNK     1      10.442  -1.451  22.884  0.00  0.00    +0.170 C 
ENDROOT
BRANCH   1   2
ATOM      2  N   UNK     1       9.977  -1.470  21.455  0.00  0.00    -0.318 NA
ATOM      3  H   UNK     1       9.383  -0.649  21.304  0.00  0.00    +0.119 HD
ATOM      4  H   UNK     1      10.797  -1.293  20.861  0.00  0.00    +0.119 HD
ENDBRANCH   1   2
BRANCH   1   5
ATOM      5  C   UNK     1       9.625  -2.515  23.644  0.00  0.00    +0.323 C 
ATOM      6  O   UNK     1      10.072  -3.522  24.169  0.00  0.00    -0.249 OA
BRANCH   5   7
ATOM      7  O   UNK     1       8.300  -2.209  23.639  0.00  0.00    -0.480 OA
ATOM      8  H   UNK     1       8.166  -1.524  24.341  0.00  0.00    +0.295 HD
ENDBRANCH   5   7
ENDBRANCH   1   5
BRANCH   1   9
ATOM      9  C   UNK     1      10.224  -0.051  23.476  0.00  0.00    +0.098 C 
BRANCH   9  11
ATOM     10  C   UNK     1      10.393   2.687  23.171  0.00  0.00    +0.084 C 
ATOM     11  S   UNK     1       9.904   1.230  22.218  0.00  0.00    -0.162 S 
ENDBRANCH   9  11
ENDBRANCH   1   9
TORSDOF 5
ENDMDL
MODEL 9
REMARK VINA RESULT:      -3.4      4.168      4.935
REMARK  Name = 
REMARK  6 active torsions:
REMARK  status: ('A' for Active; 'I' for Inactive)
REMARK    1  A    between atoms: C_1  and  S_2
REMARK    2  A    between atoms: S_2  and  C_3
REMARK    3  A    between atoms: C_3  and  C_4
REMARK    4  A    between atoms: C_4  and  N_6
REMARK    5  A    between atoms: C_4  and  C_7
REMARK    6  A    between atoms: C_7  and  O_8
REMARK                            x       y       z     vdW  Elec       q    Type
REMARK                         _______ _______ _______ _____ _____    ______ ____
ROOT
ATOM      1  C   UNK     1       9.590  -0.689  23.993  0.00  0.00    +0.170 C 
ENDROOT
BRANCH   1   2
ATOM      2  N   UNK     1       8.965  -1.099  25.297  0.00  0.00    -0.318 NA
ATOM      3  H   UNK     1       8.546  -2.025  25.170  0.00  0.00    +0.119 HD
ATOM      4  H   UNK     1       9.727  -1.262  25.967  0.00  0.00    +0.119 HD
ENDBRANCH   1   2
BRANCH   1   5
ATOM      5  C   UNK     1      10.106  -1.972  23.311  0.00  0.00    +0.323 C 
ATOM      6  O   UNK     1      10.219  -3.068  23.836  0.00  0.00    -0.249 OA
BRANCH   5   7
ATOM      7  O   UNK     1      10.461  -1.731  22.020  0.00  0.00    -0.480 OA
ATOM      8  H   UNK     1      10.110  -2.485  21.485  0.00  0.00    +0.295 HD
ENDBRANCH   5   7
ENDBRANCH   1   5
BRANCH   1   9
ATOM      9  C   UNK     1      10.733   0.300  24.261  0.00  0.00    +0.098 C 
BRANCH   9  11
ATOM     10  C   UNK     1       9.946   1.736  22.039  0.00  0.00    +0.084 C 
ATOM     11  S   UNK     1      10.339   2.016  23.782  0.00  0.00    -0.162 S 
ENDBRANCH   9  11
ENDBRANCH   1   9
TORSDOF 5
ENDMDL
