MODEL 1
REMARK VINA RESULT:      -5.3      0.000      0.000
REMARK  Name = 
REMARK  10 active torsions:
REMARK  status: ('A' for Active; 'I' for Inactive)
REMARK    1  A    between atoms: O_1  and  N_2
REMARK    2  A    between atoms: C_3  and  C_5
REMARK    3  A    between atoms: C_5  and  O_7
REMARK    4  A    between atoms: C_5  and  C_8
REMARK    5  A    between atoms: C_8  and  O_10
REMARK    6  A    between atoms: C_8  and  C_11
REMARK    7  A    between atoms: C_11  and  O_12
REMARK    8  A    between atoms: O_12  and  P_13
REMARK    9  A    between atoms: P_13  and  O_14
REMARK   10  A    between atoms: P_13  and  O_15
REMARK                            x       y       z     vdW  Elec       q    Type
REMARK                         _______ _______ _______ _____ _____    ______ ____
ROOT
ATOM      1  C   UNL     1       9.501  -1.458  22.896  0.00  0.00    +0.178 C 
ENDROOT
BRANCH   1   2
ATOM      2  O   UNL     1      10.487  -1.879  21.935  0.00  0.00    -0.386 OA
ATOM      3  H   UNL     1      11.033  -1.108  21.712  0.00  0.00    +0.210 HD
ENDBRANCH   1   2
BRANCH   1   4
ATOM      4  C   UNL     1      10.139  -0.579  24.000  0.00  0.00    +0.232 C 
BRANCH   4   7
ATOM      5  N   UNL     1       9.823   1.039  22.225  0.00  0.00    -0.195 N 
ATOM      6  H   UNL     1       9.826   0.208  21.639  0.00  0.00    +0.182 HD
ATOM      7  C   UNL     1      10.322   0.874  23.512  0.00  0.00    +0.267 C 
ATOM      8  O   UNL     1      10.832   1.748  24.213  0.00  0.00    -0.271 OA
BRANCH   5   9
ATOM      9  O   UNL     1      10.215   2.233  21.575  0.00  0.00    -0.295 OA
ATOM     10  H   UNL     1      10.544   2.773  22.316  0.00  0.00    +0.241 HD
ENDBRANCH   5   9
ENDBRANCH   4   7
BRANCH   4  11
ATOM     11  O   UNL     1       9.377  -0.684  25.211  0.00  0.00    -0.380 OA
ATOM     12  H   UNL     1       9.271  -1.635  25.397  0.00  0.00    +0.211 HD
ENDBRANCH   4  11
ENDBRANCH   1   4
BRANCH   1  13
ATOM     13  C   UNL     1       8.847  -2.723  23.455  0.00  0.00    +0.206 C 
BRANCH  13  14
ATOM     14  O   UNL     1       9.794  -3.484  24.176  0.00  0.00    -0.284 OA
BRANCH  14  15
ATOM     15  P   UNL     1       9.039  -4.650  25.206  0.00  0.00    +0.472 P 
ATOM     16  O   UNL     1       8.363  -5.695  26.128  0.00  0.00    -0.228 OA
BRANCH  15  17
ATOM     17  O   UNL     1      10.495  -5.398  25.188  0.00  0.00    -0.303 OA
ATOM     18  H   UNL     1      10.405  -6.368  25.189  0.00  0.00    +0.222 HD
ENDBRANCH  15  17
BRANCH  15  19
ATOM     19  O   UNL     1       8.550  -5.320  23.794  0.00  0.00    -0.303 OA
ATOM     20  H   UNL     1       8.049  -6.124  24.045  0.00  0.00    +0.222 HD
ENDBRANCH  15  19
ENDBRANCH  14  15
ENDBRANCH  13  14
ENDBRANCH   1  13
TORSDOF 10
ENDMDL
MODEL 2
REMARK VINA RESULT:      -5.2      1.256      1.973
REMARK  Name = 
REMARK  10 active torsions:
REMARK  status: ('A' for Active; 'I' for Inactive)
REMARK    1  A    between atoms: O_1  and  N_2
REMARK    2  A    between atoms: C_3  and  C_5
REMARK    3  A    between atoms: C_5  and  O_7
REMARK    4  A    between atoms: C_5  and  C_8
REMARK    5  A    between atoms: C_8  and  O_10
REMARK    6  A    between atoms: C_8  and  C_11
REMARK    7  A    between atoms: C_11  and  O_12
REMARK    8  A    between atoms: O_12  and  P_13
REMARK    9  A    between atoms: P_13  and  O_14
REMARK   10  A    between atoms: P_13  and  O_15
REMARK                            x       y       z     vdW  Elec       q    Type
REMARK                         _______ _______ _______ _____ _____    ______ ____
ROOT
ATOM      1  C   UNL     1       9.998  -1.241  23.756  0.00  0.00    +0.178 C 
ENDROOT
BRANCH   1   2
ATOM      2  O   UNL     1      10.015   0.030  24.434  0.00  0.00    -0.386 OA
ATOM      3  H   UNL     1       9.255   0.056  25.037  0.00  0.00    +0.210 HD
ENDBRANCH   1   2
BRANCH   1   4
ATOM      4  C   UNL     1       9.224  -1.147  22.417  0.00  0.00    +0.232 C 
BRANCH   4   7
ATOM      5  N   UNL     1       9.529   1.068  21.484  0.00  0.00    -0.195 N 
ATOM      6  H   UNL     1      10.514   0.828  21.566  0.00  0.00    +0.182 HD
ATOM      7  C   UNL     1       8.651   0.272  22.209  0.00  0.00    +0.267 C 
ATOM      8  O   UNL     1       7.545   0.605  22.632  0.00  0.00    -0.271 OA
BRANCH   5   9
ATOM      9  O   UNL     1       9.244   2.454  21.506  0.00  0.00    -0.295 OA
ATOM     10  H   UNL     1       8.270   2.464  21.540  0.00  0.00    +0.241 HD
ENDBRANCH   5   9
ENDBRANCH   4   7
BRANCH   4  11
ATOM     11  O   UNL     1      10.058  -1.591  21.339  0.00  0.00    -0.380 OA
ATOM     12  H   UNL     1       9.883  -1.001  20.584  0.00  0.00    +0.211 HD
ENDBRANCH   4  11
ENDBRANCH   1   4
BRANCH   1  13
ATOM     13  C   UNL     1       9.384  -2.257  24.721  0.00  0.00    +0.206 C 
BRANCH  13  14
ATOM     14  O   UNL     1       9.774  -3.567  24.361  0.00  0.00    -0.284 OA
BRANCH  14  15
ATOM     15  P   UNL     1       8.944  -4.768  25.290  0.00  0.00    +0.472 P 
ATOM     16  O   UNL     1       8.203  -5.843  26.122  0.00  0.00    -0.228 OA
BRANCH  15  17
ATOM     17  O   UNL     1      10.402  -5.508  25.369  0.00  0.00    -0.303 OA
ATOM     18  H   UNL     1      10.633  -5.759  26.282  0.00  0.00    +0.222 HD
ENDBRANCH  15  17
BRANCH  15  19
ATOM     19  O   UNL     1       8.578  -5.396  23.823  0.00  0.00    -0.303 OA
ATOM     20  H   UNL     1       7.913  -4.788  23.437  0.00  0.00    +0.222 HD
ENDBRANCH  15  19
ENDBRANCH  14  15
ENDBRANCH  13  14
ENDBRANCH   1  13
TORSDOF 10
ENDMDL
MODEL 3
REMARK VINA RESULT:      -5.0      3.444      5.941
REMARK  Name = 
REMARK  10 active torsions:
REMARK  status: ('A' for Active; 'I' for Inactive)
REMARK    1  A    between atoms: O_1  and  N_2
REMARK    2  A    between atoms: C_3  and  C_5
REMARK    3  A    between atoms: C_5  and  O_7
REMARK    4  A    between atoms: C_5  and  C_8
REMARK    5  A    between atoms: C_8  and  O_10
REMARK    6  A    between atoms: C_8  and  C_11
REMARK    7  A    between atoms: C_11  and  O_12
REMARK    8  A    between atoms: O_12  and  P_13
REMARK    9  A    between atoms: P_13  and  O_14
REMARK   10  A    between atoms: P_13  and  O_15
REMARK                            x       y       z     vdW  Elec       q    Type
REMARK                         _______ _______ _______ _____ _____    ______ ____
ROOT
ATOM      1  C   UNL     1       7.972  -4.705  23.781  0.00  0.00    +0.178 C 
ENDROOT
BRANCH   1   2
ATOM      2  O   UNL     1       6.642  -4.957  24.271  0.00  0.00    -0.386 OA
ATOM      3  H   UNL     1       6.273  -4.113  24.579  0.00  0.00    +0.210 HD
ENDBRANCH   1   2
BRANCH   1   4
ATOM      4  C   UNL     1       8.979  -4.568  24.950  0.00  0.00    +0.232 C 
BRANCH   4   7
ATOM      5  N   UNL     1       8.287  -5.848  26.887  0.00  0.00    -0.195 N 
ATOM      6  H   UNL     1       8.355  -6.628  26.238  0.00  0.00    +0.182 HD
ATOM      7  C   UNL     1       8.250  -4.584  26.312  0.00  0.00    +0.267 C 
ATOM      8  O   UNL     1       7.735  -3.577  26.796  0.00  0.00    -0.271 OA
BRANCH   5   9
ATOM      9  O   UNL     1       7.395  -6.044  27.968  0.00  0.00    -0.295 OA
ATOM     10  H   UNL     1       6.533  -5.836  27.565  0.00  0.00    +0.241 HD
ENDBRANCH   5   9
ENDBRANCH   4   7
BRANCH   4  11
ATOM     11  O   UNL     1      10.000  -5.569  24.836  0.00  0.00    -0.380 OA
ATOM     12  H   UNL     1      10.851  -5.099  24.766  0.00  0.00    +0.211 HD
ENDBRANCH   4  11
ENDBRANCH   1   4
BRANCH   1  13
ATOM     13  C   UNL     1       7.902  -3.446  22.914  0.00  0.00    +0.206 C 
BRANCH  13  14
ATOM     14  O   UNL     1       9.074  -2.674  23.080  0.00  0.00    -0.284 OA
BRANCH  14  15
ATOM     15  P   UNL     1       8.917  -1.101  22.378  0.00  0.00    +0.472 P 
ATOM     16  O   UNL     1       8.778   0.307  21.750  0.00  0.00    -0.228 OA
BRANCH  15  17
ATOM     17  O   UNL     1      10.162  -1.562  21.420  0.00  0.00    -0.303 OA
ATOM     18  H   UNL     1      10.573  -2.389  21.732  0.00  0.00    +0.222 HD
ENDBRANCH  15  17
BRANCH  15  19
ATOM     19  O   UNL     1       9.889  -0.646  23.615  0.00  0.00    -0.303 OA
ATOM     20  H   UNL     1      10.610  -1.309  23.639  0.00  0.00    +0.222 HD
ENDBRANCH  15  19
ENDBRANCH  14  15
ENDBRANCH  13  14
ENDBRANCH   1  13
TORSDOF 10
ENDMDL
MODEL 4
REMARK VINA RESULT:      -4.8      2.956      3.892
REMARK  Name = 
REMARK  10 active torsions:
REMARK  status: ('A' for Active; 'I' for Inactive)
REMARK    1  A    between atoms: O_1  and  N_2
REMARK    2  A    between atoms: C_3  and  C_5
REMARK    3  A    between atoms: C_5  and  O_7
REMARK    4  A    between atoms: C_5  and  C_8
REMARK    5  A    between atoms: C_8  and  O_10
REMARK    6  A    between atoms: C_8  and  C_11
REMARK    7  A    between atoms: C_11  and  O_12
REMARK    8  A    between atoms: O_12  and  P_13
REMARK    9  A    between atoms: P_13  and  O_14
REMARK   10  A    between atoms: P_13  and  O_15
REMARK                            x       y       z     vdW  Elec       q    Type
REMARK                         _______ _______ _______ _____ _____    ______ ____
ROOT
ATOM      1  C   UNL     1       8.781   1.510  21.436  0.00  0.00    +0.178 C 
ENDROOT
BRANCH   1   2
ATOM      2  O   UNL     1       9.980   2.304  21.510  0.00  0.00    -0.386 OA
ATOM      3  H   UNL     1      10.236   2.540  20.604  0.00  0.00    +0.210 HD
ENDBRANCH   1   2
BRANCH   1   4
ATOM      4  C   UNL     1       7.783   1.903  22.554  0.00  0.00    +0.232 C 
BRANCH   4   7
ATOM      5  N   UNL     1       6.743   3.996  21.915  0.00  0.00    -0.195 N 
ATOM      6  H   UNL     1       6.526   3.481  21.065  0.00  0.00    +0.182 HD
ATOM      7  C   UNL     1       7.723   3.436  22.726  0.00  0.00    +0.267 C 
ATOM      8  O   UNL     1       8.456   4.042  23.507  0.00  0.00    -0.271 OA
BRANCH   5   9
ATOM      9  O   UNL     1       6.815   5.401  21.765  0.00  0.00    -0.295 OA
ATOM     10  H   UNL     1       7.774   5.565  21.809  0.00  0.00    +0.241 HD
ENDBRANCH   5   9
ENDBRANCH   4   7
BRANCH   4  11
ATOM     11  O   UNL     1       6.504   1.305  22.301  0.00  0.00    -0.380 OA
ATOM     12  H   UNL     1       5.913   1.584  23.023  0.00  0.00    +0.211 HD
ENDBRANCH   4  11
ENDBRANCH   1   4
BRANCH   1  13
ATOM     13  C   UNL     1       9.207   0.043  21.516  0.00  0.00    +0.206 C 
BRANCH  13  14
ATOM     14  O   UNL     1       8.491  -0.618  22.540  0.00  0.00    -0.284 OA
BRANCH  14  15
ATOM     15  P   UNL     1       9.407  -1.906  23.244  0.00  0.00    +0.472 P 
ATOM     16  O   UNL     1      10.226  -3.058  23.874  0.00  0.00    -0.228 OA
BRANCH  15  17
ATOM     17  O   UNL     1      10.362  -1.757  21.923  0.00  0.00    -0.303 OA
ATOM     18  H   UNL     1       9.871  -1.933  21.100  0.00  0.00    +0.222 HD
ENDBRANCH  15  17
BRANCH  15  19
ATOM     19  O   UNL     1       8.313  -2.861  22.487  0.00  0.00    -0.303 OA
ATOM     20  H   UNL     1       7.470  -2.363  22.511  0.00  0.00    +0.222 HD
ENDBRANCH  15  19
ENDBRANCH  14  15
ENDBRANCH  13  14
ENDBRANCH   1  13
TORSDOF 10
ENDMDL
MODEL 5
REMARK VINA RESULT:      -4.8      2.284      3.231
REMARK  Name = 
REMARK  10 active torsions:
REMARK  status: ('A' for Active; 'I' for Inactive)
REMARK    1  A    between atoms: O_1  and  N_2
REMARK    2  A    between atoms: C_3  and  C_5
REMARK    3  A    between atoms: C_5  and  O_7
REMARK    4  A    between atoms: C_5  and  C_8
REMARK    5  A    between atoms: C_8  and  O_10
REMARK    6  A    between atoms: C_8  and  C_11
REMARK    7  A    between atoms: C_11  and  O_12
REMARK    8  A    between atoms: O_12  and  P_13
REMARK    9  A    between atoms: P_13  and  O_14
REMARK   10  A    between atoms: P_13  and  O_15
REMARK                            x       y       z     vdW  Elec       q    Type
REMARK                         _______ _______ _______ _____ _____    ______ ____
ROOT
ATOM      1  C   UNL     1       9.418   1.295  22.546  0.00  0.00    +0.178 C 
ENDROOT
BRANCH   1   2
ATOM      2  O   UNL     1       9.307   2.160  21.401  0.00  0.00    -0.386 OA
ATOM      3  H   UNL     1       8.585   2.787  21.570  0.00  0.00    +0.210 HD
ENDBRANCH   1   2
BRANCH   1   4
ATOM      4  C   UNL     1      10.273   1.952  23.659  0.00  0.00    +0.232 C 
BRANCH   4   7
ATOM      5  N   UNL     1      11.400   3.958  22.902  0.00  0.00    -0.195 N 
ATOM      6  H   UNL     1      12.229   3.378  23.003  0.00  0.00    +0.182 HD
ATOM      7  C   UNL     1      10.254   3.491  23.533  0.00  0.00    +0.267 C 
ATOM      8  O   UNL     1       9.314   4.174  23.937  0.00  0.00    -0.271 OA
BRANCH   5   9
ATOM      9  O   UNL     1      11.625   5.351  23.014  0.00  0.00    -0.295 OA
ATOM     10  H   UNL     1      12.521   5.446  22.643  0.00  0.00    +0.241 HD
ENDBRANCH   5   9
ENDBRANCH   4   7
BRANCH   4  11
ATOM     11  O   UNL     1       9.852   1.476  24.944  0.00  0.00    -0.380 OA
ATOM     12  H   UNL     1      10.267   0.605  25.074  0.00  0.00    +0.211 HD
ENDBRANCH   4  11
ENDBRANCH   1   4
BRANCH   1  13
ATOM     13  C   UNL     1      10.005  -0.029  22.055  0.00  0.00    +0.206 C 
BRANCH  13  14
ATOM     14  O   UNL     1      10.340  -0.851  23.155  0.00  0.00    -0.284 OA
BRANCH  14  15
ATOM     15  P   UNL     1       9.060  -1.943  23.560  0.00  0.00    +0.472 P 
ATOM     16  O   UNL     1       7.915  -2.920  23.923  0.00  0.00    -0.228 OA
BRANCH  15  17
ATOM     17  O   UNL     1       9.178  -1.298  25.060  0.00  0.00    -0.303 OA
ATOM     18  H   UNL     1       8.718  -0.441  25.123  0.00  0.00    +0.222 HD
ENDBRANCH  15  17
BRANCH  15  19
ATOM     19  O   UNL     1      10.282  -3.007  23.798  0.00  0.00    -0.303 OA
ATOM     20  H   UNL     1       9.850  -3.848  24.056  0.00  0.00    +0.222 HD
ENDBRANCH  15  19
ENDBRANCH  14  15
ENDBRANCH  13  14
ENDBRANCH   1  13
TORSDOF 10
ENDMDL
MODEL 6
REMARK VINA RESULT:      -4.8      2.911      5.473
REMARK  Name = 
REMARK  10 active torsions:
REMARK  status: ('A' for Active; 'I' for Inactive)
REMARK    1  A    between atoms: O_1  and  N_2
REMARK    2  A    between atoms: C_3  and  C_5
REMARK    3  A    between atoms: C_5  and  O_7
REMARK    4  A    between atoms: C_5  and  C_8
REMARK    5  A    between atoms: C_8  and  O_10
REMARK    6  A    between atoms: C_8  and  C_11
REMARK    7  A    between atoms: C_11  and  O_12
REMARK    8  A    between atoms: O_12  and  P_13
REMARK    9  A    between atoms: P_13  and  O_14
REMARK   10  A    between atoms: P_13  and  O_15
REMARK                            x       y       z     vdW  Elec       q    Type
REMARK                         _______ _______ _______ _____ _____    ______ ____
ROOT
ATOM      1  C   UNL     1      10.226  -1.440  22.569  0.00  0.00    +0.178 C 
ENDROOT
BRANCH   1   2
ATOM      2  O   UNL     1       9.770  -1.578  21.210  0.00  0.00    -0.386 OA
ATOM      3  H   UNL     1      10.427  -1.159  20.632  0.00  0.00    +0.210 HD
ENDBRANCH   1   2
BRANCH   1   4
ATOM      4  C   UNL     1       9.331  -2.248  23.542  0.00  0.00    +0.232 C 
BRANCH   4   7
ATOM      5  N   UNL     1       7.076  -1.717  22.834  0.00  0.00    -0.195 N 
ATOM      6  H   UNL     1       7.130  -1.046  23.596  0.00  0.00    +0.182 HD
ATOM      7  C   UNL     1       8.039  -2.719  22.840  0.00  0.00    +0.267 C 
ATOM      8  O   UNL     1       7.927  -3.840  22.346  0.00  0.00    -0.271 OA
BRANCH   5   9
ATOM      9  O   UNL     1       5.768  -2.140  22.499  0.00  0.00    -0.295 OA
ATOM     10  H   UNL     1       5.873  -3.107  22.437  0.00  0.00    +0.241 HD
ENDBRANCH   5   9
ENDBRANCH   4   7
BRANCH   4  11
ATOM     11  O   UNL     1      10.087  -3.316  24.128  0.00  0.00    -0.380 OA
ATOM     12  H   UNL     1       9.443  -3.947  24.500  0.00  0.00    +0.211 HD
ENDBRANCH   4  11
ENDBRANCH   1   4
BRANCH   1  13
ATOM     13  C   UNL     1      10.244   0.056  22.889  0.00  0.00    +0.206 C 
BRANCH  13  14
ATOM     14  O   UNL     1       8.987   0.461  23.393  0.00  0.00    -0.284 OA
BRANCH  14  15
ATOM     15  P   UNL     1       8.458   1.951  22.691  0.00  0.00    +0.472 P 
ATOM     16  O   UNL     1       7.984   3.284  22.062  0.00  0.00    -0.228 OA
BRANCH  15  17
ATOM     17  O   UNL     1       7.091   1.127  22.325  0.00  0.00    -0.303 OA
ATOM     18  H   UNL     1       6.938   1.086  21.364  0.00  0.00    +0.222 HD
ENDBRANCH  15  17
BRANCH  15  19
ATOM     19  O   UNL     1       9.269   1.414  21.374  0.00  0.00    -0.303 OA
ATOM     20  H   UNL     1       9.856   0.701  21.701  0.00  0.00    +0.222 HD
ENDBRANCH  15  19
ENDBRANCH  14  15
ENDBRANCH  13  14
ENDBRANCH   1  13
TORSDOF 10
ENDMDL
MODEL 7
REMARK VINA RESULT:      -4.7      5.645      7.145
REMARK  Name = 
REMARK  10 active torsions:
REMARK  status: ('A' for Active; 'I' for Inactive)
REMARK    1  A    between atoms: O_1  and  N_2
REMARK    2  A    between atoms: C_3  and  C_5
REMARK    3  A    between atoms: C_5  and  O_7
REMARK    4  A    between atoms: C_5  and  C_8
REMARK    5  A    between atoms: C_8  and  O_10
REMARK    6  A    between atoms: C_8  and  C_11
REMARK    7  A    between atoms: C_11  and  O_12
REMARK    8  A    between atoms: O_12  and  P_13
REMARK    9  A    between atoms: P_13  and  O_14
REMARK   10  A    between atoms: P_13  and  O_15
REMARK                            x       y       z     vdW  Elec       q    Type
REMARK                         _______ _______ _______ _____ _____    ______ ____
ROOT
ATOM      1  C   UNL     1       9.754   5.319  25.098  0.00  0.00    +0.178 C 
ENDROOT
BRANCH   1   2
ATOM      2  O   UNL     1       8.792   6.047  25.884  0.00  0.00    -0.386 OA
ATOM      3  H   UNL     1       8.500   6.812  25.363  0.00  0.00    +0.210 HD
ENDBRANCH   1   2
BRANCH   1   4
ATOM      4  C   UNL     1      10.476   6.254  24.096  0.00  0.00    +0.232 C 
BRANCH   4   7
ATOM      5  N   UNL     1      12.529   5.418  23.119  0.00  0.00    -0.195 N 
ATOM      6  H   UNL     1      11.898   4.762  22.666  0.00  0.00    +0.182 HD
ATOM      7  C   UNL     1      12.009   6.104  24.209  0.00  0.00    +0.267 C 
ATOM      8  O   UNL     1      12.650   6.567  25.152  0.00  0.00    -0.271 OA
BRANCH   5   9
ATOM      9  O   UNL     1      13.860   4.961  23.273  0.00  0.00    -0.295 OA
ATOM     10  H   UNL     1      14.353   5.795  23.383  0.00  0.00    +0.241 HD
ENDBRANCH   5   9
ENDBRANCH   4   7
BRANCH   4  11
ATOM     11  O   UNL     1       9.975   6.032  22.771  0.00  0.00    -0.380 OA
ATOM     12  H   UNL     1      10.295   5.155  22.491  0.00  0.00    +0.211 HD
ENDBRANCH   4  11
ENDBRANCH   1   4
BRANCH   1  13
ATOM     13  C   UNL     1       9.001   4.182  24.405  0.00  0.00    +0.206 C 
BRANCH  13  14
ATOM     14  O   UNL     1       9.903   3.371  23.679  0.00  0.00    -0.284 OA
BRANCH  14  15
ATOM     15  P   UNL     1       9.081   2.264  22.634  0.00  0.00    +0.472 P 
ATOM     16  O   UNL     1       8.346   1.273  21.698  0.00  0.00    -0.228 OA
BRANCH  15  17
ATOM     17  O   UNL     1      10.378   2.452  21.653  0.00  0.00    -0.303 OA
ATOM     18  H   UNL     1      10.144   2.916  20.828  0.00  0.00    +0.222 HD
ENDBRANCH  15  17
BRANCH  15  19
ATOM     19  O   UNL     1       8.329   3.612  22.088  0.00  0.00    -0.303 OA
ATOM     20  H   UNL     1       7.375   3.391  22.071  0.00  0.00    +0.222 HD
ENDBRANCH  15  19
ENDBRANCH  14  15
ENDBRANCH  13  14
ENDBRANCH   1  13
TORSDOF 10
ENDMDL
MODEL 8
REMARK VINA RESULT:      -4.7      1.629      2.127
REMARK  Name = 
REMARK  10 active torsions:
REMARK  status: ('A' for Active; 'I' for Inactive)
REMARK    1  A    between atoms: O_1  and  N_2
REMARK    2  A    between atoms: C_3  and  C_5
REMARK    3  A    between atoms: C_5  and  O_7
REMARK    4  A    between atoms: C_5  and  C_8
REMARK    5  A    between atoms: C_8  and  O_10
REMARK    6  A    between atoms: C_8  and  C_11
REMARK    7  A    between atoms: C_11  and  O_12
REMARK    8  A    between atoms: O_12  and  P_13
REMARK    9  A    between atoms: P_13  and  O_14
REMARK   10  A    between atoms: P_13  and  O_15
REMARK                            x       y       z     vdW  Elec       q    Type
REMARK                         _______ _______ _______ _____ _____    ______ ____
ROOT
ATOM      1  C   UNL     1       8.470  -1.593  22.053  0.00  0.00    +0.178 C 
ENDROOT
BRANCH   1   2
ATOM      2  O   UNL     1       9.860  -1.685  21.691  0.00  0.00    -0.386 OA
ATOM      3  H   UNL     1      10.387  -1.539  22.493  0.00  0.00    +0.210 HD
ENDBRANCH   1   2
BRANCH   1   4
ATOM      4  C   UNL     1       8.215  -0.377  22.978  0.00  0.00    +0.232 C 
BRANCH   4   7
ATOM      5  N   UNL     1       9.999  -0.248  24.612  0.00  0.00    -0.195 N 
ATOM      6  H   UNL     1       9.280  -0.607  25.237  0.00  0.00    +0.182 HD
ATOM      7  C   UNL     1       9.546   0.278  23.409  0.00  0.00    +0.267 C 
ATOM      8  O   UNL     1      10.108   1.137  22.731  0.00  0.00    -0.271 OA
BRANCH   5   9
ATOM      9  O   UNL     1      11.029   0.489  25.243  0.00  0.00    -0.295 OA
ATOM     10  H   UNL     1      10.953   1.360  24.812  0.00  0.00    +0.241 HD
ENDBRANCH   5   9
ENDBRANCH   4   7
BRANCH   4  11
ATOM     11  O   UNL     1       7.306   0.535  22.348  0.00  0.00    -0.380 OA
ATOM     12  H   UNL     1       7.756   1.398  22.303  0.00  0.00    +0.211 HD
ENDBRANCH   4  11
ENDBRANCH   1   4
BRANCH   1  13
ATOM     13  C   UNL     1       8.085  -2.921  22.707  0.00  0.00    +0.206 C 
BRANCH  13  14
ATOM     14  O   UNL     1       8.033  -2.776  24.112  0.00  0.00    -0.284 OA
BRANCH  14  15
ATOM     15  P   UNL     1       8.972  -3.982  24.922  0.00  0.00    +0.472 P 
ATOM     16  O   UNL     1       9.812  -5.061  25.648  0.00  0.00    -0.228 OA
BRANCH  15  17
ATOM     17  O   UNL     1      10.236  -3.346  24.099  0.00  0.00    -0.303 OA
ATOM     18  H   UNL     1      10.572  -2.534  24.521  0.00  0.00    +0.222 HD
ENDBRANCH  15  17
BRANCH  15  19
ATOM     19  O   UNL     1       8.496  -4.936  23.680  0.00  0.00    -0.303 OA
ATOM     20  H   UNL     1       7.675  -4.526  23.335  0.00  0.00    +0.222 HD
ENDBRANCH  15  19
ENDBRANCH  14  15
ENDBRANCH  13  14
ENDBRANCH   1  13
TORSDOF 10
ENDMDL
MODEL 9
REMARK VINA RESULT:      -4.6      2.629      5.675
REMARK  Name = 
REMARK  10 active torsions:
REMARK  status: ('A' for Active; 'I' for Inactive)
REMARK    1  A    between atoms: O_1  and  N_2
REMARK    2  A    between atoms: C_3  and  C_5
REMARK    3  A    between atoms: C_5  and  O_7
REMARK    4  A    between atoms: C_5  and  C_8
REMARK    5  A    between atoms: C_8  and  O_10
REMARK    6  A    between atoms: C_8  and  C_11
REMARK    7  A    between atoms: C_11  and  O_12
REMARK    8  A    between atoms: O_12  and  P_13
REMARK    9  A    between atoms: P_13  and  O_14
REMARK   10  A    between atoms: P_13  and  O_15
REMARK                            x       y       z     vdW  Elec       q    Type
REMARK                         _______ _______ _______ _____ _____    ______ ____
ROOT
ATOM      1  C   UNL     1       9.252  -1.068  24.383  0.00  0.00    +0.178 C 
ENDROOT
BRANCH   1   2
ATOM      2  O   UNL     1       8.708  -1.176  25.712  0.00  0.00    -0.386 OA
ATOM      3  H   UNL     1       8.012  -1.852  25.694  0.00  0.00    +0.210 HD
ENDBRANCH   1   2
BRANCH   1   4
ATOM      4  C   UNL     1      10.007  -2.360  23.984  0.00  0.00    +0.232 C 
BRANCH   4   7
ATOM      5  N   UNL     1       7.802  -3.363  24.028  0.00  0.00    -0.195 N 
ATOM      6  H   UNL     1       7.504  -2.397  24.138  0.00  0.00    +0.182 HD
ATOM      7  C   UNL     1       9.148  -3.612  24.269  0.00  0.00    +0.267 C 
ATOM      8  O   UNL     1       9.638  -4.678  24.640  0.00  0.00    -0.271 OA
BRANCH   5   9
ATOM      9  O   UNL     1       6.909  -4.330  24.547  0.00  0.00    -0.295 OA
ATOM     10  H   UNL     1       7.447  -4.758  25.238  0.00  0.00    +0.241 HD
ENDBRANCH   5   9
ENDBRANCH   4   7
BRANCH   4  11
ATOM     11  O   UNL     1      10.451  -2.267  22.624  0.00  0.00    -0.380 OA
ATOM     12  H   UNL     1      11.084  -2.995  22.482  0.00  0.00    +0.211 HD
ENDBRANCH   4  11
ENDBRANCH   1   4
BRANCH   1  13
ATOM     13  C   UNL     1      10.150   0.170  24.363  0.00  0.00    +0.206 C 
BRANCH  13  14
ATOM     14  O   UNL     1      10.465   0.522  23.031  0.00  0.00    -0.284 OA
BRANCH  14  15
ATOM     15  P   UNL     1       9.108   1.204  22.203  0.00  0.00    +0.472 P 
ATOM     16  O   UNL     1       7.893   1.815  21.463  0.00  0.00    -0.228 OA
BRANCH  15  17
ATOM     17  O   UNL     1       9.375   0.030  21.095  0.00  0.00    -0.303 OA
ATOM     18  H   UNL     1      10.309  -0.003  20.820  0.00  0.00    +0.222 HD
ENDBRANCH  15  17
BRANCH  15  19
ATOM     19  O   UNL     1      10.228   2.216  21.569  0.00  0.00    -0.303 OA
ATOM     20  H   UNL     1      11.084   1.751  21.664  0.00  0.00    +0.222 HD
ENDBRANCH  15  19
ENDBRANCH  14  15
ENDBRANCH  13  14
ENDBRANCH   1  13
TORSDOF 10
ENDMDL
