MODEL 1
REMARK VINA RESULT:      -6.5      0.000      0.000
REMARK  Name = 
REMARK  3 active torsions:
REMARK  status: ('A' for Active; 'I' for Inactive)
REMARK    1  A    between atoms: C_1  and  C_2
REMARK    2  A    between atoms: N_11  and  C_12
REMARK    3  A    between atoms: C_12  and  C_13
REMARK                            x       y       z     vdW  Elec       q    Type
REMARK                         _______ _______ _______ _____ _____    ______ ____
ROOT
ATOM      1  C   UNL     1       7.336  -5.559  26.861  0.00  0.00    +0.065 C 
ATOM      2  C   UNL     1       8.115  -4.842  25.827  0.00  0.00    +0.040 A 
ATOM      3  N   UNL     1       7.562  -4.006  24.883  0.00  0.00    -0.300 N 
ATOM      4  C   UNL     1       6.269  -3.598  24.623  0.00  0.00    +0.113 A 
ATOM      5  C   UNL     1       6.070  -2.738  23.609  0.00  0.00    +0.131 A 
ATOM      6  N   UNL     1       7.079  -2.233  22.805  0.00  0.00    -0.235 NA
ATOM      7  C   UNL     1       8.319  -2.619  23.020  0.00  0.00    +0.162 A 
ATOM      8  N   UNL     1       9.355  -2.165  22.232  0.00  0.00    -0.322 N 
ATOM      9  H   UNL     1      10.268  -2.422  22.597  0.00  0.00    +0.148 HD
ATOM     10  C   UNL     1       8.594  -3.544  24.110  0.00  0.00    +0.178 A 
ATOM     11  N   UNL     1       9.766  -4.009  24.490  0.00  0.00    -0.233 NA
ATOM     12  C   UNL     1       9.473  -4.817  25.561  0.00  0.00    +0.134 A 
ENDROOT
BRANCH   8  13
ATOM     13  C   UNL     1       9.314  -0.924  21.500  0.00  0.00    +0.138 C 
BRANCH  13  14
ATOM     14  C   UNL     1       9.853   0.201  22.347  0.00  0.00    -0.028 A 
ATOM     15  C   UNL     1       9.705   1.531  21.938  0.00  0.00    +0.025 A 
ATOM     16  C   UNL     1      10.214   2.535  22.746  0.00  0.00    +0.111 A 
ATOM     17  N   UNL     1      10.845   2.310  23.918  0.00  0.00    -0.263 NA
ATOM     18  C   UNL     1      10.960   1.022  24.305  0.00  0.00    +0.111 A 
ATOM     19  C   UNL     1      10.485  -0.052  23.567  0.00  0.00    +0.025 A 
ENDBRANCH  13  14
ENDBRANCH   8  13
TORSDOF 2
ENDMDL
MODEL 2
REMARK VINA RESULT:      -6.5      1.624      2.637
REMARK  Name = 
REMARK  3 active torsions:
REMARK  status: ('A' for Active; 'I' for Inactive)
REMARK    1  A    between atoms: C_1  and  C_2
REMARK    2  A    between atoms: N_11  and  C_12
REMARK    3  A    between atoms: C_12  and  C_13
REMARK                            x       y       z     vdW  Elec       q    Type
REMARK                         _______ _______ _______ _____ _____    ______ ____
ROOT
ATOM      1  C   UNL     1       4.836  -6.757  24.115  0.00  0.00    +0.065 C 
ATOM      2  C   UNL     1       5.692  -5.719  23.499  0.00  0.00    +0.040 A 
ATOM      3  N   UNL     1       6.678  -5.031  24.171  0.00  0.00    -0.300 N 
ATOM      4  C   UNL     1       7.147  -5.079  25.468  0.00  0.00    +0.113 A 
ATOM      5  C   UNL     1       8.161  -4.261  25.803  0.00  0.00    +0.131 A 
ATOM      6  N   UNL     1       8.766  -3.371  24.931  0.00  0.00    -0.235 NA
ATOM      7  C   UNL     1       8.327  -3.294  23.692  0.00  0.00    +0.162 A 
ATOM      8  N   UNL     1       8.879  -2.407  22.793  0.00  0.00    -0.322 N 
ATOM      9  H   UNL     1       8.550  -2.555  21.843  0.00  0.00    +0.148 HD
ATOM     10  C   UNL     1       7.236  -4.162  23.273  0.00  0.00    +0.178 A 
ATOM     11  N   UNL     1       6.694  -4.245  22.075  0.00  0.00    -0.233 NA
ATOM     12  C   UNL     1       5.732  -5.215  22.211  0.00  0.00    +0.134 A 
ENDROOT
BRANCH   8  13
ATOM     13  C   UNL     1      10.222  -1.893  22.904  0.00  0.00    +0.138 C 
BRANCH  13  14
ATOM     14  C   UNL     1      10.204  -0.386  22.946  0.00  0.00    -0.028 A 
ATOM     15  C   UNL     1      10.635   0.298  24.087  0.00  0.00    +0.025 A 
ATOM     16  C   UNL     1      10.603   1.683  24.084  0.00  0.00    +0.111 A 
ATOM     17  N   UNL     1      10.183   2.423  23.036  0.00  0.00    -0.263 NA
ATOM     18  C   UNL     1       9.790   1.746  21.937  0.00  0.00    +0.111 A 
ATOM     19  C   UNL     1       9.784   0.363  21.842  0.00  0.00    +0.025 A 
ENDBRANCH  13  14
ENDBRANCH   8  13
TORSDOF 2
ENDMDL
MODEL 3
REMARK VINA RESULT:      -6.4      1.210      1.696
REMARK  Name = 
REMARK  3 active torsions:
REMARK  status: ('A' for Active; 'I' for Inactive)
REMARK    1  A    between atoms: C_1  and  C_2
REMARK    2  A    between atoms: N_11  and  C_12
REMARK    3  A    between atoms: C_12  and  C_13
REMARK                            x       y       z     vdW  Elec       q    Type
REMARK                         _______ _______ _______ _____ _____    ______ ____
ROOT
ATOM      1  C   UNL     1       5.687  -6.093  26.635  0.00  0.00    +0.065 C 
ATOM      2  C   UNL     1       6.695  -5.168  26.068  0.00  0.00    +0.040 A 
ATOM      3  N   UNL     1       6.768  -4.827  24.736  0.00  0.00    -0.300 N 
ATOM      4  C   UNL     1       6.020  -5.174  23.629  0.00  0.00    +0.113 A 
ATOM      5  C   UNL     1       6.357  -4.633  22.445  0.00  0.00    +0.131 A 
ATOM      6  N   UNL     1       7.408  -3.750  22.261  0.00  0.00    -0.235 NA
ATOM      7  C   UNL     1       8.148  -3.415  23.298  0.00  0.00    +0.162 A 
ATOM      8  N   UNL     1       9.220  -2.560  23.163  0.00  0.00    -0.322 N 
ATOM      9  H   UNL     1       9.609  -2.272  24.057  0.00  0.00    +0.148 HD
ATOM     10  C   UNL     1       7.823  -3.965  24.606  0.00  0.00    +0.178 A 
ATOM     11  N   UNL     1       8.427  -3.719  25.750  0.00  0.00    -0.233 NA
ATOM     12  C   UNL     1       7.726  -4.465  26.665  0.00  0.00    +0.134 A 
ENDROOT
BRANCH   8  13
ATOM     13  C   UNL     1       9.336  -1.589  22.103  0.00  0.00    +0.138 C 
BRANCH  13  14
ATOM     14  C   UNL     1       9.790  -0.262  22.656  0.00  0.00    -0.028 A 
ATOM     15  C   UNL     1      10.283  -0.169  23.962  0.00  0.00    +0.025 A 
ATOM     16  C   UNL     1      10.692   1.069  24.431  0.00  0.00    +0.111 A 
ATOM     17  N   UNL     1      10.650   2.203  23.699  0.00  0.00    -0.263 NA
ATOM     18  C   UNL     1      10.190   2.089  22.435  0.00  0.00    +0.111 A 
ATOM     19  C   UNL     1       9.757   0.897  21.875  0.00  0.00    +0.025 A 
ENDBRANCH  13  14
ENDBRANCH   8  13
TORSDOF 2
ENDMDL
MODEL 4
REMARK VINA RESULT:      -6.2      2.287      6.108
REMARK  Name = 
REMARK  3 active torsions:
REMARK  status: ('A' for Active; 'I' for Inactive)
REMARK    1  A    between atoms: C_1  and  C_2
REMARK    2  A    between atoms: N_11  and  C_12
REMARK    3  A    between atoms: C_12  and  C_13
REMARK                            x       y       z     vdW  Elec       q    Type
REMARK                         _______ _______ _______ _____ _____    ______ ____
ROOT
ATOM      1  C   UNL     1      10.461   1.762  23.726  0.00  0.00    +0.065 C 
ATOM      2  C   UNL     1      10.248   0.302  23.611  0.00  0.00    +0.040 A 
ATOM      3  N   UNL     1       9.637  -0.469  24.574  0.00  0.00    -0.300 N 
ATOM      4  C   UNL     1       9.080  -0.178  25.804  0.00  0.00    +0.113 A 
ATOM      5  C   UNL     1       8.536  -1.188  26.505  0.00  0.00    +0.131 A 
ATOM      6  N   UNL     1       8.498  -2.505  26.075  0.00  0.00    -0.235 NA
ATOM      7  C   UNL     1       9.037  -2.812  24.914  0.00  0.00    +0.162 A 
ATOM      8  N   UNL     1       9.047  -4.111  24.453  0.00  0.00    -0.322 N 
ATOM      9  H   UNL     1       9.358  -4.183  23.488  0.00  0.00    +0.148 HD
ATOM     10  C   UNL     1       9.634  -1.756  24.109  0.00  0.00    +0.178 A 
ATOM     11  N   UNL     1      10.185  -1.871  22.918  0.00  0.00    -0.233 NA
ATOM     12  C   UNL     1      10.568  -0.590  22.603  0.00  0.00    +0.134 A 
ENDROOT
BRANCH   8  13
ATOM     13  C   UNL     1       8.094  -5.110  24.867  0.00  0.00    +0.138 C 
BRANCH  13  14
ATOM     14  C   UNL     1       7.021  -5.275  23.820  0.00  0.00    -0.028 A 
ATOM     15  C   UNL     1       7.354  -5.642  22.513  0.00  0.00    +0.025 A 
ATOM     16  C   UNL     1       6.338  -5.784  21.582  0.00  0.00    +0.111 A 
ATOM     17  N   UNL     1       5.031  -5.595  21.861  0.00  0.00    -0.263 NA
ATOM     18  C   UNL     1       4.727  -5.261  23.133  0.00  0.00    +0.111 A 
ATOM     19  C   UNL     1       5.671  -5.094  24.135  0.00  0.00    +0.025 A 
ENDBRANCH  13  14
ENDBRANCH   8  13
TORSDOF 2
ENDMDL
MODEL 5
REMARK VINA RESULT:      -6.0      1.915      3.227
REMARK  Name = 
REMARK  3 active torsions:
REMARK  status: ('A' for Active; 'I' for Inactive)
REMARK    1  A    between atoms: C_1  and  C_2
REMARK    2  A    between atoms: N_11  and  C_12
REMARK    3  A    between atoms: C_12  and  C_13
REMARK                            x       y       z     vdW  Elec       q    Type
REMARK                         _______ _______ _______ _____ _____    ______ ____
ROOT
ATOM      1  C   UNL     1       6.395  -5.919  21.561  0.00  0.00    +0.065 C 
ATOM      2  C   UNL     1       6.662  -4.580  22.134  0.00  0.00    +0.040 A 
ATOM      3  N   UNL     1       7.490  -4.351  23.210  0.00  0.00    -0.300 N 
ATOM      4  C   UNL     1       8.258  -5.179  24.003  0.00  0.00    +0.113 A 
ATOM      5  C   UNL     1       8.983  -4.616  24.986  0.00  0.00    +0.131 A 
ATOM      6  N   UNL     1       9.010  -3.258  25.256  0.00  0.00    -0.235 NA
ATOM      7  C   UNL     1       8.273  -2.448  24.525  0.00  0.00    +0.162 A 
ATOM      8  N   UNL     1       8.245  -1.092  24.770  0.00  0.00    -0.322 N 
ATOM      9  H   UNL     1       7.757  -0.571  24.045  0.00  0.00    +0.148 HD
ATOM     10  C   UNL     1       7.473  -3.003  23.442  0.00  0.00    +0.178 A 
ATOM     11  N   UNL     1       6.708  -2.347  22.594  0.00  0.00    -0.233 NA
ATOM     12  C   UNL     1       6.201  -3.326  21.776  0.00  0.00    +0.134 A 
ENDROOT
BRANCH   8  13
ATOM     13  C   UNL     1       9.314  -0.378  25.422  0.00  0.00    +0.138 C 
BRANCH  13  14
ATOM     14  C   UNL     1       9.463   1.000  24.829  0.00  0.00    -0.028 A 
ATOM     15  C   UNL     1      10.586   1.324  24.061  0.00  0.00    +0.025 A 
ATOM     16  C   UNL     1      10.683   2.602  23.532  0.00  0.00    +0.111 A 
ATOM     17  N   UNL     1       9.751   3.561  23.708  0.00  0.00    -0.263 NA
ATOM     18  C   UNL     1       8.665   3.223  24.435  0.00  0.00    +0.111 A 
ATOM     19  C   UNL     1       8.475   1.974  25.005  0.00  0.00    +0.025 A 
ENDBRANCH  13  14
ENDBRANCH   8  13
TORSDOF 2
ENDMDL
MODEL 6
REMARK VINA RESULT:      -6.0      1.807      6.064
REMARK  Name = 
REMARK  3 active torsions:
REMARK  status: ('A' for Active; 'I' for Inactive)
REMARK    1  A    between atoms: C_1  and  C_2
REMARK    2  A    between atoms: N_11  and  C_12
REMARK    3  A    between atoms: C_12  and  C_13
REMARK                            x       y       z     vdW  Elec       q    Type
REMARK                         _______ _______ _______ _____ _____    ______ ____
ROOT
ATOM      1  C   UNL     1       9.095   2.758  23.910  0.00  0.00    +0.065 C 
ATOM      2  C   UNL     1       8.322   1.516  23.683  0.00  0.00    +0.040 A 
ATOM      3  N   UNL     1       8.850   0.364  23.146  0.00  0.00    -0.300 N 
ATOM      4  C   UNL     1      10.113   0.018  22.707  0.00  0.00    +0.113 A 
ATOM      5  C   UNL     1      10.299  -1.230  22.242  0.00  0.00    +0.131 A 
ATOM      6  N   UNL     1       9.307  -2.194  22.174  0.00  0.00    -0.235 NA
ATOM      7  C   UNL     1       8.090  -1.885  22.571  0.00  0.00    +0.162 A 
ATOM      8  N   UNL     1       7.062  -2.801  22.500  0.00  0.00    -0.322 N 
ATOM      9  H   UNL     1       6.220  -2.484  22.972  0.00  0.00    +0.148 HD
ATOM     10  C   UNL     1       7.832  -0.550  23.090  0.00  0.00    +0.178 A 
ATOM     11  N   UNL     1       6.695  -0.078  23.559  0.00  0.00    -0.233 NA
ATOM     12  C   UNL     1       6.996   1.208  23.932  0.00  0.00    +0.134 A 
ENDROOT
BRANCH   8  13
ATOM     13  C   UNL     1       7.266  -4.228  22.501  0.00  0.00    +0.138 C 
BRANCH  13  14
ATOM     14  C   UNL     1       7.328  -4.747  23.916  0.00  0.00    -0.028 A 
ATOM     15  C   UNL     1       6.159  -5.108  24.592  0.00  0.00    +0.025 A 
ATOM     16  C   UNL     1       6.261  -5.581  25.890  0.00  0.00    +0.111 A 
ATOM     17  N   UNL     1       7.430  -5.723  26.550  0.00  0.00    -0.263 NA
ATOM     18  C   UNL     1       8.549  -5.388  25.874  0.00  0.00    +0.111 A 
ATOM     19  C   UNL     1       8.552  -4.905  24.574  0.00  0.00    +0.025 A 
ENDBRANCH  13  14
ENDBRANCH   8  13
TORSDOF 2
ENDMDL
MODEL 7
REMARK VINA RESULT:      -5.8      1.812      6.276
REMARK  Name = 
REMARK  3 active torsions:
REMARK  status: ('A' for Active; 'I' for Inactive)
REMARK    1  A    between atoms: C_1  and  C_2
REMARK    2  A    between atoms: N_11  and  C_12
REMARK    3  A    between atoms: C_12  and  C_13
REMARK                            x       y       z     vdW  Elec       q    Type
REMARK                         _______ _______ _______ _____ _____    ______ ____
ROOT
ATOM      1  C   UNL     1       9.896   3.307  23.674  0.00  0.00    +0.065 C 
ATOM      2  C   UNL     1       9.924   1.851  23.938  0.00  0.00    +0.040 A 
ATOM      3  N   UNL     1       8.863   1.003  23.713  0.00  0.00    -0.300 N 
ATOM      4  C   UNL     1       7.588   1.196  23.219  0.00  0.00    +0.113 A 
ATOM      5  C   UNL     1       6.786   0.123  23.108  0.00  0.00    +0.131 A 
ATOM      6  N   UNL     1       7.154  -1.166  23.458  0.00  0.00    -0.235 NA
ATOM      7  C   UNL     1       8.358  -1.375  23.947  0.00  0.00    +0.162 A 
ATOM      8  N   UNL     1       8.763  -2.634  24.333  0.00  0.00    -0.322 N 
ATOM      9  H   UNL     1       9.756  -2.679  24.550  0.00  0.00    +0.148 HD
ATOM     10  C   UNL     1       9.272  -0.250  24.082  0.00  0.00    +0.178 A 
ATOM     11  N   UNL     1      10.515  -0.275  24.517  0.00  0.00    -0.233 NA
ATOM     12  C   UNL     1      10.927   1.032  24.427  0.00  0.00    +0.134 A 
ENDROOT
BRANCH   8  13
ATOM     13  C   UNL     1       8.197  -3.850  23.805  0.00  0.00    +0.138 C 
BRANCH  13  14
ATOM     14  C   UNL     1       7.518  -4.632  24.902  0.00  0.00    -0.028 A 
ATOM     15  C   UNL     1       8.101  -4.727  26.169  0.00  0.00    +0.025 A 
ATOM     16  C   UNL     1       7.444  -5.454  27.150  0.00  0.00    +0.111 A 
ATOM     17  N   UNL     1       6.262  -6.077  26.959  0.00  0.00    -0.263 NA
ATOM     18  C   UNL     1       5.706  -5.956  25.735  0.00  0.00    +0.111 A 
ATOM     19  C   UNL     1       6.284  -5.253  24.690  0.00  0.00    +0.025 A 
ENDBRANCH  13  14
ENDBRANCH   8  13
TORSDOF 2
ENDMDL
MODEL 8
REMARK VINA RESULT:      -5.8      1.873      6.360
REMARK  Name = 
REMARK  3 active torsions:
REMARK  status: ('A' for Active; 'I' for Inactive)
REMARK    1  A    between atoms: C_1  and  C_2
REMARK    2  A    between atoms: N_11  and  C_12
REMARK    3  A    between atoms: C_12  and  C_13
REMARK                            x       y       z     vdW  Elec       q    Type
REMARK                         _______ _______ _______ _____ _____    ______ ____
ROOT
ATOM      1  C   UNL     1       7.616   3.699  22.996  0.00  0.00    +0.065 C 
ATOM      2  C   UNL     1       7.687   2.221  23.026  0.00  0.00    +0.040 A 
ATOM      3  N   UNL     1       8.779   1.508  23.466  0.00  0.00    -0.300 N 
ATOM      4  C   UNL     1      10.009   1.880  23.972  0.00  0.00    +0.113 A 
ATOM      5  C   UNL     1      10.863   0.906  24.332  0.00  0.00    +0.131 A 
ATOM      6  N   UNL     1      10.592  -0.449  24.229  0.00  0.00    -0.235 NA
ATOM      7  C   UNL     1       9.433  -0.830  23.734  0.00  0.00    +0.162 A 
ATOM      8  N   UNL     1       9.125  -2.166  23.587  0.00  0.00    -0.322 N 
ATOM      9  H   UNL     1       8.152  -2.319  23.336  0.00  0.00    +0.148 HD
ATOM     10  C   UNL     1       8.466   0.182  23.334  0.00  0.00    +0.178 A 
ATOM     11  N   UNL     1       7.255  -0.013  22.854  0.00  0.00    -0.233 NA
ATOM     12  C   UNL     1       6.765   1.255  22.662  0.00  0.00    +0.134 A 
ENDROOT
BRANCH   8  13
ATOM     13  C   UNL     1       9.727  -3.214  24.373  0.00  0.00    +0.138 C 
BRANCH  13  14
ATOM     14  C   UNL     1       8.662  -4.063  25.019  0.00  0.00    -0.028 A 
ATOM     15  C   UNL     1       7.544  -4.476  24.287  0.00  0.00    +0.025 A 
ATOM     16  C   UNL     1       6.588  -5.257  24.918  0.00  0.00    +0.111 A 
ATOM     17  N   UNL     1       6.671  -5.653  26.206  0.00  0.00    -0.263 NA
ATOM     18  C   UNL     1       7.767  -5.260  26.889  0.00  0.00    +0.111 A 
ATOM     19  C   UNL     1       8.776  -4.479  26.348  0.00  0.00    +0.025 A 
ENDBRANCH  13  14
ENDBRANCH   8  13
TORSDOF 2
ENDMDL
MODEL 9
REMARK VINA RESULT:      -5.8      2.474      3.668
REMARK  Name = 
REMARK  3 active torsions:
REMARK  status: ('A' for Active; 'I' for Inactive)
REMARK    1  A    between atoms: C_1  and  C_2
REMARK    2  A    between atoms: N_11  and  C_12
REMARK    3  A    between atoms: C_12  and  C_13
REMARK                            x       y       z     vdW  Elec       q    Type
REMARK                         _______ _______ _______ _____ _____    ______ ____
ROOT
ATOM      1  C   UNL     1       7.578  -3.995  25.921  0.00  0.00    +0.065 C 
ATOM      2  C   UNL     1       8.066  -2.598  25.890  0.00  0.00    +0.040 A 
ATOM      3  N   UNL     1       8.900  -2.091  24.920  0.00  0.00    -0.300 N 
ATOM      4  C   UNL     1       9.477  -2.637  23.791  0.00  0.00    +0.113 A 
ATOM      5  C   UNL     1      10.247  -1.841  23.028  0.00  0.00    +0.131 A 
ATOM      6  N   UNL     1      10.500  -0.507  23.300  0.00  0.00    -0.235 NA
ATOM      7  C   UNL     1       9.976   0.034  24.379  0.00  0.00    +0.162 A 
ATOM      8  N   UNL     1      10.218   1.351  24.708  0.00  0.00    -0.322 N 
ATOM      9  H   UNL     1       9.638   1.678  25.476  0.00  0.00    +0.148 HD
ATOM     10  C   UNL     1       9.128  -0.779  25.238  0.00  0.00    +0.178 A 
ATOM     11  N   UNL     1       8.497  -0.402  26.331  0.00  0.00    -0.233 NA
ATOM     12  C   UNL     1       7.832  -1.531  26.741  0.00  0.00    +0.134 A 
ENDROOT
BRANCH   8  13
ATOM     13  C   UNL     1      10.582   2.359  23.743  0.00  0.00    +0.138 C 
BRANCH  13  14
ATOM     14  C   UNL     1       9.374   3.171  23.353  0.00  0.00    -0.028 A 
ATOM     15  C   UNL     1       9.197   4.465  23.851  0.00  0.00    +0.025 A 
ATOM     16  C   UNL     1       8.073   5.178  23.466  0.00  0.00    +0.111 A 
ATOM     17  N   UNL     1       7.130   4.700  22.627  0.00  0.00    -0.263 NA
ATOM     18  C   UNL     1       7.328   3.456  22.141  0.00  0.00    +0.111 A 
ATOM     19  C   UNL     1       8.419   2.664  22.466  0.00  0.00    +0.025 A 
ENDBRANCH  13  14
ENDBRANCH   8  13
TORSDOF 2
ENDMDL
