MODEL 1
REMARK VINA RESULT:      -6.7      0.000      0.000
REMARK  Name = 
REMARK  8 active torsions:
REMARK  status: ('A' for Active; 'I' for Inactive)
REMARK    1  A    between atoms: C_2  and  C_3
REMARK    2  A    between atoms: C_3  and  O_4
REMARK    3  A    between atoms: C_6  and  O_8
REMARK    4  A    between atoms: O_8  and  C_9
REMARK    5  A    between atoms: C_10  and  N_18
REMARK    6  A    between atoms: C_12  and  N_15
REMARK    7  A    between atoms: C_24  and  O_26
REMARK    8  A    between atoms: C_27  and  O_29
REMARK                            x       y       z     vdW  Elec       q    Type
REMARK                         _______ _______ _______ _____ _____    ______ ____
ROOT
ATOM      1  C   UNL     1       9.742   0.565  22.207  0.00  0.00    +0.179 C 
ATOM      2  C   UNL     1      10.205   1.755  23.058  0.00  0.00    +0.177 C 
ATOM      3  C   UNL     1       9.735   1.645  24.515  0.00  0.00    +0.185 C 
ATOM      4  C   UNL     1       8.239   1.374  24.575  0.00  0.00    +0.265 C 
ATOM      5  F   UNL     1       7.588   2.503  24.144  0.00  0.00    -0.236 F 
ATOM      6  C   UNL     1       7.807   0.221  23.664  0.00  0.00    +0.345 C 
ATOM      7  O   UNL     1       8.330   0.325  22.336  0.00  0.00    -0.331 OA
ENDROOT
BRANCH   2   8
ATOM      8  O   UNL     1       9.689   2.961  22.470  0.00  0.00    -0.386 OA
ATOM      9  H   UNL     1       9.422   3.570  23.188  0.00  0.00    +0.210 HD
ENDBRANCH   2   8
BRANCH   3  10
ATOM     10  O   UNL     1      10.503   0.686  25.242  0.00  0.00    -0.386 OA
ATOM     11  H   UNL     1       9.947  -0.058  25.547  0.00  0.00    +0.210 HD
ENDBRANCH   3  10
BRANCH   1  12
ATOM     12  C   UNL     1      10.592  -0.699  22.419  0.00  0.00    +0.190 C 
BRANCH  12  13
ATOM     13  O   UNL     1      10.052  -1.813  21.705  0.00  0.00    -0.392 OA
ATOM     14  H   UNL     1      10.770  -2.192  21.166  0.00  0.00    +0.210 HD
ENDBRANCH  12  13
ENDBRANCH   1  12
BRANCH   6  15
ATOM     15  O   UNL     1       8.064  -1.054  24.276  0.00  0.00    -0.454 OA
BRANCH  15  16
ATOM     16  C   UNL     1       7.380  -2.135  23.767  0.00  0.00    +0.201 A 
ATOM     17  C   UNL     1       6.165  -1.983  23.076  0.00  0.00    +0.059 A 
ATOM     18  C   UNL     1       5.506  -3.069  22.498  0.00  0.00    +0.088 A 
ATOM     19  C   UNL     1       6.046  -4.347  22.618  0.00  0.00    +0.280 A 
ATOM     20  C   UNL     1       7.217  -4.551  23.358  0.00  0.00    +0.172 A 
ATOM     21  C   UNL     1       7.877  -3.445  23.942  0.00  0.00    +0.321 A 
BRANCH  19  22
ATOM     22  N   UNL     1       5.366  -5.472  21.965  0.00  0.00    +0.080 N 
ATOM     23  O   UNL     1       5.872  -5.939  20.934  0.00  0.00    +0.041 OA
ATOM     24  O   UNL     1       4.321  -5.889  22.485  0.00  0.00    -0.576 OA
ENDBRANCH  19  22
BRANCH  21  25
ATOM     25  N   UNL     1       9.089  -3.722  24.739  0.00  0.00    +0.084 N 
ATOM     26  O   UNL     1      10.177  -3.702  24.143  0.00  0.00    +0.042 OA
ATOM     27  O   UNL     1       8.967  -3.999  25.941  0.00  0.00    -0.576 OA
ENDBRANCH  21  25
ENDBRANCH  15  16
ENDBRANCH   6  15
TORSDOF 8
ENDMDL
MODEL 2
REMARK VINA RESULT:      -6.6      1.413      2.315
REMARK  Name = 
REMARK  8 active torsions:
REMARK  status: ('A' for Active; 'I' for Inactive)
REMARK    1  A    between atoms: C_2  and  C_3
REMARK    2  A    between atoms: C_3  and  O_4
REMARK    3  A    between atoms: C_6  and  O_8
REMARK    4  A    between atoms: O_8  and  C_9
REMARK    5  A    between atoms: C_10  and  N_18
REMARK    6  A    between atoms: C_12  and  N_15
REMARK    7  A    between atoms: C_24  and  O_26
REMARK    8  A    between atoms: C_27  and  O_29
REMARK                            x       y       z     vdW  Elec       q    Type
REMARK                         _______ _______ _______ _____ _____    ______ ____
ROOT
ATOM      1  C   UNL     1       9.576   1.805  23.995  0.00  0.00    +0.179 C 
ATOM      2  C   UNL     1       9.229   2.259  22.570  0.00  0.00    +0.177 C 
ATOM      3  C   UNL     1       8.318   1.259  21.847  0.00  0.00    +0.185 C 
ATOM      4  C   UNL     1       8.892  -0.147  21.934  0.00  0.00    +0.265 C 
ATOM      5  F   UNL     1      10.032  -0.188  21.171  0.00  0.00    -0.236 F 
ATOM      6  C   UNL     1       9.285  -0.541  23.363  0.00  0.00    +0.345 C 
ATOM      7  O   UNL     1      10.071   0.455  24.025  0.00  0.00    -0.331 OA
ENDROOT
BRANCH   2   8
ATOM      8  O   UNL     1      10.454   2.421  21.835  0.00  0.00    -0.386 OA
ATOM      9  H   UNL     1      10.344   2.018  20.951  0.00  0.00    +0.210 HD
ENDBRANCH   2   8
BRANCH   3  10
ATOM     10  O   UNL     1       6.973   1.340  22.318  0.00  0.00    -0.386 OA
ATOM     11  H   UNL     1       6.509   2.112  21.938  0.00  0.00    +0.210 HD
ENDBRANCH   3  10
BRANCH   1  12
ATOM     12  C   UNL     1       8.444   2.057  25.004  0.00  0.00    +0.190 C 
BRANCH  12  13
ATOM     13  O   UNL     1       8.504   1.134  26.092  0.00  0.00    -0.392 OA
ATOM     14  H   UNL     1       7.773   0.499  25.979  0.00  0.00    +0.210 HD
ENDBRANCH  12  13
ENDBRANCH   1  12
BRANCH   6  15
ATOM     15  O   UNL     1       8.140  -0.958  24.124  0.00  0.00    -0.454 OA
BRANCH  15  16
ATOM     16  C   UNL     1       7.442  -2.046  23.648  0.00  0.00    +0.201 A 
ATOM     17  C   UNL     1       6.295  -1.897  22.850  0.00  0.00    +0.059 A 
ATOM     18  C   UNL     1       5.628  -2.997  22.307  0.00  0.00    +0.088 A 
ATOM     19  C   UNL     1       6.091  -4.284  22.572  0.00  0.00    +0.280 A 
ATOM     20  C   UNL     1       7.188  -4.478  23.419  0.00  0.00    +0.172 A 
ATOM     21  C   UNL     1       7.857  -3.358  23.967  0.00  0.00    +0.321 A 
BRANCH  19  22
ATOM     22  N   UNL     1       5.407  -5.428  21.956  0.00  0.00    +0.080 N 
ATOM     23  O   UNL     1       5.879  -5.892  20.908  0.00  0.00    +0.041 OA
ATOM     24  O   UNL     1       4.394  -5.861  22.523  0.00  0.00    -0.576 OA
ENDBRANCH  19  22
BRANCH  21  25
ATOM     25  N   UNL     1       8.986  -3.622  24.880  0.00  0.00    +0.084 N 
ATOM     26  O   UNL     1      10.069  -3.942  24.366  0.00  0.00    +0.042 OA
ATOM     27  O   UNL     1       8.799  -3.554  26.103  0.00  0.00    -0.576 OA
ENDBRANCH  21  25
ENDBRANCH  15  16
ENDBRANCH   6  15
TORSDOF 8
ENDMDL
MODEL 3
REMARK VINA RESULT:      -6.6      2.335      3.660
REMARK  Name = 
REMARK  8 active torsions:
REMARK  status: ('A' for Active; 'I' for Inactive)
REMARK    1  A    between atoms: C_2  and  C_3
REMARK    2  A    between atoms: C_3  and  O_4
REMARK    3  A    between atoms: C_6  and  O_8
REMARK    4  A    between atoms: O_8  and  C_9
REMARK    5  A    between atoms: C_10  and  N_18
REMARK    6  A    between atoms: C_12  and  N_15
REMARK    7  A    between atoms: C_24  and  O_26
REMARK    8  A    between atoms: C_27  and  O_29
REMARK                            x       y       z     vdW  Elec       q    Type
REMARK                         _______ _______ _______ _____ _____    ______ ____
ROOT
ATOM      1  C   UNL     1       7.987   1.401  23.880  0.00  0.00    +0.179 C 
ATOM      2  C   UNL     1       9.166   1.974  23.081  0.00  0.00    +0.177 C 
ATOM      3  C   UNL     1      10.075   0.874  22.517  0.00  0.00    +0.185 C 
ATOM      4  C   UNL     1      10.476  -0.102  23.612  0.00  0.00    +0.265 C 
ATOM      5  F   UNL     1      11.316   0.554  24.477  0.00  0.00    -0.236 F 
ATOM      6  C   UNL     1       9.280  -0.603  24.429  0.00  0.00    +0.345 C 
ATOM      7  O   UNL     1       8.418   0.451  24.870  0.00  0.00    -0.331 OA
ENDROOT
BRANCH   2   8
ATOM      8  O   UNL     1       9.924   2.836  23.946  0.00  0.00    -0.386 OA
ATOM      9  H   UNL     1       9.689   2.634  24.873  0.00  0.00    +0.210 HD
ENDBRANCH   2   8
BRANCH   3  10
ATOM     10  O   UNL     1       9.481   0.230  21.389  0.00  0.00    -0.386 OA
ATOM     11  H   UNL     1      10.150   0.004  20.714  0.00  0.00    +0.210 HD
ENDBRANCH   3  10
BRANCH   1  12
ATOM     12  C   UNL     1       6.851   0.873  22.990  0.00  0.00    +0.190 C 
BRANCH  12  13
ATOM     13  O   UNL     1       5.989  -0.007  23.716  0.00  0.00    -0.392 OA
ATOM     14  H   UNL     1       5.400  -0.439  23.072  0.00  0.00    +0.210 HD
ENDBRANCH  12  13
ENDBRANCH   1  12
BRANCH   6  15
ATOM     15  O   UNL     1       8.582  -1.656  23.743  0.00  0.00    -0.454 OA
BRANCH  15  16
ATOM     16  C   UNL     1       8.157  -2.719  24.509  0.00  0.00    +0.201 A 
ATOM     17  C   UNL     1       8.700  -2.979  25.779  0.00  0.00    +0.059 A 
ATOM     18  C   UNL     1       8.221  -4.012  26.586  0.00  0.00    +0.088 A 
ATOM     19  C   UNL     1       7.191  -4.827  26.125  0.00  0.00    +0.280 A 
ATOM     20  C   UNL     1       6.671  -4.645  24.838  0.00  0.00    +0.172 A 
ATOM     21  C   UNL     1       7.163  -3.598  24.025  0.00  0.00    +0.321 A 
BRANCH  19  22
ATOM     22  N   UNL     1       6.667  -5.880  27.004  0.00  0.00    +0.080 N 
ATOM     23  O   UNL     1       5.703  -6.548  26.600  0.00  0.00    +0.041 OA
ATOM     24  O   UNL     1       7.220  -6.037  28.101  0.00  0.00    -0.576 OA
ENDBRANCH  19  22
BRANCH  21  25
ATOM     25  N   UNL     1       6.603  -3.473  22.666  0.00  0.00    +0.084 N 
ATOM     26  O   UNL     1       5.700  -2.639  22.497  0.00  0.00    +0.042 OA
ATOM     27  O   UNL     1       7.021  -4.223  21.772  0.00  0.00    -0.576 OA
ENDBRANCH  21  25
ENDBRANCH  15  16
ENDBRANCH   6  15
TORSDOF 8
ENDMDL
MODEL 4
REMARK VINA RESULT:      -6.4      2.591      6.554
REMARK  Name = 
REMARK  8 active torsions:
REMARK  status: ('A' for Active; 'I' for Inactive)
REMARK    1  A    between atoms: C_2  and  C_3
REMARK    2  A    between atoms: C_3  and  O_4
REMARK    3  A    between atoms: C_6  and  O_8
REMARK    4  A    between atoms: O_8  and  C_9
REMARK    5  A    between atoms: C_10  and  N_18
REMARK    6  A    between atoms: C_12  and  N_15
REMARK    7  A    between atoms: C_24  and  O_26
REMARK    8  A    between atoms: C_27  and  O_29
REMARK                            x       y       z     vdW  Elec       q    Type
REMARK                         _______ _______ _______ _____ _____    ______ ____
ROOT
ATOM      1  C   UNL     1       6.360  -4.401  25.938  0.00  0.00    +0.179 C 
ATOM      2  C   UNL     1       6.423  -5.345  24.729  0.00  0.00    +0.177 C 
ATOM      3  C   UNL     1       7.366  -4.826  23.636  0.00  0.00    +0.185 C 
ATOM      4  C   UNL     1       7.038  -3.382  23.288  0.00  0.00    +0.265 C 
ATOM      5  F   UNL     1       5.821  -3.365  22.653  0.00  0.00    -0.236 F 
ATOM      6  C   UNL     1       6.922  -2.485  24.525  0.00  0.00    +0.345 C 
ATOM      7  O   UNL     1       6.093  -3.042  25.549  0.00  0.00    -0.331 OA
ENDROOT
BRANCH   2   8
ATOM      8  O   UNL     1       5.094  -5.490  24.197  0.00  0.00    -0.386 OA
ATOM      9  H   UNL     1       5.148  -5.973  23.349  0.00  0.00    +0.210 HD
ENDBRANCH   2   8
BRANCH   3  10
ATOM     10  O   UNL     1       8.735  -5.015  23.993  0.00  0.00    -0.386 OA
ATOM     11  H   UNL     1       9.262  -4.209  23.824  0.00  0.00    +0.210 HD
ENDBRANCH   3  10
BRANCH   1  12
ATOM     12  C   UNL     1       7.571  -4.535  26.875  0.00  0.00    +0.190 C 
BRANCH  12  13
ATOM     13  O   UNL     1       8.079  -5.871  26.880  0.00  0.00    -0.392 OA
ATOM     14  H   UNL     1       8.227  -6.125  27.809  0.00  0.00    +0.210 HD
ENDBRANCH  12  13
ENDBRANCH   1  12
BRANCH   6  15
ATOM     15  O   UNL     1       8.215  -2.079  25.001  0.00  0.00    -0.454 OA
BRANCH  15  16
ATOM     16  C   UNL     1       8.630  -0.810  24.662  0.00  0.00    +0.201 A 
ATOM     17  C   UNL     1       8.143   0.329  25.326  0.00  0.00    +0.059 A 
ATOM     18  C   UNL     1       8.616   1.609  25.032  0.00  0.00    +0.088 A 
ATOM     19  C   UNL     1       9.581   1.779  24.043  0.00  0.00    +0.280 A 
ATOM     20  C   UNL     1      10.041   0.678  23.311  0.00  0.00    +0.172 A 
ATOM     21  C   UNL     1       9.556  -0.616  23.613  0.00  0.00    +0.321 A 
BRANCH  19  22
ATOM     22  N   UNL     1      10.101   3.126  23.779  0.00  0.00    +0.080 N 
ATOM     23  O   UNL     1       9.339   4.088  23.951  0.00  0.00    +0.041 OA
ATOM     24  O   UNL     1      11.276   3.221  23.395  0.00  0.00    -0.576 OA
ENDBRANCH  19  22
BRANCH  21  25
ATOM     25  N   UNL     1      10.049  -1.735  22.787  0.00  0.00    +0.084 N 
ATOM     26  O   UNL     1       9.874  -1.657  21.561  0.00  0.00    +0.042 OA
ATOM     27  O   UNL     1      10.574  -2.709  23.346  0.00  0.00    -0.576 OA
ENDBRANCH  21  25
ENDBRANCH  15  16
ENDBRANCH   6  15
TORSDOF 8
ENDMDL
MODEL 5
REMARK VINA RESULT:      -6.3      2.862      6.552
REMARK  Name = 
REMARK  8 active torsions:
REMARK  status: ('A' for Active; 'I' for Inactive)
REMARK    1  A    between atoms: C_2  and  C_3
REMARK    2  A    between atoms: C_3  and  O_4
REMARK    3  A    between atoms: C_6  and  O_8
REMARK    4  A    between atoms: O_8  and  C_9
REMARK    5  A    between atoms: C_10  and  N_18
REMARK    6  A    between atoms: C_12  and  N_15
REMARK    7  A    between atoms: C_24  and  O_26
REMARK    8  A    between atoms: C_27  and  O_29
REMARK                            x       y       z     vdW  Elec       q    Type
REMARK                         _______ _______ _______ _____ _____    ______ ____
ROOT
ATOM      1  C   UNL     1       8.979  -4.546  26.395  0.00  0.00    +0.179 C 
ATOM      2  C   UNL     1       7.776  -5.498  26.464  0.00  0.00    +0.177 C 
ATOM      3  C   UNL     1       6.585  -4.989  25.642  0.00  0.00    +0.185 C 
ATOM      4  C   UNL     1       6.264  -3.546  26.002  0.00  0.00    +0.265 C 
ATOM      5  F   UNL     1       5.764  -3.530  27.280  0.00  0.00    -0.236 F 
ATOM      6  C   UNL     1       7.500  -2.641  25.983  0.00  0.00    +0.345 C 
ATOM      7  O   UNL     1       8.611  -3.189  26.699  0.00  0.00    -0.331 OA
ENDROOT
BRANCH   2   8
ATOM      8  O   UNL     1       7.391  -5.642  27.842  0.00  0.00    -0.386 OA
ATOM      9  H   UNL     1       7.586  -4.807  28.311  0.00  0.00    +0.210 HD
ENDBRANCH   2   8
BRANCH   3  10
ATOM     10  O   UNL     1       6.794  -5.179  24.243  0.00  0.00    -0.386 OA
ATOM     11  H   UNL     1       7.626  -4.760  23.947  0.00  0.00    +0.210 HD
ENDBRANCH   3  10
BRANCH   1  12
ATOM     12  C   UNL     1       9.781  -4.677  25.090  0.00  0.00    +0.190 C 
BRANCH  12  13
ATOM     13  O   UNL     1       9.724  -6.009  24.577  0.00  0.00    -0.392 OA
ATOM     14  H   UNL     1      10.634  -6.282  24.362  0.00  0.00    +0.210 HD
ENDBRANCH  12  13
ENDBRANCH   1  12
BRANCH   6  15
ATOM     15  O   UNL     1       7.832  -2.235  24.645  0.00  0.00    -0.454 OA
BRANCH  15  16
ATOM     16  C   UNL     1       8.259  -0.937  24.479  0.00  0.00    +0.201 A 
ATOM     17  C   UNL     1       7.790   0.106  25.296  0.00  0.00    +0.059 A 
ATOM     18  C   UNL     1       8.275   1.410  25.175  0.00  0.00    +0.088 A 
ATOM     19  C   UNL     1       9.235   1.702  24.211  0.00  0.00    +0.280 A 
ATOM     20  C   UNL     1       9.677   0.707  23.331  0.00  0.00    +0.172 A 
ATOM     21  C   UNL     1       9.179  -0.610  23.458  0.00  0.00    +0.321 A 
BRANCH  19  22
ATOM     22  N   UNL     1       9.769   3.068  24.128  0.00  0.00    +0.080 N 
ATOM     23  O   UNL     1       9.093   3.987  24.614  0.00  0.00    +0.041 OA
ATOM     24  O   UNL     1      10.866   3.221  23.573  0.00  0.00    -0.576 OA
ENDBRANCH  19  22
BRANCH  21  25
ATOM     25  N   UNL     1       9.654  -1.611  22.483  0.00  0.00    +0.084 N 
ATOM     26  O   UNL     1       8.944  -1.814  21.485  0.00  0.00    +0.042 OA
ATOM     27  O   UNL     1      10.704  -2.227  22.716  0.00  0.00    -0.576 OA
ENDBRANCH  21  25
ENDBRANCH  15  16
ENDBRANCH   6  15
TORSDOF 8
ENDMDL
MODEL 6
REMARK VINA RESULT:      -6.3      2.418      3.092
REMARK  Name = 
REMARK  8 active torsions:
REMARK  status: ('A' for Active; 'I' for Inactive)
REMARK    1  A    between atoms: C_2  and  C_3
REMARK    2  A    between atoms: C_3  and  O_4
REMARK    3  A    between atoms: C_6  and  O_8
REMARK    4  A    between atoms: O_8  and  C_9
REMARK    5  A    between atoms: C_10  and  N_18
REMARK    6  A    between atoms: C_12  and  N_15
REMARK    7  A    between atoms: C_24  and  O_26
REMARK    8  A    between atoms: C_27  and  O_29
REMARK                            x       y       z     vdW  Elec       q    Type
REMARK                         _______ _______ _______ _____ _____    ______ ____
ROOT
ATOM      1  C   UNL     1       7.960   1.557  21.773  0.00  0.00    +0.179 C 
ATOM      2  C   UNL     1       7.802   2.992  22.295  0.00  0.00    +0.177 C 
ATOM      3  C   UNL     1       7.907   3.070  23.823  0.00  0.00    +0.185 C 
ATOM      4  C   UNL     1       6.974   2.060  24.475  0.00  0.00    +0.265 C 
ATOM      5  F   UNL     1       5.684   2.470  24.250  0.00  0.00    -0.236 F 
ATOM      6  C   UNL     1       7.116   0.653  23.885  0.00  0.00    +0.345 C 
ATOM      7  O   UNL     1       7.089   0.637  22.454  0.00  0.00    -0.331 OA
ENDROOT
BRANCH   2   8
ATOM      8  O   UNL     1       6.523   3.491  21.867  0.00  0.00    -0.386 OA
ATOM      9  H   UNL     1       6.661   4.330  21.384  0.00  0.00    +0.210 HD
ENDBRANCH   2   8
BRANCH   3  10
ATOM     10  O   UNL     1       9.259   2.942  24.263  0.00  0.00    -0.386 OA
ATOM     11  H   UNL     1       9.347   2.250  24.948  0.00  0.00    +0.210 HD
ENDBRANCH   3  10
BRANCH   1  12
ATOM     12  C   UNL     1       9.423   1.085  21.730  0.00  0.00    +0.190 C 
BRANCH  12  13
ATOM     13  O   UNL     1      10.317   2.183  21.544  0.00  0.00    -0.392 OA
ATOM     14  H   UNL     1      10.739   2.075  20.672  0.00  0.00    +0.210 HD
ENDBRANCH  12  13
ENDBRANCH   1  12
BRANCH   6  15
ATOM     15  O   UNL     1       8.251  -0.034  24.438  0.00  0.00    -0.454 OA
BRANCH  15  16
ATOM     16  C   UNL     1       8.024  -1.294  24.946  0.00  0.00    +0.201 A 
ATOM     17  C   UNL     1       7.407  -1.489  26.194  0.00  0.00    +0.059 A 
ATOM     18  C   UNL     1       7.113  -2.765  26.677  0.00  0.00    +0.088 A 
ATOM     19  C   UNL     1       7.452  -3.884  25.922  0.00  0.00    +0.280 A 
ATOM     20  C   UNL     1       8.130  -3.736  24.707  0.00  0.00    +0.172 A 
ATOM     21  C   UNL     1       8.428  -2.440  24.225  0.00  0.00    +0.321 A 
BRANCH  19  22
ATOM     22  N   UNL     1       7.094  -5.217  26.423  0.00  0.00    +0.080 N 
ATOM     23  O   UNL     1       6.247  -5.868  25.792  0.00  0.00    +0.041 OA
ATOM     24  O   UNL     1       7.659  -5.613  27.451  0.00  0.00    -0.576 OA
ENDBRANCH  19  22
BRANCH  21  25
ATOM     25  N   UNL     1       9.174  -2.343  22.955  0.00  0.00    +0.084 N 
ATOM     26  O   UNL     1       8.510  -2.297  21.908  0.00  0.00    +0.042 OA
ATOM     27  O   UNL     1      10.413  -2.352  22.984  0.00  0.00    -0.576 OA
ENDBRANCH  21  25
ENDBRANCH  15  16
ENDBRANCH   6  15
TORSDOF 8
ENDMDL
MODEL 7
REMARK VINA RESULT:      -6.3      2.868      6.660
REMARK  Name = 
REMARK  8 active torsions:
REMARK  status: ('A' for Active; 'I' for Inactive)
REMARK    1  A    between atoms: C_2  and  C_3
REMARK    2  A    between atoms: C_3  and  O_4
REMARK    3  A    between atoms: C_6  and  O_8
REMARK    4  A    between atoms: O_8  and  C_9
REMARK    5  A    between atoms: C_10  and  N_18
REMARK    6  A    between atoms: C_12  and  N_15
REMARK    7  A    between atoms: C_24  and  O_26
REMARK    8  A    between atoms: C_27  and  O_29
REMARK                            x       y       z     vdW  Elec       q    Type
REMARK                         _______ _______ _______ _____ _____    ______ ____
ROOT
ATOM      1  C   UNL     1       7.144  -3.701  22.606  0.00  0.00    +0.179 C 
ATOM      2  C   UNL     1       7.502  -4.329  23.961  0.00  0.00    +0.177 C 
ATOM      3  C   UNL     1       8.086  -3.303  24.940  0.00  0.00    +0.185 C 
ATOM      4  C   UNL     1       9.222  -2.529  24.289  0.00  0.00    +0.265 C 
ATOM      5  F   UNL     1      10.274  -3.392  24.110  0.00  0.00    -0.236 F 
ATOM      6  C   UNL     1       8.848  -1.972  22.912  0.00  0.00    +0.345 C 
ATOM      7  O   UNL     1       8.237  -2.944  22.057  0.00  0.00    -0.331 OA
ENDROOT
BRANCH   2   8
ATOM      8  O   UNL     1       8.452  -5.384  23.735  0.00  0.00    -0.386 OA
ATOM      9  H   UNL     1       7.967  -6.228  23.643  0.00  0.00    +0.210 HD
ENDBRANCH   2   8
BRANCH   3  10
ATOM     10  O   UNL     1       7.071  -2.455  25.478  0.00  0.00    -0.386 OA
ATOM     11  H   UNL     1       6.822  -1.753  24.845  0.00  0.00    +0.210 HD
ENDBRANCH   3  10
BRANCH   1  12
ATOM     12  C   UNL     1       5.820  -2.921  22.630  0.00  0.00    +0.190 C 
BRANCH  12  13
ATOM     13  O   UNL     1       4.915  -3.464  23.592  0.00  0.00    -0.392 OA
ATOM     14  H   UNL     1       4.086  -2.954  23.538  0.00  0.00    +0.210 HD
ENDBRANCH  12  13
ENDBRANCH   1  12
BRANCH   6  15
ATOM     15  O   UNL     1       8.085  -0.759  23.027  0.00  0.00    -0.454 OA
BRANCH  15  16
ATOM     16  C   UNL     1       8.798   0.410  23.175  0.00  0.00    +0.201 A 
ATOM     17  C   UNL     1       9.707   0.850  22.198  0.00  0.00    +0.059 A 
ATOM     18  C   UNL     1      10.376   2.070  22.313  0.00  0.00    +0.088 A 
ATOM     19  C   UNL     1      10.162   2.872  23.430  0.00  0.00    +0.280 A 
ATOM     20  C   UNL     1       9.318   2.438  24.459  0.00  0.00    +0.172 A 
ATOM     21  C   UNL     1       8.645   1.200  24.336  0.00  0.00    +0.321 A 
BRANCH  19  22
ATOM     22  N   UNL     1      10.838   4.173  23.514  0.00  0.00    +0.080 N 
ATOM     23  O   UNL     1      12.068   4.200  23.360  0.00  0.00    +0.041 OA
ATOM     24  O   UNL     1      10.137   5.170  23.735  0.00  0.00    -0.576 OA
ENDBRANCH  19  22
BRANCH  21  25
ATOM     25  N   UNL     1       7.795   0.775  25.466  0.00  0.00    +0.084 N 
ATOM     26  O   UNL     1       6.625   1.189  25.482  0.00  0.00    +0.042 OA
ATOM     27  O   UNL     1       8.287   0.069  26.356  0.00  0.00    -0.576 OA
ENDBRANCH  21  25
ENDBRANCH  15  16
ENDBRANCH   6  15
TORSDOF 8
ENDMDL
MODEL 8
REMARK VINA RESULT:      -6.3      2.588      6.482
REMARK  Name = 
REMARK  8 active torsions:
REMARK  status: ('A' for Active; 'I' for Inactive)
REMARK    1  A    between atoms: C_2  and  C_3
REMARK    2  A    between atoms: C_3  and  O_4
REMARK    3  A    between atoms: C_6  and  O_8
REMARK    4  A    between atoms: O_8  and  C_9
REMARK    5  A    between atoms: C_10  and  N_18
REMARK    6  A    between atoms: C_12  and  N_15
REMARK    7  A    between atoms: C_24  and  O_26
REMARK    8  A    between atoms: C_27  and  O_29
REMARK                            x       y       z     vdW  Elec       q    Type
REMARK                         _______ _______ _______ _____ _____    ______ ____
ROOT
ATOM      1  C   UNL     1       5.326  -4.530  24.381  0.00  0.00    +0.179 C 
ATOM      2  C   UNL     1       5.856  -5.467  23.286  0.00  0.00    +0.177 C 
ATOM      3  C   UNL     1       7.172  -4.965  22.680  0.00  0.00    +0.185 C 
ATOM      4  C   UNL     1       7.045  -3.511  22.252  0.00  0.00    +0.265 C 
ATOM      5  F   UNL     1       6.192  -3.459  21.179  0.00  0.00    -0.236 F 
ATOM      6  C   UNL     1       6.454  -2.620  23.350  0.00  0.00    +0.345 C 
ATOM      7  O   UNL     1       5.268  -3.162  23.939  0.00  0.00    -0.331 OA
ENDROOT
BRANCH   2   8
ATOM      8  O   UNL     1       4.856  -5.574  22.258  0.00  0.00    -0.386 OA
ATOM      9  H   UNL     1       4.312  -4.761  22.265  0.00  0.00    +0.210 HD
ENDBRANCH   2   8
BRANCH   3  10
ATOM     10  O   UNL     1       8.274  -5.192  23.559  0.00  0.00    -0.386 OA
ATOM     11  H   UNL     1       8.090  -4.850  24.456  0.00  0.00    +0.210 HD
ENDBRANCH   3  10
BRANCH   1  12
ATOM     12  C   UNL     1       6.048  -4.701  25.727  0.00  0.00    +0.190 C 
BRANCH  12  13
ATOM     13  O   UNL     1       6.454  -6.056  25.930  0.00  0.00    -0.392 OA
ATOM     14  H   UNL     1       7.065  -6.291  25.208  0.00  0.00    +0.210 HD
ENDBRANCH  12  13
ENDBRANCH   1  12
BRANCH   6  15
ATOM     15  O   UNL     1       7.450  -2.250  24.317  0.00  0.00    -0.454 OA
BRANCH  15  16
ATOM     16  C   UNL     1       7.997  -0.992  24.194  0.00  0.00    +0.201 A 
ATOM     17  C   UNL     1       7.274   0.165  24.531  0.00  0.00    +0.059 A 
ATOM     18  C   UNL     1       7.851   1.435  24.474  0.00  0.00    +0.088 A 
ATOM     19  C   UNL     1       9.172   1.575  24.056  0.00  0.00    +0.280 A 
ATOM     20  C   UNL     1       9.904   0.455  23.645  0.00  0.00    +0.172 A 
ATOM     21  C   UNL     1       9.312  -0.828  23.703  0.00  0.00    +0.321 A 
BRANCH  19  22
ATOM     22  N   UNL     1       9.778   2.912  24.047  0.00  0.00    +0.080 N 
ATOM     23  O   UNL     1      10.875   3.049  23.485  0.00  0.00    +0.041 OA
ATOM     24  O   UNL     1       9.156   3.827  24.604  0.00  0.00    -0.576 OA
ENDBRANCH  19  22
BRANCH  21  25
ATOM     25  N   UNL     1      10.117  -1.969  23.226  0.00  0.00    +0.084 N 
ATOM     26  O   UNL     1      10.165  -2.974  23.952  0.00  0.00    +0.042 OA
ATOM     27  O   UNL     1      10.735  -1.863  22.156  0.00  0.00    -0.576 OA
ENDBRANCH  21  25
ENDBRANCH  15  16
ENDBRANCH   6  15
TORSDOF 8
ENDMDL
MODEL 9
REMARK VINA RESULT:      -6.2      3.057      4.381
REMARK  Name = 
REMARK  8 active torsions:
REMARK  status: ('A' for Active; 'I' for Inactive)
REMARK    1  A    between atoms: C_2  and  C_3
REMARK    2  A    between atoms: C_3  and  O_4
REMARK    3  A    between atoms: C_6  and  O_8
REMARK    4  A    between atoms: O_8  and  C_9
REMARK    5  A    between atoms: C_10  and  N_18
REMARK    6  A    between atoms: C_12  and  N_15
REMARK    7  A    between atoms: C_24  and  O_26
REMARK    8  A    between atoms: C_27  and  O_29
REMARK                            x       y       z     vdW  Elec       q    Type
REMARK                         _______ _______ _______ _____ _____    ______ ____
ROOT
ATOM      1  C   UNL     1      10.034   0.000  23.236  0.00  0.00    +0.179 C 
ATOM      2  C   UNL     1       8.921   0.156  22.189  0.00  0.00    +0.177 C 
ATOM      3  C   UNL     1       7.636  -0.578  22.593  0.00  0.00    +0.185 C 
ATOM      4  C   UNL     1       7.941  -2.019  22.974  0.00  0.00    +0.265 C 
ATOM      5  F   UNL     1       8.312  -2.688  21.835  0.00  0.00    -0.236 F 
ATOM      6  C   UNL     1       9.098  -2.138  23.972  0.00  0.00    +0.345 C 
ATOM      7  O   UNL     1      10.249  -1.376  23.593  0.00  0.00    -0.331 OA
ENDROOT
BRANCH   2   8
ATOM      8  O   UNL     1       9.402  -0.358  20.936  0.00  0.00    -0.386 OA
ATOM      9  H   UNL     1      10.374  -0.256  20.908  0.00  0.00    +0.210 HD
ENDBRANCH   2   8
BRANCH   3  10
ATOM     10  O   UNL     1       6.928   0.128  23.612  0.00  0.00    -0.386 OA
ATOM     11  H   UNL     1       6.182   0.638  23.239  0.00  0.00    +0.210 HD
ENDBRANCH   3  10
BRANCH   1  12
ATOM     12  C   UNL     1       9.853   0.920  24.454  0.00  0.00    +0.190 C 
BRANCH  12  13
ATOM     13  O   UNL     1      10.583   0.435  25.583  0.00  0.00    -0.392 OA
ATOM     14  H   UNL     1      10.124  -0.359  25.911  0.00  0.00    +0.210 HD
ENDBRANCH  12  13
ENDBRANCH   1  12
BRANCH   6  15
ATOM     15  O   UNL     1       8.660  -1.873  25.315  0.00  0.00    -0.454 OA
BRANCH  15  16
ATOM     16  C   UNL     1       8.025  -2.902  25.974  0.00  0.00    +0.201 A 
ATOM     17  C   UNL     1       8.675  -4.117  26.250  0.00  0.00    +0.059 A 
ATOM     18  C   UNL     1       8.056  -5.133  26.980  0.00  0.00    +0.088 A 
ATOM     19  C   UNL     1       6.752  -4.959  27.436  0.00  0.00    +0.280 A 
ATOM     20  C   UNL     1       6.045  -3.792  27.122  0.00  0.00    +0.172 A 
ATOM     21  C   UNL     1       6.679  -2.768  26.380  0.00  0.00    +0.321 A 
BRANCH  19  22
ATOM     22  N   UNL     1       6.132  -6.018  28.242  0.00  0.00    +0.080 N 
ATOM     23  O   UNL     1       6.235  -5.946  29.475  0.00  0.00    +0.041 OA
ATOM     24  O   UNL     1       5.542  -6.925  27.638  0.00  0.00    -0.576 OA
ENDBRANCH  19  22
BRANCH  21  25
ATOM     25  N   UNL     1       5.875  -1.575  26.049  0.00  0.00    +0.084 N 
ATOM     26  O   UNL     1       6.109  -0.538  26.689  0.00  0.00    +0.042 OA
ATOM     27  O   UNL     1       4.989  -1.667  25.188  0.00  0.00    -0.576 OA
ENDBRANCH  21  25
ENDBRANCH  15  16
ENDBRANCH   6  15
TORSDOF 8
ENDMDL
