MODEL 1
REMARK VINA RESULT:      -7.2      0.000      0.000
REMARK  Name = 
REMARK  5 active torsions:
REMARK  status: ('A' for Active; 'I' for Inactive)
REMARK    1  A    between atoms: C_1  and  C_2
REMARK    2  A    between atoms: C_2  and  C_4
REMARK    3  A    between atoms: C_7  and  S_10
REMARK    4  A    between atoms: S_10  and  N_13
REMARK    5  A    between atoms: N_16  and  C_17
REMARK                            x       y       z     vdW  Elec       q    Type
REMARK                         _______ _______ _______ _____ _____    ______ ____
ROOT
ATOM      1  S   UNL     1       8.685  -4.663  24.470  0.00  0.00    +0.076 S 
ATOM      2  O   UNL     1       8.237  -5.049  23.148  0.00  0.00    -0.150 OA
ATOM      3  O   UNL     1       9.957  -5.122  24.983  0.00  0.00    -0.150 OA
ENDROOT
BRANCH   1   7
ATOM      4  C   UNL     1       5.421  -6.051  27.348  0.00  0.00    +0.017 A 
ATOM      5  C   UNL     1       6.684  -5.699  27.840  0.00  0.00    +0.013 A 
ATOM      6  C   UNL     1       7.671  -5.236  26.966  0.00  0.00    +0.029 A 
ATOM      7  C   UNL     1       7.394  -5.135  25.598  0.00  0.00    +0.109 A 
ATOM      8  C   UNL     1       6.127  -5.457  25.102  0.00  0.00    +0.029 A 
ATOM      9  C   UNL     1       5.138  -5.901  25.983  0.00  0.00    +0.013 A 
BRANCH   4  11
ATOM     10  C   UNL     1       2.923  -6.383  27.869  0.00  0.00    +0.091 C 
ATOM     11  C   UNL     1       4.368  -6.621  28.233  0.00  0.00    +0.160 C 
ATOM     12  O   UNL     1       4.689  -7.213  29.260  0.00  0.00    -0.292 OA
ENDBRANCH   4  11
ENDBRANCH   1   7
BRANCH   1  13
ATOM     13  N   UNL     1       8.671  -3.001  24.478  0.00  0.00    -0.169 N 
ATOM     14  H   UNL     1       7.918  -2.609  25.025  0.00  0.00    +0.178 HD
ATOM     15  C   UNL     1       9.594  -2.220  23.808  0.00  0.00    +0.319 C 
ATOM     16  N   UNL     1       9.354  -0.881  23.926  0.00  0.00    -0.295 N 
ATOM     17  H   UNL     1       8.621  -0.568  24.542  0.00  0.00    +0.151 HD
ATOM     18  O   UNL     1      10.536  -2.694  23.193  0.00  0.00    -0.251 OA
BRANCH  16  19
ATOM     19  C   UNL     1      10.265   0.099  23.345  0.00  0.00    +0.074 C 
ATOM     20  C   UNL     1      10.487   1.289  24.291  0.00  0.00    +0.022 C 
ATOM     21  C   UNL     1       9.281   2.223  24.358  0.00  0.00    +0.002 C 
ATOM     22  C   UNL     1       8.845   2.683  22.971  0.00  0.00    +0.000 C 
ATOM     23  C   UNL     1       8.580   1.503  22.041  0.00  0.00    +0.002 C 
ATOM     24  C   UNL     1       9.782   0.564  21.968  0.00  0.00    +0.022 C 
ENDBRANCH  16  19
ENDBRANCH   1  13
TORSDOF 4
ENDMDL
MODEL 2
REMARK VINA RESULT:      -7.1      1.801      2.214
REMARK  Name = 
REMARK  5 active torsions:
REMARK  status: ('A' for Active; 'I' for Inactive)
REMARK    1  A    between atoms: C_1  and  C_2
REMARK    2  A    between atoms: C_2  and  C_4
REMARK    3  A    between atoms: C_7  and  S_10
REMARK    4  A    between atoms: S_10  and  N_13
REMARK    5  A    between atoms: N_16  and  C_17
REMARK                            x       y       z     vdW  Elec       q    Type
REMARK                         _______ _______ _______ _____ _____    ______ ____
ROOT
ATOM      1  S   UNL     1       8.481  -4.568  25.407  0.00  0.00    +0.076 S 
ATOM      2  O   UNL     1       9.421  -5.274  24.561  0.00  0.00    -0.150 OA
ATOM      3  O   UNL     1       8.678  -4.504  26.838  0.00  0.00    -0.150 OA
ENDROOT
BRANCH   1   7
ATOM      4  C   UNL     1       4.444  -6.509  24.512  0.00  0.00    +0.017 A 
ATOM      5  C   UNL     1       4.896  -6.413  25.834  0.00  0.00    +0.013 A 
ATOM      6  C   UNL     1       6.113  -5.784  26.113  0.00  0.00    +0.029 A 
ATOM      7  C   UNL     1       6.878  -5.259  25.067  0.00  0.00    +0.109 A 
ATOM      8  C   UNL     1       6.421  -5.324  23.747  0.00  0.00    +0.029 A 
ATOM      9  C   UNL     1       5.195  -5.937  23.475  0.00  0.00    +0.013 A 
BRANCH   4  11
ATOM     10  C   UNL     1       2.208  -6.566  23.241  0.00  0.00    +0.091 C 
ATOM     11  C   UNL     1       3.194  -7.238  24.164  0.00  0.00    +0.160 C 
ATOM     12  O   UNL     1       2.962  -8.330  24.675  0.00  0.00    -0.292 OA
ENDBRANCH   4  11
ENDBRANCH   1   7
BRANCH   1  13
ATOM     13  N   UNL     1       8.414  -3.021  24.804  0.00  0.00    -0.169 N 
ATOM     14  H   UNL     1       7.557  -2.538  25.032  0.00  0.00    +0.178 HD
ATOM     15  C   UNL     1       9.426  -2.439  24.064  0.00  0.00    +0.319 C 
ATOM     16  N   UNL     1       9.126  -1.175  23.641  0.00  0.00    -0.295 N 
ATOM     17  H   UNL     1       8.278  -0.739  23.964  0.00  0.00    +0.151 HD
ATOM     18  O   UNL     1      10.485  -3.002  23.836  0.00  0.00    -0.251 OA
BRANCH  16  19
ATOM     19  C   UNL     1      10.102  -0.378  22.907  0.00  0.00    +0.074 C 
ATOM     20  C   UNL     1      10.646   0.774  23.765  0.00  0.00    +0.022 C 
ATOM     21  C   UNL     1       9.633   1.903  23.948  0.00  0.00    +0.002 C 
ATOM     22  C   UNL     1       9.099   2.404  22.610  0.00  0.00    +0.000 C 
ATOM     23  C   UNL     1       8.518   1.269  21.772  0.00  0.00    +0.002 C 
ATOM     24  C   UNL     1       9.524   0.136  21.585  0.00  0.00    +0.022 C 
ENDBRANCH  16  19
ENDBRANCH   1  13
TORSDOF 4
ENDMDL
MODEL 3
REMARK VINA RESULT:      -7.0      2.010      2.714
REMARK  Name = 
REMARK  5 active torsions:
REMARK  status: ('A' for Active; 'I' for Inactive)
REMARK    1  A    between atoms: C_1  and  C_2
REMARK    2  A    between atoms: C_2  and  C_4
REMARK    3  A    between atoms: C_7  and  S_10
REMARK    4  A    between atoms: S_10  and  N_13
REMARK    5  A    between atoms: N_16  and  C_17
REMARK                            x       y       z     vdW  Elec       q    Type
REMARK                         _______ _______ _______ _____ _____    ______ ____
ROOT
ATOM      1  S   UNL     1       9.012  -4.604  25.503  0.00  0.00    +0.076 S 
ATOM      2  O   UNL     1       9.925  -5.615  25.014  0.00  0.00    -0.150 OA
ATOM      3  O   UNL     1       9.038  -4.192  26.889  0.00  0.00    -0.150 OA
ENDROOT
BRANCH   1   7
ATOM      4  C   UNL     1       4.870  -6.203  24.425  0.00  0.00    +0.017 A 
ATOM      5  C   UNL     1       5.256  -6.108  25.768  0.00  0.00    +0.013 A 
ATOM      6  C   UNL     1       6.507  -5.582  26.102  0.00  0.00    +0.029 A 
ATOM      7  C   UNL     1       7.374  -5.159  25.088  0.00  0.00    +0.109 A 
ATOM      8  C   UNL     1       6.986  -5.224  23.746  0.00  0.00    +0.029 A 
ATOM      9  C   UNL     1       5.727  -5.733  23.419  0.00  0.00    +0.013 A 
BRANCH   4  11
ATOM     10  C   UNL     1       2.613  -6.008  23.207  0.00  0.00    +0.091 C 
ATOM     11  C   UNL     1       3.580  -6.828  24.024  0.00  0.00    +0.160 C 
ATOM     12  O   UNL     1       3.305  -7.960  24.411  0.00  0.00    -0.292 OA
ENDBRANCH   4  11
ENDBRANCH   1   7
BRANCH   1  13
ATOM     13  N   UNL     1       9.266  -3.272  24.542  0.00  0.00    -0.169 N 
ATOM     14  H   UNL     1       9.922  -3.437  23.793  0.00  0.00    +0.178 HD
ATOM     15  C   UNL     1       8.643  -2.053  24.736  0.00  0.00    +0.319 C 
ATOM     16  N   UNL     1       9.042  -1.097  23.846  0.00  0.00    -0.295 N 
ATOM     17  H   UNL     1       9.652  -1.357  23.089  0.00  0.00    +0.151 HD
ATOM     18  O   UNL     1       7.808  -1.871  25.607  0.00  0.00    -0.251 OA
BRANCH  16  19
ATOM     19  C   UNL     1       8.441   0.232  23.853  0.00  0.00    +0.074 C 
ATOM     20  C   UNL     1       8.211   0.751  22.426  0.00  0.00    +0.022 C 
ATOM     21  C   UNL     1       9.506   1.174  21.736  0.00  0.00    +0.002 C 
ATOM     22  C   UNL     1      10.294   2.174  22.578  0.00  0.00    +0.000 C 
ATOM     23  C   UNL     1      10.562   1.643  23.982  0.00  0.00    +0.002 C 
ATOM     24  C   UNL     1       9.272   1.218  24.679  0.00  0.00    +0.022 C 
ENDBRANCH  16  19
ENDBRANCH   1  13
TORSDOF 4
ENDMDL
MODEL 4
REMARK VINA RESULT:      -7.0      2.131      2.760
REMARK  Name = 
REMARK  5 active torsions:
REMARK  status: ('A' for Active; 'I' for Inactive)
REMARK    1  A    between atoms: C_1  and  C_2
REMARK    2  A    between atoms: C_2  and  C_4
REMARK    3  A    between atoms: C_7  and  S_10
REMARK    4  A    between atoms: S_10  and  N_13
REMARK    5  A    between atoms: N_16  and  C_17
REMARK                            x       y       z     vdW  Elec       q    Type
REMARK                         _______ _______ _______ _____ _____    ______ ____
ROOT
ATOM      1  S   UNL     1       6.706  -4.628  22.240  0.00  0.00    +0.076 S 
ATOM      2  O   UNL     1       5.383  -4.205  21.830  0.00  0.00    -0.150 OA
ATOM      3  O   UNL     1       7.401  -5.677  21.527  0.00  0.00    -0.150 OA
ENDROOT
BRANCH   1   7
ATOM      4  C   UNL     1       6.348  -5.584  26.693  0.00  0.00    +0.017 A 
ATOM      5  C   UNL     1       5.236  -5.730  25.855  0.00  0.00    +0.013 A 
ATOM      6  C   UNL     1       5.354  -5.477  24.485  0.00  0.00    +0.029 A 
ATOM      7  C   UNL     1       6.584  -5.069  23.959  0.00  0.00    +0.109 A 
ATOM      8  C   UNL     1       7.707  -4.948  24.783  0.00  0.00    +0.029 A 
ATOM      9  C   UNL     1       7.588  -5.221  26.149  0.00  0.00    +0.013 A 
BRANCH   4  11
ATOM     10  C   UNL     1       5.271  -4.907  28.928  0.00  0.00    +0.091 C 
ATOM     11  C   UNL     1       6.247  -5.768  28.166  0.00  0.00    +0.160 C 
ATOM     12  O   UNL     1       6.990  -6.563  28.735  0.00  0.00    -0.292 OA
ENDBRANCH   4  11
ENDBRANCH   1   7
BRANCH   1  13
ATOM     13  N   UNL     1       7.639  -3.253  22.218  0.00  0.00    -0.169 N 
ATOM     14  H   UNL     1       8.557  -3.398  21.824  0.00  0.00    +0.178 HD
ATOM     15  C   UNL     1       7.212  -2.026  22.688  0.00  0.00    +0.319 C 
ATOM     16  N   UNL     1       8.169  -1.054  22.606  0.00  0.00    -0.295 N 
ATOM     17  H   UNL     1       9.038  -1.261  22.141  0.00  0.00    +0.151 HD
ATOM     18  O   UNL     1       6.083  -1.838  23.113  0.00  0.00    -0.251 OA
BRANCH  16  19
ATOM     19  C   UNL     1       7.876   0.322  22.989  0.00  0.00    +0.074 C 
ATOM     20  C   UNL     1       8.426   1.321  21.960  0.00  0.00    +0.022 C 
ATOM     21  C   UNL     1       9.945   1.463  22.027  0.00  0.00    +0.002 C 
ATOM     22  C   UNL     1      10.418   1.796  23.439  0.00  0.00    +0.000 C 
ATOM     23  C   UNL     1       9.911   0.781  24.459  0.00  0.00    +0.002 C 
ATOM     24  C   UNL     1       8.392   0.632  24.398  0.00  0.00    +0.022 C 
ENDBRANCH  16  19
ENDBRANCH   1  13
TORSDOF 4
ENDMDL
MODEL 5
REMARK VINA RESULT:      -6.5      2.893      8.376
REMARK  Name = 
REMARK  5 active torsions:
REMARK  status: ('A' for Active; 'I' for Inactive)
REMARK    1  A    between atoms: C_1  and  C_2
REMARK    2  A    between atoms: C_2  and  C_4
REMARK    3  A    between atoms: C_7  and  S_10
REMARK    4  A    between atoms: S_10  and  N_13
REMARK    5  A    between atoms: N_16  and  C_17
REMARK                            x       y       z     vdW  Elec       q    Type
REMARK                         _______ _______ _______ _____ _____    ______ ____
ROOT
ATOM      1  S   UNL     1       9.769  -0.290  23.568  0.00  0.00    +0.076 S 
ATOM      2  O   UNL     1      10.225  -0.225  24.941  0.00  0.00    -0.150 OA
ATOM      3  O   UNL     1      10.684  -0.622  22.499  0.00  0.00    -0.150 OA
ENDROOT
BRANCH   1   7
ATOM      4  C   UNL     1       7.647   3.674  22.762  0.00  0.00    +0.017 A 
ATOM      5  C   UNL     1       8.463   3.535  23.892  0.00  0.00    +0.013 A 
ATOM      6  C   UNL     1       9.145   2.336  24.119  0.00  0.00    +0.029 A 
ATOM      7  C   UNL     1       9.001   1.275  23.218  0.00  0.00    +0.109 A 
ATOM      8  C   UNL     1       8.212   1.416  22.072  0.00  0.00    +0.029 A 
ATOM      9  C   UNL     1       7.547   2.623  21.840  0.00  0.00    +0.013 A 
BRANCH   4  11
ATOM     10  C   UNL     1       7.552   6.129  22.000  0.00  0.00    +0.091 C 
ATOM     11  C   UNL     1       6.844   4.905  22.525  0.00  0.00    +0.160 C 
ATOM     12  O   UNL     1       5.650   4.920  22.813  0.00  0.00    -0.292 OA
ENDBRANCH   4  11
ENDBRANCH   1   7
BRANCH   1  13
ATOM     13  N   UNL     1       8.519  -1.387  23.566  0.00  0.00    -0.169 N 
ATOM     14  H   UNL     1       7.619  -0.969  23.381  0.00  0.00    +0.178 HD
ATOM     15  C   UNL     1       8.683  -2.741  23.790  0.00  0.00    +0.319 C 
ATOM     16  N   UNL     1       7.507  -3.435  23.782  0.00  0.00    -0.295 N 
ATOM     17  H   UNL     1       6.659  -2.956  23.526  0.00  0.00    +0.151 HD
ATOM     18  O   UNL     1       9.778  -3.254  23.958  0.00  0.00    -0.251 OA
BRANCH  16  19
ATOM     19  C   UNL     1       7.490  -4.886  23.931  0.00  0.00    +0.074 C 
ATOM     20  C   UNL     1       7.375  -5.588  22.570  0.00  0.00    +0.022 C 
ATOM     21  C   UNL     1       5.975  -5.481  21.967  0.00  0.00    +0.002 C 
ATOM     22  C   UNL     1       4.903  -5.962  22.941  0.00  0.00    +0.000 C 
ATOM     23  C   UNL     1       4.987  -5.235  24.279  0.00  0.00    +0.002 C 
ATOM     24  C   UNL     1       6.384  -5.337  24.888  0.00  0.00    +0.022 C 
ENDBRANCH  16  19
ENDBRANCH   1  13
TORSDOF 4
ENDMDL
MODEL 6
REMARK VINA RESULT:      -6.5      2.246      8.278
REMARK  Name = 
REMARK  5 active torsions:
REMARK  status: ('A' for Active; 'I' for Inactive)
REMARK    1  A    between atoms: C_1  and  C_2
REMARK    2  A    between atoms: C_2  and  C_4
REMARK    3  A    between atoms: C_7  and  S_10
REMARK    4  A    between atoms: S_10  and  N_13
REMARK    5  A    between atoms: N_16  and  C_17
REMARK                            x       y       z     vdW  Elec       q    Type
REMARK                         _______ _______ _______ _____ _____    ______ ____
ROOT
ATOM      1  S   UNL     1       9.412  -1.861  22.840  0.00  0.00    +0.076 S 
ATOM      2  O   UNL     1      10.711  -2.475  23.011  0.00  0.00    -0.150 OA
ATOM      3  O   UNL     1       8.659  -2.050  21.620  0.00  0.00    -0.150 OA
ENDROOT
BRANCH   1   7
ATOM      4  C   UNL     1       9.801   2.635  23.546  0.00  0.00    +0.017 A 
ATOM      5  C   UNL     1       9.522   1.780  24.620  0.00  0.00    +0.013 A 
ATOM      6  C   UNL     1       9.443   0.400  24.413  0.00  0.00    +0.029 A 
ATOM      7  C   UNL     1       9.633  -0.120  23.128  0.00  0.00    +0.109 A 
ATOM      8  C   UNL     1       9.940   0.723  22.056  0.00  0.00    +0.029 A 
ATOM      9  C   UNL     1      10.037   2.100  22.272  0.00  0.00    +0.013 A 
BRANCH   4  11
ATOM     10  C   UNL     1      11.143   4.828  23.616  0.00  0.00    +0.091 C 
ATOM     11  C   UNL     1       9.817   4.115  23.709  0.00  0.00    +0.160 C 
ATOM     12  O   UNL     1       8.777   4.711  23.973  0.00  0.00    -0.292 OA
ENDBRANCH   4  11
ENDBRANCH   1   7
BRANCH   1  13
ATOM     13  N   UNL     1       8.496  -2.391  24.123  0.00  0.00    -0.169 N 
ATOM     14  H   UNL     1       8.171  -1.644  24.718  0.00  0.00    +0.178 HD
ATOM     15  C   UNL     1       8.200  -3.720  24.360  0.00  0.00    +0.319 C 
ATOM     16  N   UNL     1       7.470  -3.915  25.497  0.00  0.00    -0.295 N 
ATOM     17  H   UNL     1       7.129  -3.114  26.003  0.00  0.00    +0.151 HD
ATOM     18  O   UNL     1       8.547  -4.618  23.608  0.00  0.00    -0.251 OA
BRANCH  16  19
ATOM     19  C   UNL     1       7.003  -5.245  25.871  0.00  0.00    +0.074 C 
ATOM     20  C   UNL     1       5.652  -5.570  25.219  0.00  0.00    +0.022 C 
ATOM     21  C   UNL     1       4.489  -4.816  25.860  0.00  0.00    +0.002 C 
ATOM     22  C   UNL     1       4.447  -5.023  27.371  0.00  0.00    +0.000 C 
ATOM     23  C   UNL     1       5.775  -4.659  28.029  0.00  0.00    +0.002 C 
ATOM     24  C   UNL     1       6.942  -5.410  27.393  0.00  0.00    +0.022 C 
ENDBRANCH  16  19
ENDBRANCH   1  13
TORSDOF 4
ENDMDL
MODEL 7
REMARK VINA RESULT:      -6.3      2.305      8.060
REMARK  Name = 
REMARK  5 active torsions:
REMARK  status: ('A' for Active; 'I' for Inactive)
REMARK    1  A    between atoms: C_1  and  C_2
REMARK    2  A    between atoms: C_2  and  C_4
REMARK    3  A    between atoms: C_7  and  S_10
REMARK    4  A    between atoms: S_10  and  N_13
REMARK    5  A    between atoms: N_16  and  C_17
REMARK                            x       y       z     vdW  Elec       q    Type
REMARK                         _______ _______ _______ _____ _____    ______ ____
ROOT
ATOM      1  S   UNL     1       8.940  -4.161  25.520  0.00  0.00    +0.076 S 
ATOM      2  O   UNL     1       8.866  -3.965  26.952  0.00  0.00    -0.150 OA
ATOM      3  O   UNL     1       9.867  -5.114  24.951  0.00  0.00    -0.150 OA
ENDROOT
BRANCH   1   7
ATOM      4  C   UNL     1       9.863  -0.043  23.770  0.00  0.00    +0.017 A 
ATOM      5  C   UNL     1      10.214  -1.199  23.061  0.00  0.00    +0.013 A 
ATOM      6  C   UNL     1       9.896  -2.459  23.576  0.00  0.00    +0.029 A 
ATOM      7  C   UNL     1       9.235  -2.559  24.805  0.00  0.00    +0.109 A 
ATOM      8  C   UNL     1       8.855  -1.410  25.506  0.00  0.00    +0.029 A 
ATOM      9  C   UNL     1       9.158  -0.153  24.977  0.00  0.00    +0.013 A 
BRANCH   4  11
ATOM     10  C   UNL     1       9.851   1.722  21.899  0.00  0.00    +0.091 C 
ATOM     11  C   UNL     1      10.250   1.313  23.295  0.00  0.00    +0.160 C 
ATOM     12  O   UNL     1      10.930   2.041  24.014  0.00  0.00    -0.292 OA
ENDBRANCH   4  11
ENDBRANCH   1   7
BRANCH   1  13
ATOM     13  N   UNL     1       7.398  -4.561  25.044  0.00  0.00    -0.169 N 
ATOM     14  H   UNL     1       7.095  -4.073  24.214  0.00  0.00    +0.178 HD
ATOM     15  C   UNL     1       6.601  -5.473  25.709  0.00  0.00    +0.319 C 
ATOM     16  N   UNL     1       5.358  -5.605  25.157  0.00  0.00    -0.295 N 
ATOM     17  H   UNL     1       5.154  -5.132  24.292  0.00  0.00    +0.151 HD
ATOM     18  O   UNL     1       6.988  -6.105  26.679  0.00  0.00    -0.251 OA
BRANCH  16  19
ATOM     19  C   UNL     1       4.403  -6.575  25.682  0.00  0.00    +0.074 C 
ATOM     20  C   UNL     1       3.617  -7.256  24.552  0.00  0.00    +0.022 C 
ATOM     21  C   UNL     1       2.572  -6.338  23.923  0.00  0.00    +0.002 C 
ATOM     22  C   UNL     1       1.641  -5.740  24.973  0.00  0.00    +0.000 C 
ATOM     23  C   UNL     1       2.416  -5.024  26.074  0.00  0.00    +0.002 C 
ATOM     24  C   UNL     1       3.464  -5.936  26.709  0.00  0.00    +0.022 C 
ENDBRANCH  16  19
ENDBRANCH   1  13
TORSDOF 4
ENDMDL
MODEL 8
REMARK VINA RESULT:      -6.3      2.179      3.321
REMARK  Name = 
REMARK  5 active torsions:
REMARK  status: ('A' for Active; 'I' for Inactive)
REMARK    1  A    between atoms: C_1  and  C_2
REMARK    2  A    between atoms: C_2  and  C_4
REMARK    3  A    between atoms: C_7  and  S_10
REMARK    4  A    between atoms: S_10  and  N_13
REMARK    5  A    between atoms: N_16  and  C_17
REMARK                            x       y       z     vdW  Elec       q    Type
REMARK                         _______ _______ _______ _____ _____    ______ ____
ROOT
ATOM      1  S   UNL     1       9.221  -1.900  22.849  0.00  0.00    +0.076 S 
ATOM      2  O   UNL     1       8.410  -2.048  21.659  0.00  0.00    -0.150 OA
ATOM      3  O   UNL     1      10.661  -2.016  22.782  0.00  0.00    -0.150 OA
ENDROOT
BRANCH   1   7
ATOM      4  C   UNL     1       7.445  -4.804  25.895  0.00  0.00    +0.017 A 
ATOM      5  C   UNL     1       7.368  -5.092  24.526  0.00  0.00    +0.013 A 
ATOM      6  C   UNL     1       7.946  -4.224  23.595  0.00  0.00    +0.029 A 
ATOM      7  C   UNL     1       8.593  -3.065  24.036  0.00  0.00    +0.109 A 
ATOM      8  C   UNL     1       8.700  -2.785  25.402  0.00  0.00    +0.029 A 
ATOM      9  C   UNL     1       8.137  -3.665  26.330  0.00  0.00    +0.013 A 
BRANCH   4  11
ATOM     10  C   UNL     1       5.388  -6.169  26.617  0.00  0.00    +0.091 C 
ATOM     11  C   UNL     1       6.777  -5.661  26.912  0.00  0.00    +0.160 C 
ATOM     12  O   UNL     1       7.335  -5.884  27.983  0.00  0.00    -0.292 OA
ENDBRANCH   4  11
ENDBRANCH   1   7
BRANCH   1  13
ATOM     13  N   UNL     1       8.831  -0.408  23.470  0.00  0.00    -0.169 N 
ATOM     14  H   UNL     1       8.419  -0.452  24.391  0.00  0.00    +0.178 HD
ATOM     15  C   UNL     1       9.048   0.784  22.804  0.00  0.00    +0.319 C 
ATOM     16  N   UNL     1       8.607   1.876  23.496  0.00  0.00    -0.295 N 
ATOM     17  H   UNL     1       8.266   1.755  24.435  0.00  0.00    +0.151 HD
ATOM     18  O   UNL     1       9.597   0.841  21.715  0.00  0.00    -0.251 OA
BRANCH  16  19
ATOM     19  C   UNL     1       8.815   3.225  22.981  0.00  0.00    +0.074 C 
ATOM     20  C   UNL     1       9.480   4.129  24.029  0.00  0.00    +0.022 C 
ATOM     21  C   UNL     1       8.524   4.539  25.148  0.00  0.00    +0.002 C 
ATOM     22  C   UNL     1       7.245   5.163  24.597  0.00  0.00    +0.000 C 
ATOM     23  C   UNL     1       6.558   4.248  23.588  0.00  0.00    +0.002 C 
ATOM     24  C   UNL     1       7.507   3.834  22.466  0.00  0.00    +0.022 C 
ENDBRANCH  16  19
ENDBRANCH   1  13
TORSDOF 4
ENDMDL
MODEL 9
REMARK VINA RESULT:      -6.2      3.099      8.341
REMARK  Name = 
REMARK  5 active torsions:
REMARK  status: ('A' for Active; 'I' for Inactive)
REMARK    1  A    between atoms: C_1  and  C_2
REMARK    2  A    between atoms: C_2  and  C_4
REMARK    3  A    between atoms: C_7  and  S_10
REMARK    4  A    between atoms: S_10  and  N_13
REMARK    5  A    between atoms: N_16  and  C_17
REMARK                            x       y       z     vdW  Elec       q    Type
REMARK                         _______ _______ _______ _____ _____    ______ ____
ROOT
ATOM      1  S   UNL     1      10.118   0.428  23.587  0.00  0.00    +0.076 S 
ATOM      2  O   UNL     1      11.326   0.249  24.365  0.00  0.00    -0.150 OA
ATOM      3  O   UNL     1      10.163   0.437  22.142  0.00  0.00    -0.150 OA
ENDROOT
BRANCH   1   7
ATOM      4  C   UNL     1       8.314   4.305  25.196  0.00  0.00    +0.017 A 
ATOM      5  C   UNL     1       9.329   4.352  24.231  0.00  0.00    +0.013 A 
ATOM      6  C   UNL     1       9.854   3.167  23.708  0.00  0.00    +0.029 A 
ATOM      7  C   UNL     1       9.367   1.935  24.160  0.00  0.00    +0.109 A 
ATOM      8  C   UNL     1       8.335   1.878  25.101  0.00  0.00    +0.029 A 
ATOM      9  C   UNL     1       7.801   3.066  25.607  0.00  0.00    +0.013 A 
BRANCH   4  11
ATOM     10  C   UNL     1       8.769   6.555  26.356  0.00  0.00    +0.091 C 
ATOM     11  C   UNL     1       7.783   5.540  25.834  0.00  0.00    +0.160 C 
ATOM     12  O   UNL     1       6.572   5.681  25.976  0.00  0.00    -0.292 OA
ENDBRANCH   4  11
ENDBRANCH   1   7
BRANCH   1  13
ATOM     13  N   UNL     1       9.085  -0.777  24.085  0.00  0.00    -0.169 N 
ATOM     14  H   UNL     1       8.232  -0.428  24.496  0.00  0.00    +0.178 HD
ATOM     15  C   UNL     1       9.355  -2.125  23.950  0.00  0.00    +0.319 C 
ATOM     16  N   UNL     1       8.378  -2.925  24.471  0.00  0.00    -0.295 N 
ATOM     17  H   UNL     1       7.528  -2.503  24.806  0.00  0.00    +0.151 HD
ATOM     18  O   UNL     1      10.362  -2.545  23.401  0.00  0.00    -0.251 OA
BRANCH  16  19
ATOM     19  C   UNL     1       8.456  -4.377  24.357  0.00  0.00    +0.074 C 
ATOM     20  C   UNL     1       7.104  -4.982  23.953  0.00  0.00    +0.022 C 
ATOM     21  C   UNL     1       6.089  -4.974  25.094  0.00  0.00    +0.002 C 
ATOM     22  C   UNL     1       6.647  -5.634  26.351  0.00  0.00    +0.000 C 
ATOM     23  C   UNL     1       7.968  -5.006  26.781  0.00  0.00    +0.002 C 
ATOM     24  C   UNL     1       8.989  -5.011  25.645  0.00  0.00    +0.022 C 
ENDBRANCH  16  19
ENDBRANCH   1  13
TORSDOF 4
ENDMDL
