MODEL 1
REMARK VINA RESULT:      -4.8      0.000      0.000
REMARK  Name = 
REMARK  6 active torsions:
REMARK  status: ('A' for Active; 'I' for Inactive)
REMARK    1  A    between atoms: C_2  and  C_10
REMARK    2  A    between atoms: C_6  and  O_7
REMARK    3  A    between atoms: C_8  and  O_9
REMARK    4  A    between atoms: C_10  and  O_12
REMARK    5  A    between atoms: C_10  and  C_13
REMARK    6  A    between atoms: C_13  and  O_14
REMARK                            x       y       z     vdW  Elec       q    Type
REMARK                         _______ _______ _______ _____ _____    ______ ____
ROOT
ATOM      1  C   UNL     1       6.232  -4.911  25.481  0.00  0.00    +0.276 C 
ATOM      2  C   UNL     1       5.477  -6.185  25.561  0.00  0.00    +0.186 C 
ATOM      3  C   UNL     1       4.948  -6.510  24.390  0.00  0.00    +0.244 C 
ATOM      4  C   UNL     1       5.330  -5.449  23.448  0.00  0.00    +0.378 C 
ATOM      5  O   UNL     1       4.994  -5.419  22.278  0.00  0.00    -0.241 OA
ATOM      6  O   UNL     1       6.084  -4.518  24.103  0.00  0.00    -0.445 OA
ENDROOT
BRANCH   2   7
ATOM      7  O   UNL     1       5.360  -6.891  26.728  0.00  0.00    -0.504 OA
ATOM      8  H   UNL     1       4.476  -7.315  26.702  0.00  0.00    +0.292 HD
ENDBRANCH   2   7
BRANCH   3   9
ATOM      9  O   UNL     1       4.175  -7.597  24.100  0.00  0.00    -0.499 OA
ATOM     10  H   UNL     1       4.717  -8.374  24.348  0.00  0.00    +0.293 HD
ENDBRANCH   3   9
BRANCH   1  11
ATOM     11  C   UNL     1       7.726  -4.950  25.880  0.00  0.00    +0.188 C 
BRANCH  11  12
ATOM     12  O   UNL     1       7.992  -5.938  26.890  0.00  0.00    -0.385 OA
ATOM     13  H   UNL     1       8.356  -5.492  27.676  0.00  0.00    +0.210 HD
ENDBRANCH  11  12
BRANCH  11  14
ATOM     14  C   UNL     1       8.701  -5.196  24.720  0.00  0.00    +0.191 C 
BRANCH  14  15
ATOM     15  O   UNL     1       9.844  -5.932  25.148  0.00  0.00    -0.392 OA
ATOM     16  H   UNL     1       9.683  -6.854  24.865  0.00  0.00    +0.210 HD
ENDBRANCH  14  15
ENDBRANCH  11  14
ENDBRANCH   1  11
TORSDOF 6
ENDMDL
MODEL 2
REMARK VINA RESULT:      -4.8      6.579      8.196
REMARK  Name = 
REMARK  6 active torsions:
REMARK  status: ('A' for Active; 'I' for Inactive)
REMARK    1  A    between atoms: C_2  and  C_10
REMARK    2  A    between atoms: C_6  and  O_7
REMARK    3  A    between atoms: C_8  and  O_9
REMARK    4  A    between atoms: C_10  and  O_12
REMARK    5  A    between atoms: C_10  and  C_13
REMARK    6  A    between atoms: C_13  and  O_14
REMARK                            x       y       z     vdW  Elec       q    Type
REMARK                         _______ _______ _______ _____ _____    ______ ____
ROOT
ATOM      1  C   UNL     1      10.386   1.394  23.717  0.00  0.00    +0.276 C 
ATOM      2  C   UNL     1       9.993   1.099  22.317  0.00  0.00    +0.186 C 
ATOM      3  C   UNL     1       9.860  -0.205  22.116  0.00  0.00    +0.244 C 
ATOM      4  C   UNL     1      10.163  -0.861  23.395  0.00  0.00    +0.378 C 
ATOM      5  O   UNL     1      10.157  -2.067  23.566  0.00  0.00    -0.241 OA
ATOM      6  O   UNL     1      10.469   0.091  24.325  0.00  0.00    -0.445 OA
ENDROOT
BRANCH   2   7
ATOM      7  O   UNL     1       9.817   2.085  21.385  0.00  0.00    -0.504 OA
ATOM      8  H   UNL     1      10.124   1.712  20.532  0.00  0.00    +0.292 HD
ENDBRANCH   2   7
BRANCH   3   9
ATOM      9  O   UNL     1       9.535  -0.837  20.951  0.00  0.00    -0.499 OA
ATOM     10  H   UNL     1      10.183  -1.565  20.861  0.00  0.00    +0.293 HD
ENDBRANCH   3   9
BRANCH   1  11
ATOM     11  C   UNL     1       9.450   2.319  24.531  0.00  0.00    +0.188 C 
BRANCH  11  12
ATOM     12  O   UNL     1       9.123   3.524  23.818  0.00  0.00    -0.385 OA
ATOM     13  H   UNL     1       9.942   4.032  23.672  0.00  0.00    +0.210 HD
ENDBRANCH  11  12
BRANCH  11  14
ATOM     14  C   UNL     1       8.132   1.673  24.983  0.00  0.00    +0.191 C 
BRANCH  14  15
ATOM     15  O   UNL     1       8.317   0.875  26.149  0.00  0.00    -0.392 OA
ATOM     16  H   UNL     1       7.637   1.177  26.783  0.00  0.00    +0.210 HD
ENDBRANCH  14  15
ENDBRANCH  11  14
ENDBRANCH   1  11
TORSDOF 6
ENDMDL
MODEL 3
REMARK VINA RESULT:      -4.7      3.011      3.788
REMARK  Name = 
REMARK  6 active torsions:
REMARK  status: ('A' for Active; 'I' for Inactive)
REMARK    1  A    between atoms: C_2  and  C_10
REMARK    2  A    between atoms: C_6  and  O_7
REMARK    3  A    between atoms: C_8  and  O_9
REMARK    4  A    between atoms: C_10  and  O_12
REMARK    5  A    between atoms: C_10  and  C_13
REMARK    6  A    between atoms: C_13  and  O_14
REMARK                            x       y       z     vdW  Elec       q    Type
REMARK                         _______ _______ _______ _____ _____    ______ ____
ROOT
ATOM      1  C   UNL     1       7.712  -3.163  23.602  0.00  0.00    +0.276 C 
ATOM      2  C   UNL     1       7.905  -4.616  23.371  0.00  0.00    +0.186 C 
ATOM      3  C   UNL     1       7.144  -5.053  22.377  0.00  0.00    +0.244 C 
ATOM      4  C   UNL     1       6.388  -3.893  21.884  0.00  0.00    +0.378 C 
ATOM      5  O   UNL     1       5.573  -3.940  20.981  0.00  0.00    -0.241 OA
ATOM      6  O   UNL     1       6.733  -2.792  22.613  0.00  0.00    -0.445 OA
ENDROOT
BRANCH   2   7
ATOM      7  O   UNL     1       8.763  -5.367  24.127  0.00  0.00    -0.504 OA
ATOM      8  H   UNL     1       9.623  -5.354  23.656  0.00  0.00    +0.292 HD
ENDBRANCH   2   7
BRANCH   3   9
ATOM      9  O   UNL     1       7.045  -6.330  21.907  0.00  0.00    -0.499 OA
ATOM     10  H   UNL     1       7.305  -6.280  20.964  0.00  0.00    +0.293 HD
ENDBRANCH   3   9
BRANCH   1  11
ATOM     11  C   UNL     1       8.963  -2.260  23.499  0.00  0.00    +0.188 C 
BRANCH  11  12
ATOM     12  O   UNL     1      10.174  -2.973  23.807  0.00  0.00    -0.385 OA
ATOM     13  H   UNL     1      10.495  -2.682  24.679  0.00  0.00    +0.210 HD
ENDBRANCH  11  12
BRANCH  11  14
ATOM     14  C   UNL     1       9.159  -1.576  22.139  0.00  0.00    +0.191 C 
BRANCH  14  15
ATOM     15  O   UNL     1      10.520  -1.634  21.719  0.00  0.00    -0.392 OA
ATOM     16  H   UNL     1      10.867  -2.477  22.073  0.00  0.00    +0.210 HD
ENDBRANCH  14  15
ENDBRANCH  11  14
ENDBRANCH   1  11
TORSDOF 6
ENDMDL
MODEL 4
REMARK VINA RESULT:      -4.7      4.562      5.674
REMARK  Name = 
REMARK  6 active torsions:
REMARK  status: ('A' for Active; 'I' for Inactive)
REMARK    1  A    between atoms: C_2  and  C_10
REMARK    2  A    between atoms: C_6  and  O_7
REMARK    3  A    between atoms: C_8  and  O_9
REMARK    4  A    between atoms: C_10  and  O_12
REMARK    5  A    between atoms: C_10  and  C_13
REMARK    6  A    between atoms: C_13  and  O_14
REMARK                            x       y       z     vdW  Elec       q    Type
REMARK                         _______ _______ _______ _____ _____    ______ ____
ROOT
ATOM      1  C   UNL     1       8.747  -1.187  23.269  0.00  0.00    +0.276 C 
ATOM      2  C   UNL     1       8.938  -2.643  23.485  0.00  0.00    +0.186 C 
ATOM      3  C   UNL     1       7.857  -3.330  23.146  0.00  0.00    +0.244 C 
ATOM      4  C   UNL     1       6.867  -2.350  22.675  0.00  0.00    +0.378 C 
ATOM      5  O   UNL     1       5.744  -2.637  22.302  0.00  0.00    -0.241 OA
ATOM      6  O   UNL     1       7.405  -1.098  22.754  0.00  0.00    -0.445 OA
ENDROOT
BRANCH   2   7
ATOM      7  O   UNL     1      10.102  -3.158  23.990  0.00  0.00    -0.504 OA
ATOM      8  H   UNL     1       9.873  -3.548  24.859  0.00  0.00    +0.292 HD
ENDBRANCH   2   7
BRANCH   3   9
ATOM      9  O   UNL     1       7.668  -4.679  23.233  0.00  0.00    -0.499 OA
ATOM     10  H   UNL     1       6.697  -4.803  23.256  0.00  0.00    +0.293 HD
ENDBRANCH   3   9
BRANCH   1  11
ATOM     11  C   UNL     1       9.744  -0.478  22.323  0.00  0.00    +0.188 C 
BRANCH  11  12
ATOM     12  O   UNL     1      10.432  -1.405  21.465  0.00  0.00    -0.385 OA
ATOM     13  H   UNL     1      10.871  -2.076  22.019  0.00  0.00    +0.210 HD
ENDBRANCH  11  12
BRANCH  11  14
ATOM     14  C   UNL     1       9.131   0.613  21.434  0.00  0.00    +0.191 C 
BRANCH  14  15
ATOM     15  O   UNL     1       9.884   1.821  21.500  0.00  0.00    -0.392 OA
ATOM     16  H   UNL     1       9.257   2.504  21.812  0.00  0.00    +0.210 HD
ENDBRANCH  14  15
ENDBRANCH  11  14
ENDBRANCH   1  11
TORSDOF 6
ENDMDL
MODEL 5
REMARK VINA RESULT:      -4.7      5.543      7.012
REMARK  Name = 
REMARK  6 active torsions:
REMARK  status: ('A' for Active; 'I' for Inactive)
REMARK    1  A    between atoms: C_2  and  C_10
REMARK    2  A    between atoms: C_6  and  O_7
REMARK    3  A    between atoms: C_8  and  O_9
REMARK    4  A    between atoms: C_10  and  O_12
REMARK    5  A    between atoms: C_10  and  C_13
REMARK    6  A    between atoms: C_13  and  O_14
REMARK                            x       y       z     vdW  Elec       q    Type
REMARK                         _______ _______ _______ _____ _____    ______ ____
ROOT
ATOM      1  C   UNL     1       9.460  -0.239  22.002  0.00  0.00    +0.276 C 
ATOM      2  C   UNL     1       8.223  -0.526  22.769  0.00  0.00    +0.186 C 
ATOM      3  C   UNL     1       8.371  -1.588  23.548  0.00  0.00    +0.244 C 
ATOM      4  C   UNL     1       9.741  -2.076  23.338  0.00  0.00    +0.378 C 
ATOM      5  O   UNL     1      10.211  -3.057  23.886  0.00  0.00    -0.241 OA
ATOM      6  O   UNL     1      10.368  -1.273  22.429  0.00  0.00    -0.445 OA
ENDROOT
BRANCH   2   7
ATOM      7  O   UNL     1       7.092   0.234  22.640  0.00  0.00    -0.504 OA
ATOM      8  H   UNL     1       7.356   1.153  22.853  0.00  0.00    +0.292 HD
ENDBRANCH   2   7
BRANCH   3   9
ATOM      9  O   UNL     1       7.439  -2.152  24.371  0.00  0.00    -0.499 OA
ATOM     10  H   UNL     1       6.744  -2.499  23.775  0.00  0.00    +0.293 HD
ENDBRANCH   3   9
BRANCH   1  11
ATOM     11  C   UNL     1      10.097   1.158  22.188  0.00  0.00    +0.188 C 
BRANCH  11  12
ATOM     12  O   UNL     1       9.392   2.177  21.458  0.00  0.00    -0.385 OA
ATOM     13  H   UNL     1       8.680   2.530  22.022  0.00  0.00    +0.210 HD
ENDBRANCH  11  12
BRANCH  11  14
ATOM     14  C   UNL     1      10.216   1.628  23.645  0.00  0.00    +0.191 C 
BRANCH  14  15
ATOM     15  O   UNL     1      11.203   0.882  24.352  0.00  0.00    -0.392 OA
ATOM     16  H   UNL     1      12.061   1.162  23.977  0.00  0.00    +0.210 HD
ENDBRANCH  14  15
ENDBRANCH  11  14
ENDBRANCH   1  11
TORSDOF 6
ENDMDL
MODEL 6
REMARK VINA RESULT:      -4.7      2.033      4.602
REMARK  Name = 
REMARK  6 active torsions:
REMARK  status: ('A' for Active; 'I' for Inactive)
REMARK    1  A    between atoms: C_2  and  C_10
REMARK    2  A    between atoms: C_6  and  O_7
REMARK    3  A    between atoms: C_8  and  O_9
REMARK    4  A    between atoms: C_10  and  O_12
REMARK    5  A    between atoms: C_10  and  C_13
REMARK    6  A    between atoms: C_13  and  O_14
REMARK                            x       y       z     vdW  Elec       q    Type
REMARK                         _______ _______ _______ _____ _____    ______ ____
ROOT
ATOM      1  C   UNL     1       7.768  -3.345  24.432  0.00  0.00    +0.276 C 
ATOM      2  C   UNL     1       9.168  -3.812  24.586  0.00  0.00    +0.186 C 
ATOM      3  C   UNL     1       9.250  -4.824  25.438  0.00  0.00    +0.244 C 
ATOM      4  C   UNL     1       7.884  -5.090  25.908  0.00  0.00    +0.378 C 
ATOM      5  O   UNL     1       7.594  -5.949  26.722  0.00  0.00    -0.241 OA
ATOM      6  O   UNL     1       7.025  -4.215  25.308  0.00  0.00    -0.445 OA
ENDROOT
BRANCH   2   7
ATOM      7  O   UNL     1      10.209  -3.227  23.918  0.00  0.00    -0.504 OA
ATOM      8  H   UNL     1      10.916  -3.090  24.583  0.00  0.00    +0.292 HD
ENDBRANCH   2   7
BRANCH   3   9
ATOM      9  O   UNL     1      10.376  -5.484  25.837  0.00  0.00    -0.499 OA
ATOM     10  H   UNL     1      10.706  -4.989  26.616  0.00  0.00    +0.293 HD
ENDBRANCH   3   9
BRANCH   1  11
ATOM     11  C   UNL     1       7.170  -3.366  23.006  0.00  0.00    +0.188 C 
BRANCH  11  12
ATOM     12  O   UNL     1       7.823  -2.431  22.130  0.00  0.00    -0.385 OA
ATOM     13  H   UNL     1       7.187  -1.733  21.889  0.00  0.00    +0.210 HD
ENDBRANCH  11  12
BRANCH  11  14
ATOM     14  C   UNL     1       7.185  -4.738  22.316  0.00  0.00    +0.191 C 
BRANCH  14  15
ATOM     15  O   UNL     1       6.204  -5.610  22.871  0.00  0.00    -0.392 OA
ATOM     16  H   UNL     1       6.708  -6.320  23.317  0.00  0.00    +0.210 HD
ENDBRANCH  14  15
ENDBRANCH  11  14
ENDBRANCH   1  11
TORSDOF 6
ENDMDL
MODEL 7
REMARK VINA RESULT:      -4.6      2.534      4.136
REMARK  Name = 
REMARK  6 active torsions:
REMARK  status: ('A' for Active; 'I' for Inactive)
REMARK    1  A    between atoms: C_2  and  C_10
REMARK    2  A    between atoms: C_6  and  O_7
REMARK    3  A    between atoms: C_8  and  O_9
REMARK    4  A    between atoms: C_10  and  O_12
REMARK    5  A    between atoms: C_10  and  C_13
REMARK    6  A    between atoms: C_13  and  O_14
REMARK                            x       y       z     vdW  Elec       q    Type
REMARK                         _______ _______ _______ _____ _____    ______ ____
ROOT
ATOM      1  C   UNL     1       8.367  -4.606  24.092  0.00  0.00    +0.276 C 
ATOM      2  C   UNL     1       8.895  -3.228  23.931  0.00  0.00    +0.186 C 
ATOM      3  C   UNL     1       7.916  -2.336  23.886  0.00  0.00    +0.244 C 
ATOM      4  C   UNL     1       6.658  -3.085  24.016  0.00  0.00    +0.378 C 
ATOM      5  O   UNL     1       5.552  -2.576  23.994  0.00  0.00    -0.241 OA
ATOM      6  O   UNL     1       6.940  -4.415  24.136  0.00  0.00    -0.445 OA
ENDROOT
BRANCH   2   7
ATOM      7  O   UNL     1      10.235  -2.968  23.833  0.00  0.00    -0.504 OA
ATOM      8  H   UNL     1      10.644  -3.337  24.643  0.00  0.00    +0.292 HD
ENDBRANCH   2   7
BRANCH   3   9
ATOM      9  O   UNL     1       8.029  -0.986  23.724  0.00  0.00    -0.499 OA
ATOM     10  H   UNL     1       8.193  -0.629  24.621  0.00  0.00    +0.293 HD
ENDBRANCH   3   9
BRANCH   1  11
ATOM     11  C   UNL     1       8.850  -5.408  25.323  0.00  0.00    +0.188 C 
BRANCH  11  12
ATOM     12  O   UNL     1      10.281  -5.556  25.346  0.00  0.00    -0.385 OA
ATOM     13  H   UNL     1      10.687  -4.671  25.337  0.00  0.00    +0.210 HD
ENDBRANCH  11  12
BRANCH  11  14
ATOM     14  C   UNL     1       8.420  -4.834  26.680  0.00  0.00    +0.191 C 
BRANCH  14  15
ATOM     15  O   UNL     1       7.880  -5.847  27.525  0.00  0.00    -0.392 OA
ATOM     16  H   UNL     1       8.349  -6.669  27.281  0.00  0.00    +0.210 HD
ENDBRANCH  14  15
ENDBRANCH  11  14
ENDBRANCH   1  11
TORSDOF 6
ENDMDL
MODEL 8
REMARK VINA RESULT:      -4.6      3.215      4.962
REMARK  Name = 
REMARK  6 active torsions:
REMARK  status: ('A' for Active; 'I' for Inactive)
REMARK    1  A    between atoms: C_2  and  C_10
REMARK    2  A    between atoms: C_6  and  O_7
REMARK    3  A    between atoms: C_8  and  O_9
REMARK    4  A    between atoms: C_10  and  O_12
REMARK    5  A    between atoms: C_10  and  C_13
REMARK    6  A    between atoms: C_13  and  O_14
REMARK                            x       y       z     vdW  Elec       q    Type
REMARK                         _______ _______ _______ _____ _____    ______ ____
ROOT
ATOM      1  C   UNL     1       7.877  -3.278  24.221  0.00  0.00    +0.276 C 
ATOM      2  C   UNL     1       7.983  -2.904  22.789  0.00  0.00    +0.186 C 
ATOM      3  C   UNL     1       8.941  -2.009  22.591  0.00  0.00    +0.244 C 
ATOM      4  C   UNL     1       9.535  -1.732  23.906  0.00  0.00    +0.378 C 
ATOM      5  O   UNL     1      10.437  -0.936  24.097  0.00  0.00    -0.241 OA
ATOM      6  O   UNL     1       8.901  -2.486  24.852  0.00  0.00    -0.445 OA
ENDROOT
BRANCH   2   7
ATOM      7  O   UNL     1       7.160  -3.436  21.833  0.00  0.00    -0.504 OA
ATOM      8  H   UNL     1       7.180  -4.407  21.966  0.00  0.00    +0.292 HD
ENDBRANCH   2   7
BRANCH   3   9
ATOM      9  O   UNL     1       9.301  -1.424  21.412  0.00  0.00    -0.499 OA
ATOM     10  H   UNL     1       9.719  -0.574  21.661  0.00  0.00    +0.293 HD
ENDBRANCH   3   9
BRANCH   1  11
ATOM     11  C   UNL     1       8.049  -4.774  24.573  0.00  0.00    +0.188 C 
BRANCH  11  12
ATOM     12  O   UNL     1       8.314  -5.579  23.411  0.00  0.00    -0.385 OA
ATOM     13  H   UNL     1       8.453  -4.988  22.648  0.00  0.00    +0.210 HD
ENDBRANCH  11  12
BRANCH  11  14
ATOM     14  C   UNL     1       9.143  -5.076  25.607  0.00  0.00    +0.191 C 
BRANCH  14  15
ATOM     15  O   UNL     1      10.429  -5.142  24.998  0.00  0.00    -0.392 OA
ATOM     16  H   UNL     1      10.806  -4.244  25.085  0.00  0.00    +0.210 HD
ENDBRANCH  14  15
ENDBRANCH  11  14
ENDBRANCH   1  11
TORSDOF 6
ENDMDL
MODEL 9
REMARK VINA RESULT:      -4.5      6.182      7.773
REMARK  Name = 
REMARK  6 active torsions:
REMARK  status: ('A' for Active; 'I' for Inactive)
REMARK    1  A    between atoms: C_2  and  C_10
REMARK    2  A    between atoms: C_6  and  O_7
REMARK    3  A    between atoms: C_8  and  O_9
REMARK    4  A    between atoms: C_10  and  O_12
REMARK    5  A    between atoms: C_10  and  C_13
REMARK    6  A    between atoms: C_13  and  O_14
REMARK                            x       y       z     vdW  Elec       q    Type
REMARK                         _______ _______ _______ _____ _____    ______ ____
ROOT
ATOM      1  C   UNL     1      10.472   0.479  23.014  0.00  0.00    +0.276 C 
ATOM      2  C   UNL     1      10.098  -0.935  22.766  0.00  0.00    +0.186 C 
ATOM      3  C   UNL     1       9.583  -1.498  23.850  0.00  0.00    +0.244 C 
ATOM      4  C   UNL     1       9.586  -0.469  24.899  0.00  0.00    +0.378 C 
ATOM      5  O   UNL     1       9.197  -0.652  26.039  0.00  0.00    -0.241 OA
ATOM      6  O   UNL     1      10.110   0.685  24.392  0.00  0.00    -0.445 OA
ENDROOT
BRANCH   2   7
ATOM      7  O   UNL     1      10.295  -1.540  21.554  0.00  0.00    -0.504 OA
ATOM      8  H   UNL     1       9.409  -1.616  21.140  0.00  0.00    +0.292 HD
ENDBRANCH   2   7
BRANCH   3   9
ATOM      9  O   UNL     1       9.154  -2.786  23.993  0.00  0.00    -0.499 OA
ATOM     10  H   UNL     1       8.709  -2.815  24.866  0.00  0.00    +0.293 HD
ENDBRANCH   3   9
BRANCH   1  11
ATOM     11  C   UNL     1       9.817   1.550  22.111  0.00  0.00    +0.188 C 
BRANCH  11  12
ATOM     12  O   UNL     1       9.030   0.966  21.058  0.00  0.00    -0.385 OA
ATOM     13  H   UNL     1       9.198   1.458  20.234  0.00  0.00    +0.210 HD
ENDBRANCH  11  12
BRANCH  11  14
ATOM     14  C   UNL     1       8.929   2.564  22.846  0.00  0.00    +0.191 C 
BRANCH  14  15
ATOM     15  O   UNL     1       9.706   3.451  23.647  0.00  0.00    -0.392 OA
ATOM     16  H   UNL     1       9.830   4.254  23.103  0.00  0.00    +0.210 HD
ENDBRANCH  14  15
ENDBRANCH  11  14
ENDBRANCH   1  11
TORSDOF 6
ENDMDL
