MODEL 1
REMARK VINA RESULT:      -7.0      0.000      0.000
REMARK  Name = 
REMARK  16 active torsions:
REMARK  status: ('A' for Active; 'I' for Inactive)
REMARK    1  A    between atoms: C_2  and  C_3
REMARK    2  A    between atoms: C_2  and  O_7
REMARK    3  A    between atoms: C_2  and  C_19
REMARK    4  A    between atoms: C_3  and  C_4
REMARK    5  A    between atoms: C_4  and  O_5
REMARK    6  A    between atoms: O_7  and  C_8
REMARK    7  A    between atoms: C_8  and  C_10
REMARK    8  A    between atoms: C_11  and  C_12
REMARK    9  A    between atoms: C_15  and  O_16
REMARK   10  A    between atoms: C_19  and  O_21
REMARK   11  A    between atoms: C_19  and  C_33
REMARK   12  A    between atoms: O_21  and  C_22
REMARK   13  A    between atoms: C_22  and  C_24
REMARK   14  A    between atoms: C_25  and  C_26
REMARK   15  A    between atoms: C_29  and  O_30
REMARK   16  A    between atoms: C_33  and  O_34
REMARK                            x       y       z     vdW  Elec       q    Type
REMARK                         _______ _______ _______ _____ _____    ______ ____
ROOT
ATOM      1  C   UNL     1       6.194  -4.987  25.002  0.00  0.00    +0.239 C 
ENDROOT
BRANCH   1   2
ATOM      2  O   UNL     1       7.415  -4.259  25.283  0.00  0.00    -0.453 OA
BRANCH   2   3
ATOM      3  C   UNL     1       8.477  -4.516  24.484  0.00  0.00    +0.332 C 
ATOM      4  O   UNL     1       9.093  -5.568  24.435  0.00  0.00    -0.246 OA
BRANCH   3   5
ATOM      5  C   UNL     1       8.805  -3.283  23.748  0.00  0.00    +0.092 C 
ATOM      6  C   UNL     1       9.293  -2.225  24.410  0.00  0.00    +0.015 C 
BRANCH   6   7
ATOM      7  C   UNL     1       9.710  -0.978  23.757  0.00  0.00    -0.025 A 
ATOM      8  C   UNL     1       9.495  -0.848  22.379  0.00  0.00    +0.011 A 
ATOM      9  C   UNL     1       9.798   0.345  21.721  0.00  0.00    +0.046 A 
ATOM     10  C   UNL     1      10.329   1.409  22.439  0.00  0.00    +0.117 A 
ATOM     11  C   UNL     1      10.608   1.282  23.795  0.00  0.00    +0.046 A 
ATOM     12  C   UNL     1      10.308   0.085  24.452  0.00  0.00    +0.011 A 
BRANCH  10  13
ATOM     13  O   UNL     1      10.555   2.575  21.770  0.00  0.00    -0.507 OA
ATOM     14  H   UNL     1      11.500   2.626  21.553  0.00  0.00    +0.292 HD
ENDBRANCH  10  13
ENDBRANCH   6   7
ENDBRANCH   3   5
ENDBRANCH   2   3
ENDBRANCH   1   2
BRANCH   1  15
ATOM     15  C   UNL     1       5.816  -5.806  26.249  0.00  0.00    +0.169 C 
BRANCH  15  16
ATOM     16  C   UNL     1       6.638  -5.414  27.448  0.00  0.00    +0.308 C 
ATOM     17  O   UNL     1       6.203  -4.757  28.383  0.00  0.00    -0.251 OA
BRANCH  16  18
ATOM     18  O   UNL     1       7.899  -5.902  27.430  0.00  0.00    -0.481 OA
ATOM     19  H   UNL     1       8.403  -5.744  26.594  0.00  0.00    +0.295 HD
ENDBRANCH  16  18
ENDBRANCH  15  16
ENDBRANCH   1  15
BRANCH   1  20
ATOM     20  C   UNL     1       5.139  -3.955  24.539  0.00  0.00    +0.325 C 
BRANCH  20  21
ATOM     21  C   UNL     1       4.687  -4.228  23.110  0.00  0.00    +0.350 C 
ATOM     22  O   UNL     1       5.290  -3.810  22.128  0.00  0.00    -0.247 OA
BRANCH  21  23
ATOM     23  O   UNL     1       3.565  -4.974  23.006  0.00  0.00    -0.478 OA
ATOM     24  H   UNL     1       3.698  -5.731  22.396  0.00  0.00    +0.295 HD
ENDBRANCH  21  23
ENDBRANCH  20  21
BRANCH  20  25
ATOM     25  O   UNL     1       5.716  -2.614  24.559  0.00  0.00    -0.443 OA
BRANCH  25  26
ATOM     26  C   UNL     1       5.277  -1.810  25.564  0.00  0.00    +0.333 C 
ATOM     27  O   UNL     1       4.583  -2.142  26.506  0.00  0.00    -0.246 OA
BRANCH  26  28
ATOM     28  C   UNL     1       5.796  -0.447  25.327  0.00  0.00    +0.092 C 
ATOM     29  C   UNL     1       6.200  -0.099  24.096  0.00  0.00    +0.015 C 
BRANCH  29  30
ATOM     30  C   UNL     1       6.667   1.248  23.734  0.00  0.00    -0.025 A 
ATOM     31  C   UNL     1       6.598   1.645  22.391  0.00  0.00    +0.011 A 
ATOM     32  C   UNL     1       7.013   2.921  22.003  0.00  0.00    +0.046 A 
ATOM     33  C   UNL     1       7.509   3.802  22.955  0.00  0.00    +0.117 A 
ATOM     34  C   UNL     1       7.619   3.421  24.286  0.00  0.00    +0.046 A 
ATOM     35  C   UNL     1       7.205   2.141  24.673  0.00  0.00    +0.011 A 
BRANCH  33  36
ATOM     36  O   UNL     1       7.882   5.044  22.536  0.00  0.00    -0.507 OA
ATOM     37  H   UNL     1       8.739   5.266  22.936  0.00  0.00    +0.292 HD
ENDBRANCH  33  36
ENDBRANCH  29  30
ENDBRANCH  26  28
ENDBRANCH  25  26
ENDBRANCH  20  25
ENDBRANCH   1  20
TORSDOF 16
ENDMDL
MODEL 2
REMARK VINA RESULT:      -6.9      1.006      4.250
REMARK  Name = 
REMARK  16 active torsions:
REMARK  status: ('A' for Active; 'I' for Inactive)
REMARK    1  A    between atoms: C_2  and  C_3
REMARK    2  A    between atoms: C_2  and  O_7
REMARK    3  A    between atoms: C_2  and  C_19
REMARK    4  A    between atoms: C_3  and  C_4
REMARK    5  A    between atoms: C_4  and  O_5
REMARK    6  A    between atoms: O_7  and  C_8
REMARK    7  A    between atoms: C_8  and  C_10
REMARK    8  A    between atoms: C_11  and  C_12
REMARK    9  A    between atoms: C_15  and  O_16
REMARK   10  A    between atoms: C_19  and  O_21
REMARK   11  A    between atoms: C_19  and  C_33
REMARK   12  A    between atoms: O_21  and  C_22
REMARK   13  A    between atoms: C_22  and  C_24
REMARK   14  A    between atoms: C_25  and  C_26
REMARK   15  A    between atoms: C_29  and  O_30
REMARK   16  A    between atoms: C_33  and  O_34
REMARK                            x       y       z     vdW  Elec       q    Type
REMARK                         _______ _______ _______ _____ _____    ______ ____
ROOT
ATOM      1  C   UNL     1       6.070  -4.447  24.830  0.00  0.00    +0.239 C 
ENDROOT
BRANCH   1   2
ATOM      2  O   UNL     1       6.451  -3.137  24.342  0.00  0.00    -0.453 OA
BRANCH   2   3
ATOM      3  C   UNL     1       5.597  -2.118  24.599  0.00  0.00    +0.332 C 
ATOM      4  O   UNL     1       4.560  -2.201  25.235  0.00  0.00    -0.246 OA
BRANCH   3   5
ATOM      5  C   UNL     1       6.101  -0.916  23.911  0.00  0.00    +0.092 C 
ATOM      6  C   UNL     1       6.088   0.265  24.543  0.00  0.00    +0.015 C 
BRANCH   6   7
ATOM      7  C   UNL     1       6.627   1.503  23.967  0.00  0.00    -0.025 A 
ATOM      8  C   UNL     1       6.531   1.685  22.581  0.00  0.00    +0.011 A 
ATOM      9  C   UNL     1       6.955   2.876  21.989  0.00  0.00    +0.046 A 
ATOM     10  C   UNL     1       7.487   3.885  22.781  0.00  0.00    +0.117 A 
ATOM     11  C   UNL     1       7.649   3.703  24.150  0.00  0.00    +0.046 A 
ATOM     12  C   UNL     1       7.228   2.507  24.741  0.00  0.00    +0.011 A 
BRANCH  10  13
ATOM     13  O   UNL     1       7.833   5.054  22.171  0.00  0.00    -0.507 OA
ATOM     14  H   UNL     1       8.800   5.140  22.198  0.00  0.00    +0.292 HD
ENDBRANCH  10  13
ENDBRANCH   6   7
ENDBRANCH   3   5
ENDBRANCH   2   3
ENDBRANCH   1   2
BRANCH   1  15
ATOM     15  C   UNL     1       5.741  -5.342  23.621  0.00  0.00    +0.169 C 
BRANCH  15  16
ATOM     16  C   UNL     1       6.791  -5.242  22.547  0.00  0.00    +0.308 C 
ATOM     17  O   UNL     1       7.599  -6.127  22.305  0.00  0.00    -0.251 OA
BRANCH  16  18
ATOM     18  O   UNL     1       6.731  -4.099  21.828  0.00  0.00    -0.481 OA
ATOM     19  H   UNL     1       5.842  -3.878  21.456  0.00  0.00    +0.295 HD
ENDBRANCH  16  18
ENDBRANCH  15  16
ENDBRANCH   1  15
BRANCH   1  20
ATOM     20  C   UNL     1       7.217  -4.950  25.738  0.00  0.00    +0.325 C 
BRANCH  20  21
ATOM     21  C   UNL     1       6.743  -5.147  27.172  0.00  0.00    +0.350 C 
ATOM     22  O   UNL     1       5.763  -4.573  27.635  0.00  0.00    -0.247 OA
BRANCH  21  23
ATOM     23  O   UNL     1       7.486  -6.009  27.900  0.00  0.00    -0.478 OA
ATOM     24  H   UNL     1       7.544  -6.886  27.462  0.00  0.00    +0.295 HD
ENDBRANCH  21  23
ENDBRANCH  20  21
BRANCH  20  25
ATOM     25  O   UNL     1       8.292  -3.963  25.772  0.00  0.00    -0.443 OA
BRANCH  25  26
ATOM     26  C   UNL     1       9.374  -4.259  25.002  0.00  0.00    +0.333 C 
ATOM     27  O   UNL     1       9.985  -5.311  24.985  0.00  0.00    -0.246 OA
BRANCH  26  28
ATOM     28  C   UNL     1       9.686  -3.080  24.169  0.00  0.00    +0.092 C 
ATOM     29  C   UNL     1       9.488  -1.849  24.666  0.00  0.00    +0.015 C 
BRANCH  29  30
ATOM     30  C   UNL     1       9.829  -0.610  23.951  0.00  0.00    -0.025 A 
ATOM     31  C   UNL     1       9.608  -0.550  22.568  0.00  0.00    +0.011 A 
ATOM     32  C   UNL     1       9.901   0.612  21.849  0.00  0.00    +0.046 A 
ATOM     33  C   UNL     1      10.426   1.715  22.510  0.00  0.00    +0.117 A 
ATOM     34  C   UNL     1      10.685   1.669  23.874  0.00  0.00    +0.046 A 
ATOM     35  C   UNL     1      10.394   0.503  24.592  0.00  0.00    +0.011 A 
BRANCH  33  36
ATOM     36  O   UNL     1      10.676   2.835  21.774  0.00  0.00    -0.507 OA
ATOM     37  H   UNL     1      10.434   2.664  20.850  0.00  0.00    +0.292 HD
ENDBRANCH  33  36
ENDBRANCH  29  30
ENDBRANCH  26  28
ENDBRANCH  25  26
ENDBRANCH  20  25
ENDBRANCH   1  20
TORSDOF 16
ENDMDL
MODEL 3
REMARK VINA RESULT:      -6.7      1.726      2.522
REMARK  Name = 
REMARK  16 active torsions:
REMARK  status: ('A' for Active; 'I' for Inactive)
REMARK    1  A    between atoms: C_2  and  C_3
REMARK    2  A    between atoms: C_2  and  O_7
REMARK    3  A    between atoms: C_2  and  C_19
REMARK    4  A    between atoms: C_3  and  C_4
REMARK    5  A    between atoms: C_4  and  O_5
REMARK    6  A    between atoms: O_7  and  C_8
REMARK    7  A    between atoms: C_8  and  C_10
REMARK    8  A    between atoms: C_11  and  C_12
REMARK    9  A    between atoms: C_15  and  O_16
REMARK   10  A    between atoms: C_19  and  O_21
REMARK   11  A    between atoms: C_19  and  C_33
REMARK   12  A    between atoms: O_21  and  C_22
REMARK   13  A    between atoms: C_22  and  C_24
REMARK   14  A    between atoms: C_25  and  C_26
REMARK   15  A    between atoms: C_29  and  O_30
REMARK   16  A    between atoms: C_33  and  O_34
REMARK                            x       y       z     vdW  Elec       q    Type
REMARK                         _______ _______ _______ _____ _____    ______ ____
ROOT
ATOM      1  C   UNL     1       7.460  -5.317  24.455  0.00  0.00    +0.239 C 
ENDROOT
BRANCH   1   2
ATOM      2  O   UNL     1       8.728  -4.810  23.972  0.00  0.00    -0.453 OA
BRANCH   2   3
ATOM      3  C   UNL     1       9.566  -4.282  24.895  0.00  0.00    +0.332 C 
ATOM      4  O   UNL     1      10.177  -4.909  25.744  0.00  0.00    -0.246 OA
BRANCH   3   5
ATOM      5  C   UNL     1       9.547  -2.817  24.744  0.00  0.00    +0.092 C 
ATOM      6  C   UNL     1      10.150  -2.251  23.689  0.00  0.00    +0.015 C 
BRANCH   6   7
ATOM      7  C   UNL     1      10.129  -0.808  23.417  0.00  0.00    -0.025 A 
ATOM      8  C   UNL     1      10.476   0.067  24.455  0.00  0.00    +0.011 A 
ATOM      9  C   UNL     1      10.551   1.442  24.230  0.00  0.00    +0.046 A 
ATOM     10  C   UNL     1      10.266   1.949  22.969  0.00  0.00    +0.117 A 
ATOM     11  C   UNL     1       9.860   1.106  21.940  0.00  0.00    +0.046 A 
ATOM     12  C   UNL     1       9.781  -0.272  22.168  0.00  0.00    +0.011 A 
BRANCH  10  13
ATOM     13  O   UNL     1      10.409   3.290  22.777  0.00  0.00    -0.507 OA
ATOM     14  H   UNL     1       9.559   3.649  22.472  0.00  0.00    +0.292 HD
ENDBRANCH  10  13
ENDBRANCH   6   7
ENDBRANCH   3   5
ENDBRANCH   2   3
ENDBRANCH   1   2
BRANCH   1  15
ATOM     15  C   UNL     1       7.219  -4.761  25.871  0.00  0.00    +0.169 C 
BRANCH  15  16
ATOM     16  C   UNL     1       6.725  -5.824  26.815  0.00  0.00    +0.308 C 
ATOM     17  O   UNL     1       5.713  -6.483  26.623  0.00  0.00    -0.251 OA
BRANCH  16  18
ATOM     18  O   UNL     1       7.532  -6.029  27.880  0.00  0.00    -0.481 OA
ATOM     19  H   UNL     1       8.429  -6.388  27.669  0.00  0.00    +0.295 HD
ENDBRANCH  16  18
ENDBRANCH  15  16
ENDBRANCH   1  15
BRANCH   1  20
ATOM     20  C   UNL     1       6.386  -4.948  23.404  0.00  0.00    +0.325 C 
BRANCH  20  21
ATOM     21  C   UNL     1       5.835  -6.189  22.717  0.00  0.00    +0.350 C 
ATOM     22  O   UNL     1       6.140  -6.510  21.573  0.00  0.00    -0.247 OA
BRANCH  21  23
ATOM     23  O   UNL     1       4.980  -6.920  23.468  0.00  0.00    -0.478 OA
ATOM     24  H   UNL     1       4.101  -6.991  23.038  0.00  0.00    +0.295 HD
ENDBRANCH  21  23
ENDBRANCH  20  21
BRANCH  20  25
ATOM     25  O   UNL     1       6.976  -4.107  22.367  0.00  0.00    -0.443 OA
BRANCH  25  26
ATOM     26  C   UNL     1       6.183  -3.098  21.919  0.00  0.00    +0.333 C 
ATOM     27  O   UNL     1       5.268  -3.195  21.122  0.00  0.00    -0.246 OA
BRANCH  26  28
ATOM     28  C   UNL     1       6.612  -1.845  22.574  0.00  0.00    +0.092 C 
ATOM     29  C   UNL     1       6.177  -1.564  23.812  0.00  0.00    +0.015 C 
BRANCH  29  30
ATOM     30  C   UNL     1       6.595  -0.384  24.582  0.00  0.00    -0.025 A 
ATOM     31  C   UNL     1       6.572   0.870  23.955  0.00  0.00    +0.011 A 
ATOM     32  C   UNL     1       6.944   2.022  24.651  0.00  0.00    +0.046 A 
ATOM     33  C   UNL     1       7.351   1.924  25.975  0.00  0.00    +0.117 A 
ATOM     34  C   UNL     1       7.415   0.689  26.609  0.00  0.00    +0.046 A 
ATOM     35  C   UNL     1       7.045  -0.465  25.909  0.00  0.00    +0.011 A 
BRANCH  33  36
ATOM     36  O   UNL     1       7.685   3.076  26.624  0.00  0.00    -0.507 OA
ATOM     37  H   UNL     1       7.300   3.828  26.145  0.00  0.00    +0.292 HD
ENDBRANCH  33  36
ENDBRANCH  29  30
ENDBRANCH  26  28
ENDBRANCH  25  26
ENDBRANCH  20  25
ENDBRANCH   1  20
TORSDOF 16
ENDMDL
MODEL 4
REMARK VINA RESULT:      -6.7      1.324      3.845
REMARK  Name = 
REMARK  16 active torsions:
REMARK  status: ('A' for Active; 'I' for Inactive)
REMARK    1  A    between atoms: C_2  and  C_3
REMARK    2  A    between atoms: C_2  and  O_7
REMARK    3  A    between atoms: C_2  and  C_19
REMARK    4  A    between atoms: C_3  and  C_4
REMARK    5  A    between atoms: C_4  and  O_5
REMARK    6  A    between atoms: O_7  and  C_8
REMARK    7  A    between atoms: C_8  and  C_10
REMARK    8  A    between atoms: C_11  and  C_12
REMARK    9  A    between atoms: C_15  and  O_16
REMARK   10  A    between atoms: C_19  and  O_21
REMARK   11  A    between atoms: C_19  and  C_33
REMARK   12  A    between atoms: O_21  and  C_22
REMARK   13  A    between atoms: C_22  and  C_24
REMARK   14  A    between atoms: C_25  and  C_26
REMARK   15  A    between atoms: C_29  and  O_30
REMARK   16  A    between atoms: C_33  and  O_34
REMARK                            x       y       z     vdW  Elec       q    Type
REMARK                         _______ _______ _______ _____ _____    ______ ____
ROOT
ATOM      1  C   UNL     1       5.610  -4.249  24.430  0.00  0.00    +0.239 C 
ENDROOT
BRANCH   1   2
ATOM      2  O   UNL     1       5.169  -2.877  24.281  0.00  0.00    -0.453 OA
BRANCH   2   3
ATOM      3  C   UNL     1       5.804  -1.947  25.034  0.00  0.00    +0.332 C 
ATOM      4  O   UNL     1       6.087  -2.060  26.215  0.00  0.00    -0.246 OA
BRANCH   3   5
ATOM      5  C   UNL     1       6.018  -0.753  24.199  0.00  0.00    +0.092 C 
ATOM      6  C   UNL     1       6.426   0.390  24.768  0.00  0.00    +0.015 C 
BRANCH   6   7
ATOM      7  C   UNL     1       6.730   1.612  24.014  0.00  0.00    -0.025 A 
ATOM      8  C   UNL     1       7.289   2.695  24.704  0.00  0.00    +0.011 A 
ATOM      9  C   UNL     1       7.671   3.852  24.023  0.00  0.00    +0.046 A 
ATOM     10  C   UNL     1       7.484   3.934  22.650  0.00  0.00    +0.117 A 
ATOM     11  C   UNL     1       6.874   2.896  21.953  0.00  0.00    +0.046 A 
ATOM     12  C   UNL     1       6.487   1.739  22.637  0.00  0.00    +0.011 A 
BRANCH  10  13
ATOM     13  O   UNL     1       7.925   5.057  22.015  0.00  0.00    -0.507 OA
ATOM     14  H   UNL     1       8.489   4.787  21.271  0.00  0.00    +0.292 HD
ENDBRANCH  10  13
ENDBRANCH   6   7
ENDBRANCH   3   5
ENDBRANCH   2   3
ENDBRANCH   1   2
BRANCH   1  15
ATOM     15  C   UNL     1       4.412  -5.179  24.159  0.00  0.00    +0.169 C 
BRANCH  15  16
ATOM     16  C   UNL     1       4.594  -6.529  24.799  0.00  0.00    +0.308 C 
ATOM     17  O   UNL     1       4.734  -6.696  26.002  0.00  0.00    -0.251 OA
BRANCH  16  18
ATOM     18  O   UNL     1       4.537  -7.560  23.926  0.00  0.00    -0.481 OA
ATOM     19  H   UNL     1       3.837  -7.489  23.232  0.00  0.00    +0.295 HD
ENDBRANCH  16  18
ENDBRANCH  15  16
ENDBRANCH   1  15
BRANCH   1  20
ATOM     20  C   UNL     1       6.828  -4.445  23.496  0.00  0.00    +0.325 C 
BRANCH  20  21
ATOM     21  C   UNL     1       6.429  -5.150  22.206  0.00  0.00    +0.350 C 
ATOM     22  O   UNL     1       6.709  -6.320  21.971  0.00  0.00    -0.247 OA
BRANCH  21  23
ATOM     23  O   UNL     1       5.735  -4.384  21.335  0.00  0.00    -0.478 OA
ATOM     24  H   UNL     1       6.209  -4.299  20.481  0.00  0.00    +0.295 HD
ENDBRANCH  21  23
ENDBRANCH  20  21
BRANCH  20  25
ATOM     25  O   UNL     1       7.826  -5.283  24.153  0.00  0.00    -0.443 OA
BRANCH  25  26
ATOM     26  C   UNL     1       8.878  -4.612  24.694  0.00  0.00    +0.333 C 
ATOM     27  O   UNL     1       9.541  -4.956  25.655  0.00  0.00    -0.246 OA
BRANCH  26  28
ATOM     28  C   UNL     1       9.096  -3.381  23.907  0.00  0.00    +0.092 C 
ATOM     29  C   UNL     1       9.407  -2.238  24.539  0.00  0.00    +0.015 C 
BRANCH  29  30
ATOM     30  C   UNL     1       9.712  -0.976  23.852  0.00  0.00    -0.025 A 
ATOM     31  C   UNL     1       9.477  -0.888  22.472  0.00  0.00    +0.011 A 
ATOM     32  C   UNL     1       9.734   0.297  21.779  0.00  0.00    +0.046 A 
ATOM     33  C   UNL     1      10.239   1.396  22.460  0.00  0.00    +0.117 A 
ATOM     34  C   UNL     1      10.511   1.325  23.820  0.00  0.00    +0.046 A 
ATOM     35  C   UNL     1      10.255   0.136  24.513  0.00  0.00    +0.011 A 
BRANCH  33  36
ATOM     36  O   UNL     1      10.455   2.539  21.749  0.00  0.00    -0.507 OA
ATOM     37  H   UNL     1       9.977   2.479  20.906  0.00  0.00    +0.292 HD
ENDBRANCH  33  36
ENDBRANCH  29  30
ENDBRANCH  26  28
ENDBRANCH  25  26
ENDBRANCH  20  25
ENDBRANCH   1  20
TORSDOF 16
ENDMDL
MODEL 5
REMARK VINA RESULT:      -6.6      1.156      2.764
REMARK  Name = 
REMARK  16 active torsions:
REMARK  status: ('A' for Active; 'I' for Inactive)
REMARK    1  A    between atoms: C_2  and  C_3
REMARK    2  A    between atoms: C_2  and  O_7
REMARK    3  A    between atoms: C_2  and  C_19
REMARK    4  A    between atoms: C_3  and  C_4
REMARK    5  A    between atoms: C_4  and  O_5
REMARK    6  A    between atoms: O_7  and  C_8
REMARK    7  A    between atoms: C_8  and  C_10
REMARK    8  A    between atoms: C_11  and  C_12
REMARK    9  A    between atoms: C_15  and  O_16
REMARK   10  A    between atoms: C_19  and  O_21
REMARK   11  A    between atoms: C_19  and  C_33
REMARK   12  A    between atoms: O_21  and  C_22
REMARK   13  A    between atoms: C_22  and  C_24
REMARK   14  A    between atoms: C_25  and  C_26
REMARK   15  A    between atoms: C_29  and  O_30
REMARK   16  A    between atoms: C_33  and  O_34
REMARK                            x       y       z     vdW  Elec       q    Type
REMARK                         _______ _______ _______ _____ _____    ______ ____
ROOT
ATOM      1  C   UNL     1       7.355  -4.758  23.648  0.00  0.00    +0.239 C 
ENDROOT
BRANCH   1   2
ATOM      2  O   UNL     1       8.628  -5.246  24.137  0.00  0.00    -0.453 OA
BRANCH   2   3
ATOM      3  C   UNL     1       9.376  -4.380  24.861  0.00  0.00    +0.332 C 
ATOM      4  O   UNL     1       9.789  -4.569  25.993  0.00  0.00    -0.246 OA
BRANCH   3   5
ATOM      5  C   UNL     1       9.534  -3.145  24.074  0.00  0.00    +0.092 C 
ATOM      6  C   UNL     1       9.561  -1.959  24.698  0.00  0.00    +0.015 C 
BRANCH   6   7
ATOM      7  C   UNL     1       9.779  -0.681  24.009  0.00  0.00    -0.025 A 
ATOM      8  C   UNL     1      10.155   0.429  24.777  0.00  0.00    +0.011 A 
ATOM      9  C   UNL     1      10.453   1.648  24.166  0.00  0.00    +0.046 A 
ATOM     10  C   UNL     1      10.365   1.764  22.785  0.00  0.00    +0.117 A 
ATOM     11  C   UNL     1       9.935   0.693  22.008  0.00  0.00    +0.046 A 
ATOM     12  C   UNL     1       9.632  -0.527  22.622  0.00  0.00    +0.011 A 
BRANCH  10  13
ATOM     13  O   UNL     1      10.722   2.953  22.224  0.00  0.00    -0.507 OA
ATOM     14  H   UNL     1      11.411   3.358  22.775  0.00  0.00    +0.292 HD
ENDBRANCH  10  13
ENDBRANCH   6   7
ENDBRANCH   3   5
ENDBRANCH   2   3
ENDBRANCH   1   2
BRANCH   1  15
ATOM     15  C   UNL     1       6.704  -5.862  22.794  0.00  0.00    +0.169 C 
BRANCH  15  16
ATOM     16  C   UNL     1       5.888  -5.290  21.666  0.00  0.00    +0.308 C 
ATOM     17  O   UNL     1       6.044  -5.595  20.493  0.00  0.00    -0.251 OA
BRANCH  16  18
ATOM     18  O   UNL     1       4.917  -4.440  22.070  0.00  0.00    -0.481 OA
ATOM     19  H   UNL     1       4.270  -4.812  22.718  0.00  0.00    +0.295 HD
ENDBRANCH  16  18
ENDBRANCH  15  16
ENDBRANCH   1  15
BRANCH   1  20
ATOM     20  C   UNL     1       6.535  -4.299  24.878  0.00  0.00    +0.325 C 
BRANCH  20  21
ATOM     21  C   UNL     1       5.625  -5.411  25.383  0.00  0.00    +0.350 C 
ATOM     22  O   UNL     1       6.026  -6.336  26.081  0.00  0.00    -0.247 OA
BRANCH  21  23
ATOM     23  O   UNL     1       4.333  -5.299  25.005  0.00  0.00    -0.478 OA
ATOM     24  H   UNL     1       4.089  -4.362  24.845  0.00  0.00    +0.295 HD
ENDBRANCH  21  23
ENDBRANCH  20  21
BRANCH  20  25
ATOM     25  O   UNL     1       5.679  -3.175  24.511  0.00  0.00    -0.443 OA
BRANCH  25  26
ATOM     26  C   UNL     1       5.834  -2.058  25.271  0.00  0.00    +0.333 C 
ATOM     27  O   UNL     1       5.782  -1.994  26.485  0.00  0.00    -0.246 OA
BRANCH  26  28
ATOM     28  C   UNL     1       6.089  -0.916  24.368  0.00  0.00    +0.092 C 
ATOM     29  C   UNL     1       6.291   0.304  24.888  0.00  0.00    +0.015 C 
BRANCH  29  30
ATOM     30  C   UNL     1       6.621   1.493  24.088  0.00  0.00    -0.025 A 
ATOM     31  C   UNL     1       7.047   2.652  24.753  0.00  0.00    +0.011 A 
ATOM     32  C   UNL     1       7.388   3.800  24.034  0.00  0.00    +0.046 A 
ATOM     33  C   UNL     1       7.296   3.798  22.649  0.00  0.00    +0.117 A 
ATOM     34  C   UNL     1       6.845   2.673  21.969  0.00  0.00    +0.046 A 
ATOM     35  C   UNL     1       6.501   1.524  22.691  0.00  0.00    +0.011 A 
BRANCH  33  36
ATOM     36  O   UNL     1       7.660   4.932  21.986  0.00  0.00    -0.507 OA
ATOM     37  H   UNL     1       6.861   5.445  21.780  0.00  0.00    +0.292 HD
ENDBRANCH  33  36
ENDBRANCH  29  30
ENDBRANCH  26  28
ENDBRANCH  25  26
ENDBRANCH  20  25
ENDBRANCH   1  20
TORSDOF 16
ENDMDL
MODEL 6
REMARK VINA RESULT:      -6.5      2.291      7.656
REMARK  Name = 
REMARK  16 active torsions:
REMARK  status: ('A' for Active; 'I' for Inactive)
REMARK    1  A    between atoms: C_2  and  C_3
REMARK    2  A    between atoms: C_2  and  O_7
REMARK    3  A    between atoms: C_2  and  C_19
REMARK    4  A    between atoms: C_3  and  C_4
REMARK    5  A    between atoms: C_4  and  O_5
REMARK    6  A    between atoms: O_7  and  C_8
REMARK    7  A    between atoms: C_8  and  C_10
REMARK    8  A    between atoms: C_11  and  C_12
REMARK    9  A    between atoms: C_15  and  O_16
REMARK   10  A    between atoms: C_19  and  O_21
REMARK   11  A    between atoms: C_19  and  C_33
REMARK   12  A    between atoms: O_21  and  C_22
REMARK   13  A    between atoms: C_22  and  C_24
REMARK   14  A    between atoms: C_25  and  C_26
REMARK   15  A    between atoms: C_29  and  O_30
REMARK   16  A    between atoms: C_33  and  O_34
REMARK                            x       y       z     vdW  Elec       q    Type
REMARK                         _______ _______ _______ _____ _____    ______ ____
ROOT
ATOM      1  C   UNL     1       9.131   1.911  23.830  0.00  0.00    +0.239 C 
ENDROOT
BRANCH   1   2
ATOM      2  O   UNL     1       8.948   0.853  24.802  0.00  0.00    -0.453 OA
BRANCH   2   3
ATOM      3  C   UNL     1       7.951   1.018  25.703  0.00  0.00    +0.332 C 
ATOM      4  O   UNL     1       7.631   2.072  26.226  0.00  0.00    -0.246 OA
BRANCH   3   5
ATOM      5  C   UNL     1       7.377  -0.307  25.996  0.00  0.00    +0.092 C 
ATOM      6  C   UNL     1       8.151  -1.398  25.914  0.00  0.00    +0.015 C 
BRANCH   6   7
ATOM      7  C   UNL     1       7.690  -2.751  26.250  0.00  0.00    -0.025 A 
ATOM      8  C   UNL     1       6.379  -2.905  26.722  0.00  0.00    +0.011 A 
ATOM      9  C   UNL     1       5.862  -4.176  26.981  0.00  0.00    +0.046 A 
ATOM     10  C   UNL     1       6.658  -5.296  26.779  0.00  0.00    +0.117 A 
ATOM     11  C   UNL     1       7.980  -5.163  26.369  0.00  0.00    +0.046 A 
ATOM     12  C   UNL     1       8.499  -3.889  26.115  0.00  0.00    +0.011 A 
BRANCH  10  13
ATOM     13  O   UNL     1       6.095  -6.519  26.986  0.00  0.00    -0.507 OA
ATOM     14  H   UNL     1       5.293  -6.402  27.521  0.00  0.00    +0.292 HD
ENDBRANCH  10  13
ENDBRANCH   6   7
ENDBRANCH   3   5
ENDBRANCH   2   3
ENDBRANCH   1   2
BRANCH   1  15
ATOM     15  C   UNL     1      10.639   2.188  23.687  0.00  0.00    +0.169 C 
BRANCH  15  16
ATOM     16  C   UNL     1      10.923   3.648  23.456  0.00  0.00    +0.308 C 
ATOM     17  O   UNL     1      12.047   4.105  23.309  0.00  0.00    -0.251 OA
BRANCH  16  18
ATOM     18  O   UNL     1       9.812   4.414  23.369  0.00  0.00    -0.481 OA
ATOM     19  H   UNL     1       9.631   4.988  24.153  0.00  0.00    +0.295 HD
ENDBRANCH  16  18
ENDBRANCH  15  16
ENDBRANCH   1  15
BRANCH   1  20
ATOM     20  C   UNL     1       8.409   1.475  22.533  0.00  0.00    +0.325 C 
BRANCH  20  21
ATOM     21  C   UNL     1       7.177   2.329  22.271  0.00  0.00    +0.350 C 
ATOM     22  O   UNL     1       7.240   3.517  21.969  0.00  0.00    -0.247 OA
BRANCH  21  23
ATOM     23  O   UNL     1       6.000   1.676  22.392  0.00  0.00    -0.478 OA
ATOM     24  H   UNL     1       5.294   2.115  21.870  0.00  0.00    +0.295 HD
ENDBRANCH  21  23
ENDBRANCH  20  21
BRANCH  20  25
ATOM     25  O   UNL     1       7.956   0.093  22.660  0.00  0.00    -0.443 OA
BRANCH  25  26
ATOM     26  C   UNL     1       8.733  -0.831  22.033  0.00  0.00    +0.333 C 
ATOM     27  O   UNL     1       9.707  -0.608  21.340  0.00  0.00    -0.246 OA
BRANCH  26  28
ATOM     28  C   UNL     1       8.199  -2.173  22.344  0.00  0.00    +0.092 C 
ATOM     29  C   UNL     1       6.909  -2.307  22.690  0.00  0.00    +0.015 C 
BRANCH  29  30
ATOM     30  C   UNL     1       6.259  -3.599  22.951  0.00  0.00    -0.025 A 
ATOM     31  C   UNL     1       6.988  -4.776  22.727  0.00  0.00    +0.011 A 
ATOM     32  C   UNL     1       6.418  -6.026  22.978  0.00  0.00    +0.046 A 
ATOM     33  C   UNL     1       5.112  -6.106  23.444  0.00  0.00    +0.117 A 
ATOM     34  C   UNL     1       4.358  -4.956  23.642  0.00  0.00    +0.046 A 
ATOM     35  C   UNL     1       4.929  -3.704  23.387  0.00  0.00    +0.011 A 
BRANCH  33  36
ATOM     36  O   UNL     1       4.603  -7.344  23.697  0.00  0.00    -0.507 OA
ATOM     37  H   UNL     1       3.799  -7.467  23.166  0.00  0.00    +0.292 HD
ENDBRANCH  33  36
ENDBRANCH  29  30
ENDBRANCH  26  28
ENDBRANCH  25  26
ENDBRANCH  20  25
ENDBRANCH   1  20
TORSDOF 16
ENDMDL
MODEL 7
REMARK VINA RESULT:      -6.4      2.295      7.489
REMARK  Name = 
REMARK  16 active torsions:
REMARK  status: ('A' for Active; 'I' for Inactive)
REMARK    1  A    between atoms: C_2  and  C_3
REMARK    2  A    between atoms: C_2  and  O_7
REMARK    3  A    between atoms: C_2  and  C_19
REMARK    4  A    between atoms: C_3  and  C_4
REMARK    5  A    between atoms: C_4  and  O_5
REMARK    6  A    between atoms: O_7  and  C_8
REMARK    7  A    between atoms: C_8  and  C_10
REMARK    8  A    between atoms: C_11  and  C_12
REMARK    9  A    between atoms: C_15  and  O_16
REMARK   10  A    between atoms: C_19  and  O_21
REMARK   11  A    between atoms: C_19  and  C_33
REMARK   12  A    between atoms: O_21  and  C_22
REMARK   13  A    between atoms: C_22  and  C_24
REMARK   14  A    between atoms: C_25  and  C_26
REMARK   15  A    between atoms: C_29  and  O_30
REMARK   16  A    between atoms: C_33  and  O_34
REMARK                            x       y       z     vdW  Elec       q    Type
REMARK                         _______ _______ _______ _____ _____    ______ ____
ROOT
ATOM      1  C   UNL     1       8.597   1.318  22.325  0.00  0.00    +0.239 C 
ENDROOT
BRANCH   1   2
ATOM      2  O   UNL     1       8.122  -0.044  22.460  0.00  0.00    -0.453 OA
BRANCH   2   3
ATOM      3  C   UNL     1       8.951  -1.025  22.030  0.00  0.00    +0.332 C 
ATOM      4  O   UNL     1      10.001  -0.859  21.432  0.00  0.00    -0.246 OA
BRANCH   3   5
ATOM      5  C   UNL     1       8.323  -2.321  22.340  0.00  0.00    +0.092 C 
ATOM      6  C   UNL     1       7.005  -2.380  22.577  0.00  0.00    +0.015 C 
BRANCH   6   7
ATOM      7  C   UNL     1       6.279  -3.631  22.829  0.00  0.00    -0.025 A 
ATOM      8  C   UNL     1       6.908  -4.839  22.503  0.00  0.00    +0.011 A 
ATOM      9  C   UNL     1       6.298  -6.061  22.795  0.00  0.00    +0.046 A 
ATOM     10  C   UNL     1       5.049  -6.076  23.402  0.00  0.00    +0.117 A 
ATOM     11  C   UNL     1       4.378  -4.889  23.678  0.00  0.00    +0.046 A 
ATOM     12  C   UNL     1       4.989  -3.667  23.381  0.00  0.00    +0.011 A 
BRANCH  10  13
ATOM     13  O   UNL     1       4.515  -7.288  23.723  0.00  0.00    -0.507 OA
ATOM     14  H   UNL     1       3.977  -7.184  24.526  0.00  0.00    +0.292 HD
ENDBRANCH  10  13
ENDBRANCH   6   7
ENDBRANCH   3   5
ENDBRANCH   2   3
ENDBRANCH   1   2
BRANCH   1  15
ATOM     15  C   UNL     1       7.484   2.161  21.676  0.00  0.00    +0.169 C 
BRANCH  15  16
ATOM     16  C   UNL     1       6.398   2.507  22.659  0.00  0.00    +0.308 C 
ATOM     17  O   UNL     1       6.186   3.641  23.065  0.00  0.00    -0.251 OA
BRANCH  16  18
ATOM     18  O   UNL     1       5.630   1.454  23.019  0.00  0.00    -0.481 OA
ATOM     19  H   UNL     1       4.765   1.378  22.546  0.00  0.00    +0.295 HD
ENDBRANCH  16  18
ENDBRANCH  15  16
ENDBRANCH   1  15
BRANCH   1  20
ATOM     20  C   UNL     1       9.056   1.786  23.726  0.00  0.00    +0.325 C 
BRANCH  20  21
ATOM     21  C   UNL     1      10.517   2.214  23.717  0.00  0.00    +0.350 C 
ATOM     22  O   UNL     1      11.419   1.521  24.176  0.00  0.00    -0.247 OA
BRANCH  21  23
ATOM     23  O   UNL     1      10.749   3.422  23.156  0.00  0.00    -0.478 OA
ATOM     24  H   UNL     1      10.236   3.533  22.327  0.00  0.00    +0.295 HD
ENDBRANCH  21  23
ENDBRANCH  20  21
BRANCH  20  25
ATOM     25  O   UNL     1       8.935   0.687  24.680  0.00  0.00    -0.443 OA
BRANCH  25  26
ATOM     26  C   UNL     1       7.947   0.828  25.603  0.00  0.00    +0.333 C 
ATOM     27  O   UNL     1       7.626   1.856  26.170  0.00  0.00    -0.246 OA
BRANCH  26  28
ATOM     28  C   UNL     1       7.308  -0.489  25.803  0.00  0.00    +0.092 C 
ATOM     29  C   UNL     1       8.076  -1.579  25.959  0.00  0.00    +0.015 C 
BRANCH  29  30
ATOM     30  C   UNL     1       7.548  -2.923  26.232  0.00  0.00    -0.025 A 
ATOM     31  C   UNL     1       6.277  -3.041  26.813  0.00  0.00    +0.011 A 
ATOM     32  C   UNL     1       5.727  -4.298  27.075  0.00  0.00    +0.046 A 
ATOM     33  C   UNL     1       6.450  -5.443  26.767  0.00  0.00    +0.117 A 
ATOM     34  C   UNL     1       7.724  -5.353  26.221  0.00  0.00    +0.046 A 
ATOM     35  C   UNL     1       8.275  -4.093  25.962  0.00  0.00    +0.011 A 
BRANCH  33  36
ATOM     36  O   UNL     1       5.866  -6.648  27.019  0.00  0.00    -0.507 OA
ATOM     37  H   UNL     1       6.442  -7.352  26.678  0.00  0.00    +0.292 HD
ENDBRANCH  33  36
ENDBRANCH  29  30
ENDBRANCH  26  28
ENDBRANCH  25  26
ENDBRANCH  20  25
ENDBRANCH   1  20
TORSDOF 16
ENDMDL
MODEL 8
REMARK VINA RESULT:      -6.3      2.004      7.855
REMARK  Name = 
REMARK  16 active torsions:
REMARK  status: ('A' for Active; 'I' for Inactive)
REMARK    1  A    between atoms: C_2  and  C_3
REMARK    2  A    between atoms: C_2  and  O_7
REMARK    3  A    between atoms: C_2  and  C_19
REMARK    4  A    between atoms: C_3  and  C_4
REMARK    5  A    between atoms: C_4  and  O_5
REMARK    6  A    between atoms: O_7  and  C_8
REMARK    7  A    between atoms: C_8  and  C_10
REMARK    8  A    between atoms: C_11  and  C_12
REMARK    9  A    between atoms: C_15  and  O_16
REMARK   10  A    between atoms: C_19  and  O_21
REMARK   11  A    between atoms: C_19  and  C_33
REMARK   12  A    between atoms: O_21  and  C_22
REMARK   13  A    between atoms: C_22  and  C_24
REMARK   14  A    between atoms: C_25  and  C_26
REMARK   15  A    between atoms: C_29  and  O_30
REMARK   16  A    between atoms: C_33  and  O_34
REMARK                            x       y       z     vdW  Elec       q    Type
REMARK                         _______ _______ _______ _____ _____    ______ ____
ROOT
ATOM      1  C   UNL     1       7.713   1.481  23.504  0.00  0.00    +0.239 C 
ENDROOT
BRANCH   1   2
ATOM      2  O   UNL     1       7.135   0.968  24.729  0.00  0.00    -0.453 OA
BRANCH   2   3
ATOM      3  C   UNL     1       5.810   0.686  24.707  0.00  0.00    +0.332 C 
ATOM      4  O   UNL     1       4.911   1.501  24.587  0.00  0.00    -0.246 OA
BRANCH   3   5
ATOM      5  C   UNL     1       5.647  -0.760  24.934  0.00  0.00    +0.092 C 
ATOM      6  C   UNL     1       6.433  -1.385  25.822  0.00  0.00    +0.015 C 
BRANCH   6   7
ATOM      7  C   UNL     1       6.303  -2.807  26.165  0.00  0.00    -0.025 A 
ATOM      8  C   UNL     1       5.035  -3.291  26.514  0.00  0.00    +0.011 A 
ATOM      9  C   UNL     1       4.838  -4.649  26.771  0.00  0.00    +0.046 A 
ATOM     10  C   UNL     1       5.912  -5.525  26.692  0.00  0.00    +0.117 A 
ATOM     11  C   UNL     1       7.191  -5.058  26.408  0.00  0.00    +0.046 A 
ATOM     12  C   UNL     1       7.388  -3.697  26.155  0.00  0.00    +0.011 A 
BRANCH  10  13
ATOM     13  O   UNL     1       5.665  -6.851  26.892  0.00  0.00    -0.507 OA
ATOM     14  H   UNL     1       5.154  -7.185  26.137  0.00  0.00    +0.292 HD
ENDBRANCH  10  13
ENDBRANCH   6   7
ENDBRANCH   3   5
ENDBRANCH   2   3
ENDBRANCH   1   2
BRANCH   1  15
ATOM     15  C   UNL     1       7.803   3.014  23.612  0.00  0.00    +0.169 C 
BRANCH  15  16
ATOM     16  C   UNL     1       7.075   3.699  22.487  0.00  0.00    +0.308 C 
ATOM     17  O   UNL     1       5.988   3.335  22.061  0.00  0.00    -0.251 OA
BRANCH  16  18
ATOM     18  O   UNL     1       7.706   4.798  22.016  0.00  0.00    -0.481 OA
ATOM     19  H   UNL     1       7.187   5.343  21.373  0.00  0.00    +0.295 HD
ENDBRANCH  16  18
ENDBRANCH  15  16
ENDBRANCH   1  15
BRANCH   1  20
ATOM     20  C   UNL     1       9.059   0.749  23.289  0.00  0.00    +0.325 C 
BRANCH  20  21
ATOM     21  C   UNL     1      10.152   1.717  22.855  0.00  0.00    +0.350 C 
ATOM     22  O   UNL     1      10.964   2.201  23.637  0.00  0.00    -0.247 OA
BRANCH  21  23
ATOM     23  O   UNL     1      10.164   2.001  21.534  0.00  0.00    -0.478 OA
ATOM     24  H   UNL     1       9.666   1.329  21.021  0.00  0.00    +0.295 HD
ENDBRANCH  21  23
ENDBRANCH  20  21
BRANCH  20  25
ATOM     25  O   UNL     1       8.919  -0.245  22.229  0.00  0.00    -0.443 OA
BRANCH  25  26
ATOM     26  C   UNL     1       9.561  -1.423  22.452  0.00  0.00    +0.333 C 
ATOM     27  O   UNL     1      10.745  -1.646  22.285  0.00  0.00    -0.246 OA
BRANCH  26  28
ATOM     28  C   UNL     1       8.571  -2.402  22.948  0.00  0.00    +0.092 C 
ATOM     29  C   UNL     1       7.588  -2.818  22.134  0.00  0.00    +0.015 C 
BRANCH  29  30
ATOM     30  C   UNL     1       6.595  -3.838  22.501  0.00  0.00    -0.025 A 
ATOM     31  C   UNL     1       7.012  -5.173  22.609  0.00  0.00    +0.011 A 
ATOM     32  C   UNL     1       6.108  -6.174  22.972  0.00  0.00    +0.046 A 
ATOM     33  C   UNL     1       4.781  -5.847  23.217  0.00  0.00    +0.117 A 
ATOM     34  C   UNL     1       4.336  -4.537  23.084  0.00  0.00    +0.046 A 
ATOM     35  C   UNL     1       5.242  -3.535  22.718  0.00  0.00    +0.011 A 
BRANCH  33  36
ATOM     36  O   UNL     1       3.938  -6.851  23.590  0.00  0.00    -0.507 OA
ATOM     37  H   UNL     1       3.744  -7.401  22.814  0.00  0.00    +0.292 HD
ENDBRANCH  33  36
ENDBRANCH  29  30
ENDBRANCH  26  28
ENDBRANCH  25  26
ENDBRANCH  20  25
ENDBRANCH   1  20
TORSDOF 16
ENDMDL
MODEL 9
REMARK VINA RESULT:      -6.3      1.402      2.972
REMARK  Name = 
REMARK  16 active torsions:
REMARK  status: ('A' for Active; 'I' for Inactive)
REMARK    1  A    between atoms: C_2  and  C_3
REMARK    2  A    between atoms: C_2  and  O_7
REMARK    3  A    between atoms: C_2  and  C_19
REMARK    4  A    between atoms: C_3  and  C_4
REMARK    5  A    between atoms: C_4  and  O_5
REMARK    6  A    between atoms: O_7  and  C_8
REMARK    7  A    between atoms: C_8  and  C_10
REMARK    8  A    between atoms: C_11  and  C_12
REMARK    9  A    between atoms: C_15  and  O_16
REMARK   10  A    between atoms: C_19  and  O_21
REMARK   11  A    between atoms: C_19  and  C_33
REMARK   12  A    between atoms: O_21  and  C_22
REMARK   13  A    between atoms: C_22  and  C_24
REMARK   14  A    between atoms: C_25  and  C_26
REMARK   15  A    between atoms: C_29  and  O_30
REMARK   16  A    between atoms: C_33  and  O_34
REMARK                            x       y       z     vdW  Elec       q    Type
REMARK                         _______ _______ _______ _____ _____    ______ ____
ROOT
ATOM      1  C   UNL     1       6.561  -4.317  24.252  0.00  0.00    +0.239 C 
ENDROOT
BRANCH   1   2
ATOM      2  O   UNL     1       7.139  -4.124  22.938  0.00  0.00    -0.453 OA
BRANCH   2   3
ATOM      3  C   UNL     1       6.529  -3.225  22.129  0.00  0.00    +0.332 C 
ATOM      4  O   UNL     1       5.663  -3.479  21.308  0.00  0.00    -0.246 OA
BRANCH   3   5
ATOM      5  C   UNL     1       7.149  -1.909  22.358  0.00  0.00    +0.092 C 
ATOM      6  C   UNL     1       8.478  -1.818  22.504  0.00  0.00    +0.015 C 
BRANCH   6   7
ATOM      7  C   UNL     1       9.194  -0.548  22.670  0.00  0.00    -0.025 A 
ATOM      8  C   UNL     1       9.128   0.391  21.632  0.00  0.00    +0.011 A 
ATOM      9  C   UNL     1       9.722   1.647  21.769  0.00  0.00    +0.046 A 
ATOM     10  C   UNL     1      10.396   1.963  22.941  0.00  0.00    +0.117 A 
ATOM     11  C   UNL     1      10.527   1.026  23.961  0.00  0.00    +0.046 A 
ATOM     12  C   UNL     1       9.935  -0.233  23.820  0.00  0.00    +0.011 A 
BRANCH  10  13
ATOM     13  O   UNL     1      10.910   3.220  23.058  0.00  0.00    -0.507 OA
ATOM     14  H   UNL     1      10.662   3.727  22.268  0.00  0.00    +0.292 HD
ENDBRANCH  10  13
ENDBRANCH   6   7
ENDBRANCH   3   5
ENDBRANCH   2   3
ENDBRANCH   1   2
BRANCH   1  15
ATOM     15  C   UNL     1       5.963  -5.734  24.319  0.00  0.00    +0.169 C 
BRANCH  15  16
ATOM     16  C   UNL     1       4.586  -5.791  23.714  0.00  0.00    +0.308 C 
ATOM     17  O   UNL     1       3.556  -5.636  24.355  0.00  0.00    -0.251 OA
BRANCH  16  18
ATOM     18  O   UNL     1       4.583  -5.976  22.375  0.00  0.00    -0.481 OA
ATOM     19  H   UNL     1       5.208  -5.403  21.866  0.00  0.00    +0.295 HD
ENDBRANCH  16  18
ENDBRANCH  15  16
ENDBRANCH   1  15
BRANCH   1  20
ATOM     20  C   UNL     1       7.667  -4.012  25.290  0.00  0.00    +0.325 C 
BRANCH  20  21
ATOM     21  C   UNL     1       8.553  -5.228  25.527  0.00  0.00    +0.350 C 
ATOM     22  O   UNL     1       9.412  -5.593  24.732  0.00  0.00    -0.247 OA
BRANCH  21  23
ATOM     23  O   UNL     1       8.324  -5.876  26.691  0.00  0.00    -0.478 OA
ATOM     24  H   UNL     1       7.632  -5.424  27.219  0.00  0.00    +0.295 HD
ENDBRANCH  21  23
ENDBRANCH  20  21
BRANCH  20  25
ATOM     25  O   UNL     1       7.061  -3.664  26.572  0.00  0.00    -0.443 OA
BRANCH  25  26
ATOM     26  C   UNL     1       6.107  -2.697  26.517  0.00  0.00    +0.333 C 
ATOM     27  O   UNL     1       4.931  -2.822  26.801  0.00  0.00    -0.246 OA
BRANCH  26  28
ATOM     28  C   UNL     1       6.743  -1.445  26.056  0.00  0.00    +0.092 C 
ATOM     29  C   UNL     1       5.988  -0.488  25.497  0.00  0.00    +0.015 C 
BRANCH  29  30
ATOM     30  C   UNL     1       6.504   0.820  25.068  0.00  0.00    -0.025 A 
ATOM     31  C   UNL     1       7.322   1.541  25.950  0.00  0.00    +0.011 A 
ATOM     32  C   UNL     1       7.851   2.780  25.580  0.00  0.00    +0.046 A 
ATOM     33  C   UNL     1       7.555   3.309  24.331  0.00  0.00    +0.117 A 
ATOM     34  C   UNL     1       6.720   2.630  23.452  0.00  0.00    +0.046 A 
ATOM     35  C   UNL     1       6.189   1.390  23.825  0.00  0.00    +0.011 A 
BRANCH  33  36
ATOM     36  O   UNL     1       8.110   4.510  24.002  0.00  0.00    -0.507 OA
ATOM     37  H   UNL     1       8.571   4.865  24.779  0.00  0.00    +0.292 HD
ENDBRANCH  33  36
ENDBRANCH  29  30
ENDBRANCH  26  28
ENDBRANCH  25  26
ENDBRANCH  20  25
ENDBRANCH   1  20
TORSDOF 16
ENDMDL
