MODEL 1
REMARK VINA RESULT:      -6.5      0.000      0.000
REMARK  Name = 
REMARK  11 active torsions:
REMARK  status: ('A' for Active; 'I' for Inactive)
REMARK    1  A    between atoms: O_1  and  C_2
REMARK    2  A    between atoms: C_2  and  C_4
REMARK    3  A    between atoms: C_7  and  N_8
REMARK    4  A    between atoms: C_9  and  C_11
REMARK    5  A    between atoms: C_11  and  C_12
REMARK    6  A    between atoms: C_12  and  C_13
REMARK    7  A    between atoms: C_13  and  C_14
REMARK    8  A    between atoms: C_14  and  C_15
REMARK    9  A    between atoms: N_17  and  C_18
REMARK   10  A    between atoms: C_24  and  C_25
REMARK   11  A    between atoms: C_25  and  O_26
REMARK                            x       y       z     vdW  Elec       q    Type
REMARK                         _______ _______ _______ _____ _____    ______ ____
ROOT
ATOM      1  C   UNL     1       9.329  -2.613  24.398  0.00  0.00    +0.010 C 
ENDROOT
BRANCH   1   2
ATOM      2  C   UNL     1       8.142  -2.250  23.502  0.00  0.00    +0.096 C 
BRANCH   2   5
ATOM      3  N   UNL     1       8.451  -0.136  24.675  0.00  0.00    -0.284 N 
ATOM      4  H   UNL     1       9.429  -0.356  24.507  0.00  0.00    +0.155 HD
ATOM      5  C   UNL     1       7.581  -0.891  23.907  0.00  0.00    +0.217 C 
ATOM      6  O   UNL     1       6.496  -0.503  23.480  0.00  0.00    -0.275 OA
BRANCH   3  13
ATOM      7  C   UNL     1       8.678   3.619  24.510  0.00  0.00    +0.087 A 
ATOM      8  C   UNL     1       7.897   3.977  25.626  0.00  0.00    +0.029 A 
ATOM      9  I   UNL     1       7.667   5.948  26.343  0.00  0.00    -0.043 I 
ATOM     10  C   UNL     1       7.265   2.989  26.393  0.00  0.00    +0.031 A 
ATOM     11  C   UNL     1       7.425   1.629  26.097  0.00  0.00    +0.037 A 
ATOM     12  I   UNL     1       6.631   0.304  27.538  0.00  0.00    -0.042 I 
ATOM     13  C   UNL     1       8.205   1.233  24.996  0.00  0.00    +0.061 A 
ATOM     14  C   UNL     1       8.836   2.242  24.213  0.00  0.00    +0.051 A 
ATOM     15  I   UNL     1       9.937   1.587  22.473  0.00  0.00    -0.041 I 
BRANCH   7  16
ATOM     16  C   UNL     1       9.372   4.653  23.697  0.00  0.00    +0.339 C 
ATOM     17  O   UNL     1      10.530   4.989  23.885  0.00  0.00    -0.245 OA
BRANCH  16  18
ATOM     18  O   UNL     1       8.633   5.162  22.687  0.00  0.00    -0.477 OA
ATOM     19  H   UNL     1       7.725   5.434  22.922  0.00  0.00    +0.295 HD
ENDBRANCH  16  18
ENDBRANCH   7  16
ENDBRANCH   3  13
ENDBRANCH   2   5
ENDBRANCH   1   2
BRANCH   1  20
ATOM     20  C   UNL     1       9.381  -4.078  24.840  0.00  0.00    +0.010 C 
BRANCH  20  21
ATOM     21  C   UNL     1       8.924  -4.338  26.279  0.00  0.00    +0.096 C 
BRANCH  21  22
ATOM     22  C   UNL     1       7.403  -4.404  26.357  0.00  0.00    +0.217 C 
ATOM     23  N   UNL     1       6.886  -5.649  26.016  0.00  0.00    -0.284 N 
ATOM     24  H   UNL     1       7.413  -6.126  25.291  0.00  0.00    +0.155 HD
ATOM     25  O   UNL     1       6.716  -3.422  26.621  0.00  0.00    -0.275 OA
BRANCH  23  26
ATOM     26  C   UNL     1       5.483  -5.903  26.027  0.00  0.00    +0.061 A 
ATOM     27  C   UNL     1       4.777  -5.991  24.795  0.00  0.00    +0.051 A 
ATOM     28  I   UNL     1       5.909  -5.598  22.998  0.00  0.00    -0.041 I 
ATOM     29  C   UNL     1       3.376  -6.232  24.759  0.00  0.00    +0.087 A 
ATOM     30  C   UNL     1       2.694  -6.379  25.982  0.00  0.00    +0.029 A 
ATOM     31  I   UNL     1       0.633  -6.804  26.185  0.00  0.00    -0.043 I 
ATOM     32  C   UNL     1       3.389  -6.314  27.196  0.00  0.00    +0.031 A 
ATOM     33  C   UNL     1       4.773  -6.115  27.222  0.00  0.00    +0.037 A 
ATOM     34  I   UNL     1       5.685  -6.426  29.108  0.00  0.00    -0.042 I 
BRANCH  29  35
ATOM     35  C   UNL     1       2.675  -6.408  23.453  0.00  0.00    +0.339 C 
ATOM     36  O   UNL     1       2.167  -5.486  22.842  0.00  0.00    -0.245 OA
BRANCH  35  37
ATOM     37  O   UNL     1       2.606  -7.680  23.008  0.00  0.00    -0.477 OA
ATOM     38  H   UNL     1       2.369  -7.790  22.067  0.00  0.00    +0.295 HD
ENDBRANCH  35  37
ENDBRANCH  29  35
ENDBRANCH  23  26
ENDBRANCH  21  22
ENDBRANCH  20  21
ENDBRANCH   1  20
TORSDOF 11
ENDMDL
MODEL 2
REMARK VINA RESULT:      -6.4      1.582      2.388
REMARK  Name = 
REMARK  11 active torsions:
REMARK  status: ('A' for Active; 'I' for Inactive)
REMARK    1  A    between atoms: O_1  and  C_2
REMARK    2  A    between atoms: C_2  and  C_4
REMARK    3  A    between atoms: C_7  and  N_8
REMARK    4  A    between atoms: C_9  and  C_11
REMARK    5  A    between atoms: C_11  and  C_12
REMARK    6  A    between atoms: C_12  and  C_13
REMARK    7  A    between atoms: C_13  and  C_14
REMARK    8  A    between atoms: C_14  and  C_15
REMARK    9  A    between atoms: N_17  and  C_18
REMARK   10  A    between atoms: C_24  and  C_25
REMARK   11  A    between atoms: C_25  and  O_26
REMARK                            x       y       z     vdW  Elec       q    Type
REMARK                         _______ _______ _______ _____ _____    ______ ____
ROOT
ATOM      1  C   UNL     1       9.582  -2.560  23.890  0.00  0.00    +0.010 C 
ENDROOT
BRANCH   1   2
ATOM      2  C   UNL     1       8.258  -2.305  23.165  0.00  0.00    +0.096 C 
BRANCH   2   5
ATOM      3  N   UNL     1       8.492  -0.248  24.450  0.00  0.00    -0.284 N 
ATOM      4  H   UNL     1       9.477  -0.429  24.280  0.00  0.00    +0.155 HD
ATOM      5  C   UNL     1       7.652  -0.987  23.635  0.00  0.00    +0.217 C 
ATOM      6  O   UNL     1       6.559  -0.611  23.218  0.00  0.00    -0.275 OA
BRANCH   3  13
ATOM      7  C   UNL     1       8.597   3.516  24.479  0.00  0.00    +0.087 A 
ATOM      8  C   UNL     1       7.803   3.790  25.608  0.00  0.00    +0.029 A 
ATOM      9  I   UNL     1       7.507   5.714  26.425  0.00  0.00    -0.043 I 
ATOM     10  C   UNL     1       7.201   2.745  26.322  0.00  0.00    +0.031 A 
ATOM     11  C   UNL     1       7.406   1.408  25.956  0.00  0.00    +0.037 A 
ATOM     12  I   UNL     1       6.653  -0.015  27.324  0.00  0.00    -0.042 I 
ATOM     13  C   UNL     1       8.200   1.094  24.840  0.00  0.00    +0.061 A 
ATOM     14  C   UNL     1       8.800   2.162  24.111  0.00  0.00    +0.051 A 
ATOM     15  I   UNL     1       9.925   1.633  22.345  0.00  0.00    -0.041 I 
BRANCH   7  16
ATOM     16  C   UNL     1       9.259   4.613  23.722  0.00  0.00    +0.339 C 
ATOM     17  O   UNL     1      10.398   4.989  23.945  0.00  0.00    -0.245 OA
BRANCH  16  18
ATOM     18  O   UNL     1       8.515   5.132  22.722  0.00  0.00    -0.477 OA
ATOM     19  H   UNL     1       9.005   5.644  22.050  0.00  0.00    +0.295 HD
ENDBRANCH  16  18
ENDBRANCH   7  16
ENDBRANCH   3  13
ENDBRANCH   2   5
ENDBRANCH   1   2
BRANCH   1  20
ATOM     20  C   UNL     1       9.572  -3.748  24.855  0.00  0.00    +0.010 C 
BRANCH  20  21
ATOM     21  C   UNL     1       8.569  -3.640  26.008  0.00  0.00    +0.096 C 
BRANCH  21  22
ATOM     22  C   UNL     1       7.575  -4.795  25.968  0.00  0.00    +0.217 C 
ATOM     23  N   UNL     1       6.315  -4.423  25.511  0.00  0.00    -0.284 N 
ATOM     24  H   UNL     1       6.044  -3.482  25.780  0.00  0.00    +0.155 HD
ATOM     25  O   UNL     1       7.856  -5.917  26.378  0.00  0.00    -0.275 OA
BRANCH  23  26
ATOM     26  C   UNL     1       5.251  -5.367  25.406  0.00  0.00    +0.061 A 
ATOM     27  C   UNL     1       4.367  -5.549  26.506  0.00  0.00    +0.051 A 
ATOM     28  I   UNL     1       4.813  -4.442  28.305  0.00  0.00    -0.041 I 
ATOM     29  C   UNL     1       3.298  -6.487  26.450  0.00  0.00    +0.087 A 
ATOM     30  C   UNL     1       3.136  -7.241  25.272  0.00  0.00    +0.029 A 
ATOM     31  I   UNL     1       1.593  -8.645  24.927  0.00  0.00    -0.043 I 
ATOM     32  C   UNL     1       3.992  -7.049  24.181  0.00  0.00    +0.031 A 
ATOM     33  C   UNL     1       5.016  -6.098  24.229  0.00  0.00    +0.037 A 
ATOM     34  I   UNL     1       5.947  -5.692  22.370  0.00  0.00    -0.042 I 
BRANCH  29  35
ATOM     35  C   UNL     1       2.331  -6.595  27.581  0.00  0.00    +0.339 C 
ATOM     36  O   UNL     1       1.362  -5.867  27.699  0.00  0.00    -0.245 OA
BRANCH  35  37
ATOM     37  O   UNL     1       2.625  -7.541  28.497  0.00  0.00    -0.477 OA
ATOM     38  H   UNL     1       3.529  -7.512  28.866  0.00  0.00    +0.295 HD
ENDBRANCH  35  37
ENDBRANCH  29  35
ENDBRANCH  23  26
ENDBRANCH  21  22
ENDBRANCH  20  21
ENDBRANCH   1  20
TORSDOF 11
ENDMDL
MODEL 3
REMARK VINA RESULT:      -6.4      0.279      9.535
REMARK  Name = 
REMARK  11 active torsions:
REMARK  status: ('A' for Active; 'I' for Inactive)
REMARK    1  A    between atoms: O_1  and  C_2
REMARK    2  A    between atoms: C_2  and  C_4
REMARK    3  A    between atoms: C_7  and  N_8
REMARK    4  A    between atoms: C_9  and  C_11
REMARK    5  A    between atoms: C_11  and  C_12
REMARK    6  A    between atoms: C_12  and  C_13
REMARK    7  A    between atoms: C_13  and  C_14
REMARK    8  A    between atoms: C_14  and  C_15
REMARK    9  A    between atoms: N_17  and  C_18
REMARK   10  A    between atoms: C_24  and  C_25
REMARK   11  A    between atoms: C_25  and  O_26
REMARK                            x       y       z     vdW  Elec       q    Type
REMARK                         _______ _______ _______ _____ _____    ______ ____
ROOT
ATOM      1  C   UNL     1       9.366  -4.086  24.867  0.00  0.00    +0.010 C 
ENDROOT
BRANCH   1   2
ATOM      2  C   UNL     1       8.749  -4.319  26.249  0.00  0.00    +0.096 C 
BRANCH   2   5
ATOM      3  N   UNL     1       6.814  -5.739  25.825  0.00  0.00    -0.284 N 
ATOM      4  H   UNL     1       7.458  -6.457  26.145  0.00  0.00    +0.155 HD
ATOM      5  C   UNL     1       7.236  -4.455  26.126  0.00  0.00    +0.217 C 
ATOM      6  O   UNL     1       6.494  -3.509  26.383  0.00  0.00    -0.275 OA
BRANCH   3  13
ATOM      7  C   UNL     1       3.314  -6.410  24.612  0.00  0.00    +0.087 A 
ATOM      8  C   UNL     1       2.676  -6.738  25.823  0.00  0.00    +0.029 A 
ATOM      9  I   UNL     1       0.605  -7.082  26.031  0.00  0.00    -0.043 I 
ATOM     10  C   UNL     1       3.407  -6.784  27.018  0.00  0.00    +0.031 A 
ATOM     11  C   UNL     1       4.772  -6.467  27.044  0.00  0.00    +0.037 A 
ATOM     12  I   UNL     1       5.614  -6.314  28.976  0.00  0.00    -0.042 I 
ATOM     13  C   UNL     1       5.441  -6.125  25.856  0.00  0.00    +0.061 A 
ATOM     14  C   UNL     1       4.695  -6.092  24.643  0.00  0.00    +0.051 A 
ATOM     15  I   UNL     1       5.790  -5.663  22.831  0.00  0.00    -0.041 I 
BRANCH   7  16
ATOM     16  C   UNL     1       2.549  -6.338  23.338  0.00  0.00    +0.339 C 
ATOM     17  O   UNL     1       2.101  -5.299  22.882  0.00  0.00    -0.245 OA
BRANCH  16  18
ATOM     18  O   UNL     1       2.431  -7.516  22.688  0.00  0.00    -0.477 OA
ATOM     19  H   UNL     1       1.520  -7.845  22.567  0.00  0.00    +0.295 HD
ENDBRANCH  16  18
ENDBRANCH   7  16
ENDBRANCH   3  13
ENDBRANCH   2   5
ENDBRANCH   1   2
BRANCH   1  20
ATOM     20  C   UNL     1       9.350  -2.631  24.389  0.00  0.00    +0.010 C 
BRANCH  20  21
ATOM     21  C   UNL     1       8.168  -2.259  23.487  0.00  0.00    +0.096 C 
BRANCH  21  22
ATOM     22  C   UNL     1       7.724  -0.824  23.746  0.00  0.00    +0.217 C 
ATOM     23  N   UNL     1       8.542  -0.147  24.643  0.00  0.00    -0.284 N 
ATOM     24  H   UNL     1       8.923  -0.737  25.376  0.00  0.00    +0.155 HD
ATOM     25  O   UNL     1       6.698  -0.357  23.261  0.00  0.00    -0.275 OA
BRANCH  23  26
ATOM     26  C   UNL     1       8.285   1.207  25.013  0.00  0.00    +0.061 A 
ATOM     27  C   UNL     1       8.808   2.262  24.214  0.00  0.00    +0.051 A 
ATOM     28  I   UNL     1      10.069   1.692  22.557  0.00  0.00    -0.041 I 
ATOM     29  C   UNL     1       8.586   3.626  24.551  0.00  0.00    +0.087 A 
ATOM     30  C   UNL     1       7.833   3.912  25.706  0.00  0.00    +0.029 A 
ATOM     31  I   UNL     1       7.317   5.851  26.375  0.00  0.00    -0.043 I 
ATOM     32  C   UNL     1       7.299   2.877  26.482  0.00  0.00    +0.031 A 
ATOM     33  C   UNL     1       7.490   1.538  26.124  0.00  0.00    +0.037 A 
ATOM     34  I   UNL     1       6.300   0.149  27.192  0.00  0.00    -0.042 I 
BRANCH  29  35
ATOM     35  C   UNL     1       9.068   4.713  23.649  0.00  0.00    +0.339 C 
ATOM     36  O   UNL     1      10.122   5.299  23.820  0.00  0.00    -0.245 OA
BRANCH  35  37
ATOM     37  O   UNL     1       8.231   5.034  22.641  0.00  0.00    -0.477 OA
ATOM     38  H   UNL     1       8.195   5.980  22.400  0.00  0.00    +0.295 HD
ENDBRANCH  35  37
ENDBRANCH  29  35
ENDBRANCH  23  26
ENDBRANCH  21  22
ENDBRANCH  20  21
ENDBRANCH   1  20
TORSDOF 11
ENDMDL
MODEL 4
REMARK VINA RESULT:      -6.4      1.591      9.742
REMARK  Name = 
REMARK  11 active torsions:
REMARK  status: ('A' for Active; 'I' for Inactive)
REMARK    1  A    between atoms: O_1  and  C_2
REMARK    2  A    between atoms: C_2  and  C_4
REMARK    3  A    between atoms: C_7  and  N_8
REMARK    4  A    between atoms: C_9  and  C_11
REMARK    5  A    between atoms: C_11  and  C_12
REMARK    6  A    between atoms: C_12  and  C_13
REMARK    7  A    between atoms: C_13  and  C_14
REMARK    8  A    between atoms: C_14  and  C_15
REMARK    9  A    between atoms: N_17  and  C_18
REMARK   10  A    between atoms: C_24  and  C_25
REMARK   11  A    between atoms: C_25  and  O_26
REMARK                            x       y       z     vdW  Elec       q    Type
REMARK                         _______ _______ _______ _____ _____    ______ ____
ROOT
ATOM      1  C   UNL     1       9.437  -3.904  24.801  0.00  0.00    +0.010 C 
ENDROOT
BRANCH   1   2
ATOM      2  C   UNL     1       8.603  -3.696  26.068  0.00  0.00    +0.096 C 
BRANCH   2   5
ATOM      3  N   UNL     1       6.291  -4.324  25.621  0.00  0.00    -0.284 N 
ATOM      4  H   UNL     1       6.391  -3.609  24.906  0.00  0.00    +0.155 HD
ATOM      5  C   UNL     1       7.501  -4.748  26.142  0.00  0.00    +0.217 C 
ATOM      6  O   UNL     1       7.740  -5.885  26.540  0.00  0.00    -0.275 OA
BRANCH   3  13
ATOM      7  C   UNL     1       3.244  -6.397  26.395  0.00  0.00    +0.087 A 
ATOM      8  C   UNL     1       3.054  -7.052  25.163  0.00  0.00    +0.029 A 
ATOM      9  I   UNL     1       1.619  -8.560  24.818  0.00  0.00    -0.043 I 
ATOM     10  C   UNL     1       3.895  -6.774  24.077  0.00  0.00    +0.031 A 
ATOM     11  C   UNL     1       4.962  -5.875  24.199  0.00  0.00    +0.037 A 
ATOM     12  I   UNL     1       6.273  -5.818  22.544  0.00  0.00    -0.042 I 
ATOM     13  C   UNL     1       5.189  -5.208  25.416  0.00  0.00    +0.061 A 
ATOM     14  C   UNL     1       4.324  -5.486  26.514  0.00  0.00    +0.051 A 
ATOM     15  I   UNL     1       4.651  -4.361  28.329  0.00  0.00    -0.041 I 
BRANCH   7  16
ATOM     16  C   UNL     1       2.373  -6.695  27.564  0.00  0.00    +0.339 C 
ATOM     17  O   UNL     1       1.312  -6.130  27.771  0.00  0.00    -0.245 OA
BRANCH  16  18
ATOM     18  O   UNL     1       2.825  -7.687  28.360  0.00  0.00    -0.477 OA
ATOM     19  H   UNL     1       2.473  -7.694  29.271  0.00  0.00    +0.295 HD
ENDBRANCH  16  18
ENDBRANCH   7  16
ENDBRANCH   3  13
ENDBRANCH   2   5
ENDBRANCH   1   2
BRANCH   1  20
ATOM     20  C   UNL     1       9.525  -2.685  23.878  0.00  0.00    +0.010 C 
BRANCH  20  21
ATOM     21  C   UNL     1       8.231  -2.341  23.133  0.00  0.00    +0.096 C 
BRANCH  21  22
ATOM     22  C   UNL     1       7.763  -0.934  23.487  0.00  0.00    +0.217 C 
ATOM     23  N   UNL     1       8.579  -0.299  24.417  0.00  0.00    -0.284 N 
ATOM     24  H   UNL     1       8.979  -0.927  25.107  0.00  0.00    +0.155 HD
ATOM     25  O   UNL     1       6.723  -0.457  23.043  0.00  0.00    -0.275 OA
BRANCH  23  26
ATOM     26  C   UNL     1       8.300   1.023  24.874  0.00  0.00    +0.061 A 
ATOM     27  C   UNL     1       8.807   2.136  24.147  0.00  0.00    +0.051 A 
ATOM     28  I   UNL     1      10.077   1.696  22.457  0.00  0.00    -0.041 I 
ATOM     29  C   UNL     1       8.563   3.472  24.572  0.00  0.00    +0.087 A 
ATOM     30  C   UNL     1       7.806   3.670  25.742  0.00  0.00    +0.029 A 
ATOM     31  I   UNL     1       7.260   5.553  26.536  0.00  0.00    -0.043 I 
ATOM     32  C   UNL     1       7.289   2.577  26.449  0.00  0.00    +0.031 A 
ATOM     33  C   UNL     1       7.500   1.269  26.003  0.00  0.00    +0.037 A 
ATOM     34  I   UNL     1       6.332  -0.206  26.977  0.00  0.00    -0.042 I 
BRANCH  29  35
ATOM     35  C   UNL     1       9.028   4.623  23.744  0.00  0.00    +0.339 C 
ATOM     36  O   UNL     1      10.057   5.233  23.973  0.00  0.00    -0.245 OA
BRANCH  35  37
ATOM     37  O   UNL     1       8.204   4.972  22.734  0.00  0.00    -0.477 OA
ATOM     38  H   UNL     1       7.353   5.371  22.997  0.00  0.00    +0.295 HD
ENDBRANCH  35  37
ENDBRANCH  29  35
ENDBRANCH  23  26
ENDBRANCH  21  22
ENDBRANCH  20  21
ENDBRANCH   1  20
TORSDOF 11
ENDMDL
MODEL 5
REMARK VINA RESULT:      -6.4      2.045      9.300
REMARK  Name = 
REMARK  11 active torsions:
REMARK  status: ('A' for Active; 'I' for Inactive)
REMARK    1  A    between atoms: O_1  and  C_2
REMARK    2  A    between atoms: C_2  and  C_4
REMARK    3  A    between atoms: C_7  and  N_8
REMARK    4  A    between atoms: C_9  and  C_11
REMARK    5  A    between atoms: C_11  and  C_12
REMARK    6  A    between atoms: C_12  and  C_13
REMARK    7  A    between atoms: C_13  and  C_14
REMARK    8  A    between atoms: C_14  and  C_15
REMARK    9  A    between atoms: N_17  and  C_18
REMARK   10  A    between atoms: C_24  and  C_25
REMARK   11  A    between atoms: C_25  and  O_26
REMARK                            x       y       z     vdW  Elec       q    Type
REMARK                         _______ _______ _______ _____ _____    ______ ____
ROOT
ATOM      1  C   UNL     1       6.174  -3.271  22.305  0.00  0.00    +0.010 C 
ENDROOT
BRANCH   1   2
ATOM      2  C   UNL     1       6.169  -4.783  22.063  0.00  0.00    +0.096 C 
BRANCH   2   5
ATOM      3  N   UNL     1       5.398  -4.662  24.372  0.00  0.00    -0.284 N 
ATOM      4  H   UNL     1       5.099  -3.740  24.068  0.00  0.00    +0.155 HD
ATOM      5  C   UNL     1       5.709  -5.509  23.322  0.00  0.00    +0.217 C 
ATOM      6  O   UNL     1       5.544  -6.727  23.323  0.00  0.00    -0.275 OA
BRANCH   3  13
ATOM      7  C   UNL     1       5.029  -5.959  27.888  0.00  0.00    +0.087 A 
ATOM      8  C   UNL     1       3.638  -6.163  27.946  0.00  0.00    +0.029 A 
ATOM      9  I   UNL     1       2.626  -7.063  29.565  0.00  0.00    -0.043 I 
ATOM     10  C   UNL     1       2.827  -5.830  26.852  0.00  0.00    +0.031 A 
ATOM     11  C   UNL     1       3.381  -5.327  25.668  0.00  0.00    +0.037 A 
ATOM     12  I   UNL     1       2.030  -5.165  24.052  0.00  0.00    -0.042 I 
ATOM     13  C   UNL     1       4.768  -5.119  25.568  0.00  0.00    +0.061 A 
ATOM     14  C   UNL     1       5.585  -5.448  26.688  0.00  0.00    +0.051 A 
ATOM     15  I   UNL     1       7.695  -5.013  26.523  0.00  0.00    -0.041 I 
BRANCH   7  16
ATOM     16  C   UNL     1       5.907  -6.325  29.033  0.00  0.00    +0.339 C 
ATOM     17  O   UNL     1       6.141  -5.574  29.965  0.00  0.00    -0.245 OA
BRANCH  16  18
ATOM     18  O   UNL     1       6.386  -7.587  28.989  0.00  0.00    -0.477 OA
ATOM     19  H   UNL     1       6.887  -7.823  28.185  0.00  0.00    +0.295 HD
ENDBRANCH  16  18
ENDBRANCH   7  16
ENDBRANCH   3  13
ENDBRANCH   2   5
ENDBRANCH   1   2
BRANCH   1  20
ATOM     20  C   UNL     1       7.556  -2.614  22.258  0.00  0.00    +0.010 C 
BRANCH  20  21
ATOM     21  C   UNL     1       8.402  -2.791  23.523  0.00  0.00    +0.096 C 
BRANCH  21  22
ATOM     22  C   UNL     1       8.533  -1.470  24.273  0.00  0.00    +0.217 C 
ATOM     23  N   UNL     1       7.667  -0.486  23.812  0.00  0.00    -0.284 N 
ATOM     24  H   UNL     1       7.495  -0.527  22.812  0.00  0.00    +0.155 HD
ATOM     25  O   UNL     1       9.382  -1.290  25.141  0.00  0.00    -0.275 OA
BRANCH  23  26
ATOM     26  C   UNL     1       7.645   0.819  24.388  0.00  0.00    +0.061 A 
ATOM     27  C   UNL     1       8.394   1.865  23.781  0.00  0.00    +0.051 A 
ATOM     28  I   UNL     1       9.613   1.326  22.081  0.00  0.00    -0.041 I 
ATOM     29  C   UNL     1       8.411   3.178  24.327  0.00  0.00    +0.087 A 
ATOM     30  C   UNL     1       7.666   3.422  25.496  0.00  0.00    +0.029 A 
ATOM     31  I   UNL     1       7.483   5.297  26.456  0.00  0.00    -0.043 I 
ATOM     32  C   UNL     1       6.911   2.400  26.085  0.00  0.00    +0.031 A 
ATOM     33  C   UNL     1       6.869   1.121  25.520  0.00  0.00    +0.037 A 
ATOM     34  I   UNL     1       5.390  -0.163  26.326  0.00  0.00    -0.042 I 
BRANCH  29  35
ATOM     35  C   UNL     1       9.131   4.279  23.622  0.00  0.00    +0.339 C 
ATOM     36  O   UNL     1      10.272   4.608  23.894  0.00  0.00    -0.245 OA
BRANCH  35  37
ATOM     37  O   UNL     1       8.413   4.919  22.676  0.00  0.00    -0.477 OA
ATOM     38  H   UNL     1       7.595   5.354  22.983  0.00  0.00    +0.295 HD
ENDBRANCH  35  37
ENDBRANCH  29  35
ENDBRANCH  23  26
ENDBRANCH  21  22
ENDBRANCH  20  21
ENDBRANCH   1  20
TORSDOF 11
ENDMDL
MODEL 6
REMARK VINA RESULT:      -6.3      1.907      3.068
REMARK  Name = 
REMARK  11 active torsions:
REMARK  status: ('A' for Active; 'I' for Inactive)
REMARK    1  A    between atoms: O_1  and  C_2
REMARK    2  A    between atoms: C_2  and  C_4
REMARK    3  A    between atoms: C_7  and  N_8
REMARK    4  A    between atoms: C_9  and  C_11
REMARK    5  A    between atoms: C_11  and  C_12
REMARK    6  A    between atoms: C_12  and  C_13
REMARK    7  A    between atoms: C_13  and  C_14
REMARK    8  A    between atoms: C_14  and  C_15
REMARK    9  A    between atoms: N_17  and  C_18
REMARK   10  A    between atoms: C_24  and  C_25
REMARK   11  A    between atoms: C_25  and  O_26
REMARK                            x       y       z     vdW  Elec       q    Type
REMARK                         _______ _______ _______ _____ _____    ______ ____
ROOT
ATOM      1  C   UNL     1       8.144  -2.331  22.486  0.00  0.00    +0.010 C 
ENDROOT
BRANCH   1   2
ATOM      2  C   UNL     1       8.435  -1.946  23.938  0.00  0.00    +0.096 C 
BRANCH   2   5
ATOM      3  N   UNL     1       8.620   0.244  24.991  0.00  0.00    -0.284 N 
ATOM      4  H   UNL     1       9.610   0.063  24.852  0.00  0.00    +0.155 HD
ATOM      5  C   UNL     1       7.802  -0.595  24.255  0.00  0.00    +0.217 C 
ATOM      6  O   UNL     1       6.708  -0.287  23.788  0.00  0.00    -0.275 OA
BRANCH   3  13
ATOM      7  C   UNL     1       8.662   3.989  24.606  0.00  0.00    +0.087 A 
ATOM      8  C   UNL     1       7.851   4.372  25.691  0.00  0.00    +0.029 A 
ATOM      9  I   UNL     1       7.513   6.369  26.288  0.00  0.00    -0.043 I 
ATOM     10  C   UNL     1       7.258   3.401  26.509  0.00  0.00    +0.031 A 
ATOM     11  C   UNL     1       7.489   2.036  26.295  0.00  0.00    +0.037 A 
ATOM     12  I   UNL     1       6.744   0.759  27.805  0.00  0.00    -0.042 I 
ATOM     13  C   UNL     1       8.302   1.615  25.228  0.00  0.00    +0.061 A 
ATOM     14  C   UNL     1       8.892   2.607  24.392  0.00  0.00    +0.051 A 
ATOM     15  I   UNL     1      10.046   1.907  22.706  0.00  0.00    -0.041 I 
BRANCH   7  16
ATOM     16  C   UNL     1       9.315   5.008  23.740  0.00  0.00    +0.339 C 
ATOM     17  O   UNL     1      10.446   5.423  23.928  0.00  0.00    -0.245 OA
BRANCH  16  18
ATOM     18  O   UNL     1       8.571   5.405  22.684  0.00  0.00    -0.477 OA
ATOM     19  H   UNL     1       8.898   6.191  22.207  0.00  0.00    +0.295 HD
ENDBRANCH  16  18
ENDBRANCH   7  16
ENDBRANCH   3  13
ENDBRANCH   2   5
ENDBRANCH   1   2
BRANCH   1  20
ATOM     20  C   UNL     1       7.435  -3.676  22.304  0.00  0.00    +0.010 C 
BRANCH  20  21
ATOM     21  C   UNL     1       5.908  -3.596  22.205  0.00  0.00    +0.096 C 
BRANCH  21  22
ATOM     22  C   UNL     1       5.265  -3.868  23.559  0.00  0.00    +0.217 C 
ATOM     23  N   UNL     1       5.275  -5.212  23.915  0.00  0.00    -0.284 N 
ATOM     24  H   UNL     1       5.170  -5.844  23.128  0.00  0.00    +0.155 HD
ATOM     25  O   UNL     1       4.726  -2.984  24.219  0.00  0.00    -0.275 OA
BRANCH  23  26
ATOM     26  C   UNL     1       4.716  -5.662  25.148  0.00  0.00    +0.061 A 
ATOM     27  C   UNL     1       5.533  -5.708  26.312  0.00  0.00    +0.051 A 
ATOM     28  I   UNL     1       7.615  -5.197  26.058  0.00  0.00    -0.041 I 
ATOM     29  C   UNL     1       5.020  -6.160  27.559  0.00  0.00    +0.087 A 
ATOM     30  C   UNL     1       3.674  -6.570  27.617  0.00  0.00    +0.029 A 
ATOM     31  I   UNL     1       2.671  -7.218  29.362  0.00  0.00    -0.043 I 
ATOM     32  C   UNL     1       2.862  -6.506  26.478  0.00  0.00    +0.031 A 
ATOM     33  C   UNL     1       3.363  -6.024  25.264  0.00  0.00    +0.037 A 
ATOM     34  I   UNL     1       1.899  -5.649  23.780  0.00  0.00    -0.042 I 
BRANCH  29  35
ATOM     35  C   UNL     1       5.871  -6.115  28.785  0.00  0.00    +0.339 C 
ATOM     36  O   UNL     1       5.988  -5.119  29.476  0.00  0.00    -0.245 OA
BRANCH  35  37
ATOM     37  O   UNL     1       6.541  -7.253  29.059  0.00  0.00    -0.477 OA
ATOM     38  H   UNL     1       7.078  -7.619  28.330  0.00  0.00    +0.295 HD
ENDBRANCH  35  37
ENDBRANCH  29  35
ENDBRANCH  23  26
ENDBRANCH  21  22
ENDBRANCH  20  21
ENDBRANCH   1  20
TORSDOF 11
ENDMDL
MODEL 7
REMARK VINA RESULT:      -6.2      2.509      9.244
REMARK  Name = 
REMARK  11 active torsions:
REMARK  status: ('A' for Active; 'I' for Inactive)
REMARK    1  A    between atoms: O_1  and  C_2
REMARK    2  A    between atoms: C_2  and  C_4
REMARK    3  A    between atoms: C_7  and  N_8
REMARK    4  A    between atoms: C_9  and  C_11
REMARK    5  A    between atoms: C_11  and  C_12
REMARK    6  A    between atoms: C_12  and  C_13
REMARK    7  A    between atoms: C_13  and  C_14
REMARK    8  A    between atoms: C_14  and  C_15
REMARK    9  A    between atoms: N_17  and  C_18
REMARK   10  A    between atoms: C_24  and  C_25
REMARK   11  A    between atoms: C_25  and  O_26
REMARK                            x       y       z     vdW  Elec       q    Type
REMARK                         _______ _______ _______ _____ _____    ______ ____
ROOT
ATOM      1  C   UNL     1       6.477  -3.186  22.331  0.00  0.00    +0.010 C 
ENDROOT
BRANCH   1   2
ATOM      2  C   UNL     1       6.454  -4.692  22.054  0.00  0.00    +0.096 C 
BRANCH   2   5
ATOM      3  N   UNL     1       5.622  -4.609  24.344  0.00  0.00    -0.284 N 
ATOM      4  H   UNL     1       5.357  -3.672  24.056  0.00  0.00    +0.155 HD
ATOM      5  C   UNL     1       5.939  -5.437  23.281  0.00  0.00    +0.217 C 
ATOM      6  O   UNL     1       5.742  -6.650  23.245  0.00  0.00    -0.275 OA
BRANCH   3  13
ATOM      7  C   UNL     1       5.119  -5.925  27.835  0.00  0.00    +0.087 A 
ATOM      8  C   UNL     1       3.728  -6.148  27.832  0.00  0.00    +0.029 A 
ATOM      9  I   UNL     1       2.660  -7.067  29.403  0.00  0.00    -0.043 I 
ATOM     10  C   UNL     1       2.961  -5.820  26.706  0.00  0.00    +0.031 A 
ATOM     11  C   UNL     1       3.560  -5.306  25.548  0.00  0.00    +0.037 A 
ATOM     12  I   UNL     1       2.278  -5.153  23.876  0.00  0.00    -0.042 I 
ATOM     13  C   UNL     1       4.947  -5.079  25.510  0.00  0.00    +0.061 A 
ATOM     14  C   UNL     1       5.719  -5.402  26.662  0.00  0.00    +0.051 A 
ATOM     15  I   UNL     1       7.828  -4.940  26.590  0.00  0.00    -0.041 I 
BRANCH   7  16
ATOM     16  C   UNL     1       5.950  -6.286  29.016  0.00  0.00    +0.339 C 
ATOM     17  O   UNL     1       6.161  -5.524  29.945  0.00  0.00    -0.245 OA
BRANCH  16  18
ATOM     18  O   UNL     1       6.415  -7.553  29.007  0.00  0.00    -0.477 OA
ATOM     19  H   UNL     1       7.382  -7.649  28.916  0.00  0.00    +0.295 HD
ENDBRANCH  16  18
ENDBRANCH   7  16
ENDBRANCH   3  13
ENDBRANCH   2   5
ENDBRANCH   1   2
BRANCH   1  20
ATOM     20  C   UNL     1       7.868  -2.546  22.308  0.00  0.00    +0.010 C 
BRANCH  20  21
ATOM     21  C   UNL     1       8.654  -2.655  23.619  0.00  0.00    +0.096 C 
BRANCH  21  22
ATOM     22  C   UNL     1       8.861  -1.279  24.239  0.00  0.00    +0.217 C 
ATOM     23  N   UNL     1       7.789  -0.416  24.038  0.00  0.00    -0.284 N 
ATOM     24  H   UNL     1       7.323  -0.544  23.145  0.00  0.00    +0.155 HD
ATOM     25  O   UNL     1       9.910  -0.957  24.789  0.00  0.00    -0.275 OA
BRANCH  23  26
ATOM     26  C   UNL     1       7.800   0.919  24.543  0.00  0.00    +0.061 A 
ATOM     27  C   UNL     1       7.228   1.189  25.817  0.00  0.00    +0.051 A 
ATOM     28  I   UNL     1       6.271  -0.464  26.824  0.00  0.00    -0.041 I 
ATOM     29  C   UNL     1       7.207   2.506  26.354  0.00  0.00    +0.087 A 
ATOM     30  C   UNL     1       7.765   3.547  25.588  0.00  0.00    +0.029 A 
ATOM     31  I   UNL     1       7.908   5.567  26.197  0.00  0.00    -0.043 I 
ATOM     32  C   UNL     1       8.347   3.280  24.343  0.00  0.00    +0.031 A 
ATOM     33  C   UNL     1       8.399   1.977  23.838  0.00  0.00    +0.037 A 
ATOM     34  I   UNL     1       9.641   1.725  22.141  0.00  0.00    -0.042 I 
BRANCH  29  35
ATOM     35  C   UNL     1       6.683   2.750  27.730  0.00  0.00    +0.339 C 
ATOM     36  O   UNL     1       5.532   3.081  27.954  0.00  0.00    -0.245 OA
BRANCH  35  37
ATOM     37  O   UNL     1       7.589   2.615  28.721  0.00  0.00    -0.477 OA
ATOM     38  H   UNL     1       8.523   2.563  28.440  0.00  0.00    +0.295 HD
ENDBRANCH  35  37
ENDBRANCH  29  35
ENDBRANCH  23  26
ENDBRANCH  21  22
ENDBRANCH  20  21
ENDBRANCH   1  20
TORSDOF 11
ENDMDL
MODEL 8
REMARK VINA RESULT:      -6.1      2.678      8.333
REMARK  Name = 
REMARK  11 active torsions:
REMARK  status: ('A' for Active; 'I' for Inactive)
REMARK    1  A    between atoms: O_1  and  C_2
REMARK    2  A    between atoms: C_2  and  C_4
REMARK    3  A    between atoms: C_7  and  N_8
REMARK    4  A    between atoms: C_9  and  C_11
REMARK    5  A    between atoms: C_11  and  C_12
REMARK    6  A    between atoms: C_12  and  C_13
REMARK    7  A    between atoms: C_13  and  C_14
REMARK    8  A    between atoms: C_14  and  C_15
REMARK    9  A    between atoms: N_17  and  C_18
REMARK   10  A    between atoms: C_24  and  C_25
REMARK   11  A    between atoms: C_25  and  O_26
REMARK                            x       y       z     vdW  Elec       q    Type
REMARK                         _______ _______ _______ _____ _____    ______ ____
ROOT
ATOM      1  C   UNL     1      10.197  -0.958  22.888  0.00  0.00    +0.010 C 
ENDROOT
BRANCH   1   2
ATOM      2  C   UNL     1       9.159  -1.520  21.913  0.00  0.00    +0.096 C 
BRANCH   2   5
ATOM      3  N   UNL     1       8.128  -3.331  23.177  0.00  0.00    -0.284 N 
ATOM      4  H   UNL     1       9.101  -3.567  23.348  0.00  0.00    +0.155 HD
ATOM      5  C   UNL     1       7.955  -2.049  22.684  0.00  0.00    +0.217 C 
ATOM      6  O   UNL     1       6.986  -1.329  22.912  0.00  0.00    -0.275 OA
BRANCH   3  13
ATOM      7  C   UNL     1       5.247  -5.422  24.402  0.00  0.00    +0.087 A 
ATOM      8  C   UNL     1       5.248  -5.091  25.771  0.00  0.00    +0.029 A 
ATOM      9  I   UNL     1       3.789  -5.728  27.157  0.00  0.00    -0.043 I 
ATOM     10  C   UNL     1       6.220  -4.225  26.289  0.00  0.00    +0.031 A 
ATOM     11  C   UNL     1       7.183  -3.639  25.457  0.00  0.00    +0.037 A 
ATOM     12  I   UNL     1       8.365  -2.149  26.377  0.00  0.00    -0.042 I 
ATOM     13  C   UNL     1       7.208  -3.937  24.084  0.00  0.00    +0.061 A 
ATOM     14  C   UNL     1       6.225  -4.828  23.565  0.00  0.00    +0.051 A 
ATOM     15  I   UNL     1       6.369  -5.336  21.470  0.00  0.00    -0.041 I 
BRANCH   7  16
ATOM     16  C   UNL     1       4.210  -6.325  23.833  0.00  0.00    +0.339 C 
ATOM     17  O   UNL     1       3.198  -5.922  23.284  0.00  0.00    -0.245 OA
BRANCH  16  18
ATOM     18  O   UNL     1       4.502  -7.640  23.922  0.00  0.00    -0.477 OA
ATOM     19  H   UNL     1       5.449  -7.859  24.015  0.00  0.00    +0.295 HD
ENDBRANCH  16  18
ENDBRANCH   7  16
ENDBRANCH   3  13
ENDBRANCH   2   5
ENDBRANCH   1   2
BRANCH   1  20
ATOM     20  C   UNL     1      10.157   0.562  23.069  0.00  0.00    +0.010 C 
BRANCH  20  21
ATOM     21  C   UNL     1      10.138   1.043  24.524  0.00  0.00    +0.096 C 
BRANCH  21  22
ATOM     22  C   UNL     1       8.945   1.956  24.774  0.00  0.00    +0.217 C 
ATOM     23  N   UNL     1       7.729   1.282  24.798  0.00  0.00    -0.284 N 
ATOM     24  H   UNL     1       7.685   0.495  24.157  0.00  0.00    +0.155 HD
ATOM     25  O   UNL     1       9.059   3.175  24.864  0.00  0.00    -0.275 OA
BRANCH  23  26
ATOM     26  C   UNL     1       6.498   1.970  25.016  0.00  0.00    +0.061 A 
ATOM     27  C   UNL     1       5.783   2.495  23.905  0.00  0.00    +0.051 A 
ATOM     28  I   UNL     1       6.717   2.299  21.968  0.00  0.00    -0.041 I 
ATOM     29  C   UNL     1       4.557   3.197  24.077  0.00  0.00    +0.087 A 
ATOM     30  C   UNL     1       4.066   3.366  25.385  0.00  0.00    +0.029 A 
ATOM     31  I   UNL     1       2.243   4.314  25.888  0.00  0.00    -0.043 I 
ATOM     32  C   UNL     1       4.757   2.833  26.480  0.00  0.00    +0.031 A 
ATOM     33  C   UNL     1       5.941   2.111  26.299  0.00  0.00    +0.037 A 
ATOM     34  I   UNL     1       6.624   1.072  28.014  0.00  0.00    -0.042 I 
BRANCH  29  35
ATOM     35  C   UNL     1       3.781   3.659  22.889  0.00  0.00    +0.339 C 
ATOM     36  O   UNL     1       3.876   4.783  22.429  0.00  0.00    -0.245 OA
BRANCH  35  37
ATOM     37  O   UNL     1       2.926   2.751  22.374  0.00  0.00    -0.477 OA
ATOM     38  H   UNL     1       3.304   1.872  22.178  0.00  0.00    +0.295 HD
ENDBRANCH  35  37
ENDBRANCH  29  35
ENDBRANCH  23  26
ENDBRANCH  21  22
ENDBRANCH  20  21
ENDBRANCH   1  20
TORSDOF 11
ENDMDL
MODEL 9
REMARK VINA RESULT:      -6.0      2.834      8.981
REMARK  Name = 
REMARK  11 active torsions:
REMARK  status: ('A' for Active; 'I' for Inactive)
REMARK    1  A    between atoms: O_1  and  C_2
REMARK    2  A    between atoms: C_2  and  C_4
REMARK    3  A    between atoms: C_7  and  N_8
REMARK    4  A    between atoms: C_9  and  C_11
REMARK    5  A    between atoms: C_11  and  C_12
REMARK    6  A    between atoms: C_12  and  C_13
REMARK    7  A    between atoms: C_13  and  C_14
REMARK    8  A    between atoms: C_14  and  C_15
REMARK    9  A    between atoms: N_17  and  C_18
REMARK   10  A    between atoms: C_24  and  C_25
REMARK   11  A    between atoms: C_25  and  O_26
REMARK                            x       y       z     vdW  Elec       q    Type
REMARK                         _______ _______ _______ _____ _____    ______ ____
ROOT
ATOM      1  C   UNL     1      10.212  -1.334  23.381  0.00  0.00    +0.010 C 
ENDROOT
BRANCH   1   2
ATOM      2  C   UNL     1       9.304  -1.613  22.180  0.00  0.00    +0.096 C 
BRANCH   2   5
ATOM      3  N   UNL     1       8.156  -3.447  23.301  0.00  0.00    -0.284 N 
ATOM      4  H   UNL     1       9.063  -3.543  23.750  0.00  0.00    +0.155 HD
ATOM      5  C   UNL     1       7.995  -2.236  22.651  0.00  0.00    +0.217 C 
ATOM      6  O   UNL     1       6.931  -1.631  22.537  0.00  0.00    -0.275 OA
BRANCH   3  13
ATOM      7  C   UNL     1       5.936  -4.536  26.140  0.00  0.00    +0.087 A 
ATOM      8  C   UNL     1       5.095  -5.450  25.478  0.00  0.00    +0.029 A 
ATOM      9  I   UNL     1       3.651  -6.657  26.433  0.00  0.00    -0.043 I 
ATOM     10  C   UNL     1       5.230  -5.666  24.100  0.00  0.00    +0.031 A 
ATOM     11  C   UNL     1       6.224  -5.013  23.359  0.00  0.00    +0.037 A 
ATOM     12  I   UNL     1       6.444  -5.692  21.371  0.00  0.00    -0.042 I 
ATOM     13  C   UNL     1       7.090  -4.101  23.988  0.00  0.00    +0.061 A 
ATOM     14  C   UNL     1       6.940  -3.876  25.387  0.00  0.00    +0.051 A 
ATOM     15  I   UNL     1       8.224  -2.389  26.284  0.00  0.00    -0.041 I 
BRANCH   7  16
ATOM     16  C   UNL     1       5.818  -4.309  27.606  0.00  0.00    +0.339 C 
ATOM     17  O   UNL     1       6.445  -4.948  28.436  0.00  0.00    -0.245 OA
BRANCH  16  18
ATOM     18  O   UNL     1       4.996  -3.296  27.953  0.00  0.00    -0.477 OA
ATOM     19  H   UNL     1       4.243  -3.137  27.353  0.00  0.00    +0.295 HD
ENDBRANCH  16  18
ENDBRANCH   7  16
ENDBRANCH   3  13
ENDBRANCH   2   5
ENDBRANCH   1   2
BRANCH   1  20
ATOM     20  C   UNL     1      10.796   0.080  23.436  0.00  0.00    +0.010 C 
BRANCH  20  21
ATOM     21  C   UNL     1      10.160   1.004  24.479  0.00  0.00    +0.096 C 
BRANCH  21  22
ATOM     22  C   UNL     1       9.075   1.867  23.845  0.00  0.00    +0.217 C 
ATOM     23  N   UNL     1       8.383   2.647  24.765  0.00  0.00    -0.284 N 
ATOM     24  H   UNL     1       8.263   2.203  25.670  0.00  0.00    +0.155 HD
ATOM     25  O   UNL     1       8.802   1.805  22.650  0.00  0.00    -0.275 OA
BRANCH  23  26
ATOM     26  C   UNL     1       7.329   3.519  24.360  0.00  0.00    +0.061 A 
ATOM     27  C   UNL     1       5.981   3.072  24.443  0.00  0.00    +0.051 A 
ATOM     28  I   UNL     1       5.671   1.029  25.071  0.00  0.00    -0.041 I 
ATOM     29  C   UNL     1       4.899   3.904  24.040  0.00  0.00    +0.087 A 
ATOM     30  C   UNL     1       5.194   5.189  23.549  0.00  0.00    +0.029 A 
ATOM     31  I   UNL     1       3.761   6.625  22.951  0.00  0.00    -0.043 I 
ATOM     32  C   UNL     1       6.519   5.640  23.486  0.00  0.00    +0.031 A 
ATOM     33  C   UNL     1       7.574   4.831  23.919  0.00  0.00    +0.037 A 
ATOM     34  I   UNL     1       9.440   5.818  24.101  0.00  0.00    -0.042 I 
BRANCH  29  35
ATOM     35  C   UNL     1       3.490   3.446  24.221  0.00  0.00    +0.339 C 
ATOM     36  O   UNL     1       2.857   3.631  25.245  0.00  0.00    -0.245 OA
BRANCH  35  37
ATOM     37  O   UNL     1       2.968   2.772  23.175  0.00  0.00    -0.477 OA
ATOM     38  H   UNL     1       3.490   2.793  22.350  0.00  0.00    +0.295 HD
ENDBRANCH  35  37
ENDBRANCH  29  35
ENDBRANCH  23  26
ENDBRANCH  21  22
ENDBRANCH  20  21
ENDBRANCH   1  20
TORSDOF 11
ENDMDL
