MODEL 1
REMARK VINA RESULT:      -5.1      0.000      0.000
REMARK  Name = 
REMARK  2 active torsions:
REMARK  status: ('A' for Active; 'I' for Inactive)
REMARK    1  A    between atoms: N_1  and  C_2
REMARK    2  A    between atoms: C_11  and  O_13
REMARK                            x       y       z     vdW  Elec       q    Type
REMARK                         _______ _______ _______ _____ _____    ______ ____
ROOT
ATOM      1  C   UNL     1       9.413  -4.265  24.995  0.00  0.00    +0.304 C 
ATOM      2  S   UNL     1       7.848  -4.848  24.347  0.00  0.00    -0.066 S 
ATOM      3  C   UNL     1       7.183  -3.202  24.107  0.00  0.00    +0.210 C 
ATOM      4  C   UNL     1       8.159  -2.233  23.489  0.00  0.00    +0.033 A 
ATOM      5  C   UNL     1       9.546  -2.445  23.496  0.00  0.00    +0.130 A 
ATOM      6  C   UNL     1      10.406  -1.533  22.874  0.00  0.00    +0.046 A 
ATOM      7  C   UNL     1       9.901  -0.380  22.274  0.00  0.00    +0.004 A 
ATOM      8  C   UNL     1       8.532  -0.133  22.296  0.00  0.00    +0.001 A 
ATOM      9  C   UNL     1       7.672  -1.049  22.901  0.00  0.00    +0.010 A 
ATOM     10  O   UNL     1      10.169  -3.537  24.038  0.00  0.00    -0.465 OA
ENDROOT
BRANCH   1  11
ATOM     11  N   UNL     1      10.191  -5.418  25.397  0.00  0.00    -0.287 NA
ATOM     12  H   UNL     1      11.145  -5.083  25.515  0.00  0.00    +0.122 HD
ATOM     13  H   UNL     1       9.877  -5.671  26.332  0.00  0.00    +0.122 HD
ENDBRANCH   1  11
BRANCH   3  14
ATOM     14  O   UNL     1       6.027  -3.294  23.286  0.00  0.00    -0.377 OA
ATOM     15  H   UNL     1       5.306  -2.998  23.867  0.00  0.00    +0.211 HD
ENDBRANCH   3  14
TORSDOF 2
ENDMDL
MODEL 2
REMARK VINA RESULT:      -5.1      2.595      3.304
REMARK  Name = 
REMARK  2 active torsions:
REMARK  status: ('A' for Active; 'I' for Inactive)
REMARK    1  A    between atoms: N_1  and  C_2
REMARK    2  A    between atoms: C_11  and  O_13
REMARK                            x       y       z     vdW  Elec       q    Type
REMARK                         _______ _______ _______ _____ _____    ______ ____
ROOT
ATOM      1  C   UNL     1       8.639  -1.599  25.067  0.00  0.00    +0.304 C 
ATOM      2  S   UNL     1       9.518  -2.639  23.902  0.00  0.00    -0.066 S 
ATOM      3  C   UNL     1       9.313  -1.503  22.532  0.00  0.00    +0.210 C 
ATOM      4  C   UNL     1       9.567  -0.061  22.889  0.00  0.00    +0.033 A 
ATOM      5  C   UNL     1       9.541   0.409  24.211  0.00  0.00    +0.130 A 
ATOM      6  C   UNL     1       9.823   1.751  24.492  0.00  0.00    +0.046 A 
ATOM      7  C   UNL     1      10.094   2.648  23.460  0.00  0.00    +0.004 A 
ATOM      8  C   UNL     1      10.083   2.208  22.141  0.00  0.00    +0.001 A 
ATOM      9  C   UNL     1       9.818   0.868  21.860  0.00  0.00    +0.010 A 
ATOM     10  O   UNL     1       9.300  -0.366  25.313  0.00  0.00    -0.465 OA
ENDROOT
BRANCH   1  11
ATOM     11  N   UNL     1       8.540  -2.314  26.322  0.00  0.00    -0.287 NA
ATOM     12  H   UNL     1       9.134  -1.808  26.977  0.00  0.00    +0.122 HD
ATOM     13  H   UNL     1       7.590  -2.180  26.661  0.00  0.00    +0.122 HD
ENDBRANCH   1  11
BRANCH   3  14
ATOM     14  O   UNL     1      10.191  -1.892  21.485  0.00  0.00    -0.377 OA
ATOM     15  H   UNL     1       9.720  -2.621  21.045  0.00  0.00    +0.211 HD
ENDBRANCH   3  14
TORSDOF 2
ENDMDL
MODEL 3
REMARK VINA RESULT:      -5.0      3.177      4.970
REMARK  Name = 
REMARK  2 active torsions:
REMARK  status: ('A' for Active; 'I' for Inactive)
REMARK    1  A    between atoms: N_1  and  C_2
REMARK    2  A    between atoms: C_11  and  O_13
REMARK                            x       y       z     vdW  Elec       q    Type
REMARK                         _______ _______ _______ _____ _____    ______ ____
ROOT
ATOM      1  C   UNL     1       8.706  -3.749  24.729  0.00  0.00    +0.304 C 
ATOM      2  S   UNL     1       9.261  -4.664  26.167  0.00  0.00    -0.066 S 
ATOM      3  C   UNL     1       7.603  -5.012  26.749  0.00  0.00    +0.210 C 
ATOM      4  C   UNL     1       6.651  -5.446  25.662  0.00  0.00    +0.033 A 
ATOM      5  C   UNL     1       6.888  -5.197  24.302  0.00  0.00    +0.130 A 
ATOM      6  C   UNL     1       5.993  -5.655  23.330  0.00  0.00    +0.046 A 
ATOM      7  C   UNL     1       4.831  -6.331  23.701  0.00  0.00    +0.004 A 
ATOM      8  C   UNL     1       4.559  -6.549  25.048  0.00  0.00    +0.001 A 
ATOM      9  C   UNL     1       5.459  -6.107  26.017  0.00  0.00    +0.010 A 
ATOM     10  O   UNL     1       7.992  -4.557  23.804  0.00  0.00    -0.465 OA
ENDROOT
BRANCH   1  11
ATOM     11  N   UNL     1       9.873  -3.221  24.056  0.00  0.00    -0.287 NA
ATOM     12  H   UNL     1      10.306  -2.576  24.714  0.00  0.00    +0.122 HD
ATOM     13  H   UNL     1      10.530  -3.991  23.961  0.00  0.00    +0.122 HD
ENDBRANCH   1  11
BRANCH   3  14
ATOM     14  O   UNL     1       7.674  -6.023  27.745  0.00  0.00    -0.377 OA
ATOM     15  H   UNL     1       6.772  -6.387  27.771  0.00  0.00    +0.211 HD
ENDBRANCH   3  14
TORSDOF 2
ENDMDL
MODEL 4
REMARK VINA RESULT:      -4.9      1.834      1.871
REMARK  Name = 
REMARK  2 active torsions:
REMARK  status: ('A' for Active; 'I' for Inactive)
REMARK    1  A    between atoms: N_1  and  C_2
REMARK    2  A    between atoms: C_11  and  O_13
REMARK                            x       y       z     vdW  Elec       q    Type
REMARK                         _______ _______ _______ _____ _____    ______ ____
ROOT
ATOM      1  C   UNL     1       9.711  -4.449  25.412  0.00  0.00    +0.304 C 
ATOM      2  S   UNL     1       8.137  -4.101  26.194  0.00  0.00    -0.066 S 
ATOM      3  C   UNL     1       8.449  -2.344  26.342  0.00  0.00    +0.210 C 
ATOM      4  C   UNL     1       9.047  -1.722  25.105  0.00  0.00    +0.033 A 
ATOM      5  C   UNL     1       9.690  -2.476  24.112  0.00  0.00    +0.130 A 
ATOM      6  C   UNL     1      10.193  -1.855  22.964  0.00  0.00    +0.046 A 
ATOM      7  C   UNL     1      10.100  -0.473  22.809  0.00  0.00    +0.004 A 
ATOM      8  C   UNL     1       9.503   0.295  23.803  0.00  0.00    +0.001 A 
ATOM      9  C   UNL     1       8.986  -0.325  24.941  0.00  0.00    +0.010 A 
ATOM     10  O   UNL     1       9.839  -3.838  24.136  0.00  0.00    -0.465 OA
ENDROOT
BRANCH   1  11
ATOM     11  N   UNL     1       9.818  -5.882  25.235  0.00  0.00    -0.287 NA
ATOM     12  H   UNL     1       8.999  -6.157  24.696  0.00  0.00    +0.122 HD
ATOM     13  H   UNL     1      10.612  -6.042  24.619  0.00  0.00    +0.122 HD
ENDBRANCH   1  11
BRANCH   3  14
ATOM     14  O   UNL     1       7.228  -1.690  26.655  0.00  0.00    -0.377 OA
ATOM     15  H   UNL     1       7.508  -0.832  27.016  0.00  0.00    +0.211 HD
ENDBRANCH   3  14
TORSDOF 2
ENDMDL
MODEL 5
REMARK VINA RESULT:      -4.9      2.626      3.087
REMARK  Name = 
REMARK  2 active torsions:
REMARK  status: ('A' for Active; 'I' for Inactive)
REMARK    1  A    between atoms: N_1  and  C_2
REMARK    2  A    between atoms: C_11  and  O_13
REMARK                            x       y       z     vdW  Elec       q    Type
REMARK                         _______ _______ _______ _____ _____    ______ ____
ROOT
ATOM      1  C   UNL     1       9.511  -2.537  24.278  0.00  0.00    +0.304 C 
ATOM      2  S   UNL     1       8.468  -1.960  25.615  0.00  0.00    -0.066 S 
ATOM      3  C   UNL     1       9.279  -0.368  25.737  0.00  0.00    +0.210 C 
ATOM      4  C   UNL     1       9.553   0.282  24.404  0.00  0.00    +0.033 A 
ATOM      5  C   UNL     1       9.577  -0.436  23.200  0.00  0.00    +0.130 A 
ATOM      6  C   UNL     1       9.797   0.222  21.984  0.00  0.00    +0.046 A 
ATOM      7  C   UNL     1      10.036   1.595  21.957  0.00  0.00    +0.004 A 
ATOM      8  C   UNL     1      10.057   2.316  23.146  0.00  0.00    +0.001 A 
ATOM      9  C   UNL     1       9.822   1.665  24.357  0.00  0.00    +0.010 A 
ATOM     10  O   UNL     1       9.348  -1.782  23.086  0.00  0.00    -0.465 OA
ENDROOT
BRANCH   1  11
ATOM     11  N   UNL     1       9.154  -3.911  23.990  0.00  0.00    -0.287 NA
ATOM     12  H   UNL     1       8.933  -3.938  22.997  0.00  0.00    +0.122 HD
ATOM     13  H   UNL     1      10.004  -4.461  24.093  0.00  0.00    +0.122 HD
ENDBRANCH   1  11
BRANCH   3  14
ATOM     14  O   UNL     1       8.472   0.495  26.525  0.00  0.00    -0.377 OA
ATOM     15  H   UNL     1       9.076   1.213  26.779  0.00  0.00    +0.211 HD
ENDBRANCH   3  14
TORSDOF 2
ENDMDL
MODEL 6
REMARK VINA RESULT:      -4.8      2.689      3.805
REMARK  Name = 
REMARK  2 active torsions:
REMARK  status: ('A' for Active; 'I' for Inactive)
REMARK    1  A    between atoms: N_1  and  C_2
REMARK    2  A    between atoms: C_11  and  O_13
REMARK                            x       y       z     vdW  Elec       q    Type
REMARK                         _______ _______ _______ _____ _____    ______ ____
ROOT
ATOM      1  C   UNL     1       7.606  -5.514  26.411  0.00  0.00    +0.304 C 
ATOM      2  S   UNL     1       9.077  -4.494  26.322  0.00  0.00    -0.066 S 
ATOM      3  C   UNL     1       9.041  -4.369  24.535  0.00  0.00    +0.210 C 
ATOM      4  C   UNL     1       7.670  -4.100  23.968  0.00  0.00    +0.033 A 
ATOM      5  C   UNL     1       6.491  -4.347  24.686  0.00  0.00    +0.130 A 
ATOM      6  C   UNL     1       5.244  -4.044  24.128  0.00  0.00    +0.046 A 
ATOM      7  C   UNL     1       5.154  -3.530  22.835  0.00  0.00    +0.004 A 
ATOM      8  C   UNL     1       6.311  -3.318  22.094  0.00  0.00    +0.001 A 
ATOM      9  C   UNL     1       7.556  -3.604  22.654  0.00  0.00    +0.010 A 
ATOM     10  O   UNL     1       6.439  -4.839  25.963  0.00  0.00    -0.465 OA
ENDROOT
BRANCH   1  11
ATOM     11  N   UNL     1       7.403  -5.890  27.794  0.00  0.00    -0.287 NA
ATOM     12  H   UNL     1       6.400  -6.029  27.900  0.00  0.00    +0.122 HD
ATOM     13  H   UNL     1       7.816  -6.813  27.910  0.00  0.00    +0.122 HD
ENDBRANCH   1  11
BRANCH   3  14
ATOM     14  O   UNL     1       9.928  -3.333  24.135  0.00  0.00    -0.377 OA
ATOM     15  H   UNL     1      10.602  -3.321  24.836  0.00  0.00    +0.211 HD
ENDBRANCH   3  14
TORSDOF 2
ENDMDL
MODEL 7
REMARK VINA RESULT:      -4.8      2.860      4.272
REMARK  Name = 
REMARK  2 active torsions:
REMARK  status: ('A' for Active; 'I' for Inactive)
REMARK    1  A    between atoms: N_1  and  C_2
REMARK    2  A    between atoms: C_11  and  O_13
REMARK                            x       y       z     vdW  Elec       q    Type
REMARK                         _______ _______ _______ _____ _____    ______ ____
ROOT
ATOM      1  C   UNL     1       9.657  -1.690  23.010  0.00  0.00    +0.304 C 
ATOM      2  S   UNL     1      10.068  -0.474  24.260  0.00  0.00    -0.066 S 
ATOM      3  C   UNL     1       8.750  -0.972  25.366  0.00  0.00    +0.210 C 
ATOM      4  C   UNL     1       8.606  -2.466  25.513  0.00  0.00    +0.033 A 
ATOM      5  C   UNL     1       9.132  -3.374  24.582  0.00  0.00    +0.130 A 
ATOM      6  C   UNL     1       9.005  -4.752  24.785  0.00  0.00    +0.046 A 
ATOM      7  C   UNL     1       8.317  -5.243  25.894  0.00  0.00    +0.004 A 
ATOM      8  C   UNL     1       7.753  -4.356  26.805  0.00  0.00    +0.001 A 
ATOM      9  C   UNL     1       7.893  -2.982  26.613  0.00  0.00    +0.010 A 
ATOM     10  O   UNL     1       9.836  -3.026  23.460  0.00  0.00    -0.465 OA
ENDROOT
BRANCH   1  11
ATOM     11  N   UNL     1      10.529  -1.479  21.874  0.00  0.00    -0.287 NA
ATOM     12  H   UNL     1      10.878  -2.401  21.617  0.00  0.00    +0.122 HD
ATOM     13  H   UNL     1       9.935  -1.191  21.100  0.00  0.00    +0.122 HD
ENDBRANCH   1  11
BRANCH   3  14
ATOM     14  O   UNL     1       8.985  -0.394  26.642  0.00  0.00    -0.377 OA
ATOM     15  H   UNL     1       8.112  -0.060  26.911  0.00  0.00    +0.211 HD
ENDBRANCH   3  14
TORSDOF 2
ENDMDL
MODEL 8
REMARK VINA RESULT:      -4.8      4.070      4.791
REMARK  Name = 
REMARK  2 active torsions:
REMARK  status: ('A' for Active; 'I' for Inactive)
REMARK    1  A    between atoms: N_1  and  C_2
REMARK    2  A    between atoms: C_11  and  O_13
REMARK                            x       y       z     vdW  Elec       q    Type
REMARK                         _______ _______ _______ _____ _____    ______ ____
ROOT
ATOM      1  C   UNL     1       9.462   1.414  22.605  0.00  0.00    +0.304 C 
ATOM      2  S   UNL     1       9.332   2.256  24.181  0.00  0.00    -0.066 S 
ATOM      3  C   UNL     1       8.301   0.992  24.921  0.00  0.00    +0.210 C 
ATOM      4  C   UNL     1       8.760  -0.415  24.637  0.00  0.00    +0.033 A 
ATOM      5  C   UNL     1       9.622  -0.733  23.577  0.00  0.00    +0.130 A 
ATOM      6  C   UNL     1      10.050  -2.051  23.381  0.00  0.00    +0.046 A 
ATOM      7  C   UNL     1       9.594  -3.074  24.212  0.00  0.00    +0.004 A 
ATOM      8  C   UNL     1       8.706  -2.782  25.242  0.00  0.00    +0.001 A 
ATOM      9  C   UNL     1       8.292  -1.467  25.449  0.00  0.00    +0.010 A 
ATOM     10  O   UNL     1      10.150   0.174  22.698  0.00  0.00    -0.465 OA
ENDROOT
BRANCH   1  11
ATOM     11  N   UNL     1      10.199   2.268  21.698  0.00  0.00    -0.287 NA
ATOM     12  H   UNL     1      11.161   2.266  22.033  0.00  0.00    +0.122 HD
ATOM     13  H   UNL     1      10.226   1.789  20.801  0.00  0.00    +0.122 HD
ENDBRANCH   1  11
BRANCH   3  14
ATOM     14  O   UNL     1       8.262   1.203  26.325  0.00  0.00    -0.377 OA
ATOM     15  H   UNL     1       8.045   0.326  26.686  0.00  0.00    +0.211 HD
ENDBRANCH   3  14
TORSDOF 2
ENDMDL
MODEL 9
REMARK VINA RESULT:      -4.8      3.704      4.748
REMARK  Name = 
REMARK  2 active torsions:
REMARK  status: ('A' for Active; 'I' for Inactive)
REMARK    1  A    between atoms: N_1  and  C_2
REMARK    2  A    between atoms: C_11  and  O_13
REMARK                            x       y       z     vdW  Elec       q    Type
REMARK                         _______ _______ _______ _____ _____    ______ ____
ROOT
ATOM      1  C   UNL     1      10.130   1.302  24.018  0.00  0.00    +0.304 C 
ATOM      2  S   UNL     1       9.902   0.786  22.318  0.00  0.00    -0.066 S 
ATOM      3  C   UNL     1      10.316  -0.926  22.644  0.00  0.00    +0.210 C 
ATOM      4  C   UNL     1       9.681  -1.482  23.893  0.00  0.00    +0.033 A 
ATOM      5  C   UNL     1       9.181  -0.666  24.918  0.00  0.00    +0.130 A 
ATOM      6  C   UNL     1       8.564  -1.231  26.039  0.00  0.00    +0.046 A 
ATOM      7  C   UNL     1       8.475  -2.616  26.174  0.00  0.00    +0.004 A 
ATOM      8  C   UNL     1       9.003  -3.442  25.187  0.00  0.00    +0.001 A 
ATOM      9  C   UNL     1       9.603  -2.879  24.060  0.00  0.00    +0.010 A 
ATOM     10  O   UNL     1       9.196   0.704  24.906  0.00  0.00    -0.465 OA
ENDROOT
BRANCH   1  11
ATOM     11  N   UNL     1       9.951   2.737  24.080  0.00  0.00    -0.287 NA
ATOM     12  H   UNL     1       9.011   2.885  24.445  0.00  0.00    +0.122 HD
ATOM     13  H   UNL     1      10.578   3.079  24.805  0.00  0.00    +0.122 HD
ENDBRANCH   1  11
BRANCH   3  14
ATOM     14  O   UNL     1       9.923  -1.709  21.526  0.00  0.00    -0.377 OA
ATOM     15  H   UNL     1      10.579  -1.486  20.843  0.00  0.00    +0.211 HD
ENDBRANCH   3  14
TORSDOF 2
ENDMDL
