MODEL 1
REMARK VINA RESULT:      -5.8      0.000      0.000
REMARK  Name = 
REMARK  3 active torsions:
REMARK  status: ('A' for Active; 'I' for Inactive)
REMARK    1  A    between atoms: C_1  and  C_2
REMARK    2  A    between atoms: C_7  and  C_8
REMARK    3  A    between atoms: N_13  and  N_14
REMARK                            x       y       z     vdW  Elec       q    Type
REMARK                         _______ _______ _______ _____ _____    ______ ____
ROOT
ATOM      1  C   UNL     1      10.375   1.958  23.539  0.00  0.00    +0.180 A 
ATOM      2  N   UNL     1       9.831   1.327  22.441  0.00  0.00    -0.225 N 
ATOM      3  C   UNL     1       9.936  -0.030  22.683  0.00  0.00    +0.193 A 
ATOM      4  S   UNL     1       9.479  -1.306  21.731  0.00  0.00    -0.010 S 
ATOM      5  N   UNL     1      10.525  -0.134  23.932  0.00  0.00    -0.253 N 
ATOM      6  H   UNL     1      10.768  -0.987  24.426  0.00  0.00    +0.191 HD
ATOM      7  N   UNL     1      10.790   1.108  24.447  0.00  0.00    -0.152 NA
ENDROOT
BRANCH   1  10
ATOM      8  C   UNL     1       8.112   3.712  24.618  0.00  0.00    +0.044 C 
ATOM      9  C   UNL     1       9.454   4.246  24.195  0.00  0.00    -0.040 A 
ATOM     10  C   UNL     1      10.501   3.439  23.677  0.00  0.00    +0.024 A 
ATOM     11  C   UNL     1      11.716   4.059  23.343  0.00  0.00    +0.012 A 
ATOM     12  C   UNL     1      11.893   5.440  23.457  0.00  0.00    +0.001 A 
ATOM     13  C   UNL     1      10.860   6.231  23.937  0.00  0.00    +0.000 A 
ATOM     14  C   UNL     1       9.655   5.637  24.307  0.00  0.00    +0.004 A 
ENDBRANCH   1  10
BRANCH   2  15
ATOM     15  N   UNL     1       9.222   1.884  21.313  0.00  0.00    -0.295 N 
ATOM     16  H   UNL     1       9.034   1.120  20.661  0.00  0.00    +0.163 HD
ATOM     17  H   UNL     1       9.929   2.461  20.846  0.00  0.00    +0.163 HD
ENDBRANCH   2  15
TORSDOF 2
ENDMDL
MODEL 2
REMARK VINA RESULT:      -5.3      3.316      4.294
REMARK  Name = 
REMARK  3 active torsions:
REMARK  status: ('A' for Active; 'I' for Inactive)
REMARK    1  A    between atoms: C_1  and  C_2
REMARK    2  A    between atoms: C_7  and  C_8
REMARK    3  A    between atoms: N_13  and  N_14
REMARK                            x       y       z     vdW  Elec       q    Type
REMARK                         _______ _______ _______ _____ _____    ______ ____
ROOT
ATOM      1  C   UNL     1       8.283  -1.348  22.894  0.00  0.00    +0.180 A 
ATOM      2  N   UNL     1       6.941  -1.489  23.175  0.00  0.00    -0.225 N 
ATOM      3  C   UNL     1       6.616  -2.796  22.863  0.00  0.00    +0.193 A 
ATOM      4  S   UNL     1       5.154  -3.568  22.963  0.00  0.00    -0.010 S 
ATOM      5  N   UNL     1       7.798  -3.372  22.426  0.00  0.00    -0.253 N 
ATOM      6  H   UNL     1       7.931  -4.324  22.099  0.00  0.00    +0.191 HD
ATOM      7  N   UNL     1       8.820  -2.459  22.452  0.00  0.00    -0.152 NA
ENDROOT
BRANCH   1  10
ATOM      8  C   UNL     1       9.345  -0.381  25.595  0.00  0.00    +0.044 C 
ATOM      9  C   UNL     1       9.547   0.363  24.303  0.00  0.00    -0.040 A 
ATOM     10  C   UNL     1       9.042  -0.071  23.050  0.00  0.00    +0.024 A 
ATOM     11  C   UNL     1       9.323   0.704  21.914  0.00  0.00    +0.012 A 
ATOM     12  C   UNL     1      10.034   1.904  21.999  0.00  0.00    +0.001 A 
ATOM     13  C   UNL     1      10.503   2.341  23.229  0.00  0.00    +0.000 A 
ATOM     14  C   UNL     1      10.267   1.575  24.367  0.00  0.00    +0.004 A 
ENDBRANCH   1  10
BRANCH   2  15
ATOM     15  N   UNL     1       6.051  -0.563  23.727  0.00  0.00    -0.295 N 
ATOM     16  H   UNL     1       5.379  -0.316  22.998  0.00  0.00    +0.163 HD
ATOM     17  H   UNL     1       6.583   0.296  23.898  0.00  0.00    +0.163 HD
ENDBRANCH   2  15
TORSDOF 2
ENDMDL
MODEL 3
REMARK VINA RESULT:      -5.3      4.223      7.463
REMARK  Name = 
REMARK  3 active torsions:
REMARK  status: ('A' for Active; 'I' for Inactive)
REMARK    1  A    between atoms: C_1  and  C_2
REMARK    2  A    between atoms: C_7  and  C_8
REMARK    3  A    between atoms: N_13  and  N_14
REMARK                            x       y       z     vdW  Elec       q    Type
REMARK                         _______ _______ _______ _____ _____    ______ ____
ROOT
ATOM      1  C   UNL     1       7.629  -1.588  22.782  0.00  0.00    +0.180 A 
ATOM      2  N   UNL     1       8.690  -0.928  22.201  0.00  0.00    -0.225 N 
ATOM      3  C   UNL     1       8.529   0.410  22.508  0.00  0.00    +0.193 A 
ATOM      4  S   UNL     1       9.467   1.707  22.081  0.00  0.00    -0.010 S 
ATOM      5  N   UNL     1       7.379   0.473  23.278  0.00  0.00    -0.253 N 
ATOM      6  H   UNL     1       6.949   1.304  23.669  0.00  0.00    +0.191 HD
ATOM      7  N   UNL     1       6.835  -0.775  23.436  0.00  0.00    -0.152 NA
ENDROOT
BRANCH   1  10
ATOM      8  C   UNL     1       9.076  -3.639  24.530  0.00  0.00    +0.044 C 
ATOM      9  C   UNL     1       8.051  -4.003  23.490  0.00  0.00    -0.040 A 
ATOM     10  C   UNL     1       7.389  -3.057  22.664  0.00  0.00    +0.024 A 
ATOM     11  C   UNL     1       6.433  -3.526  21.749  0.00  0.00    +0.012 A 
ATOM     12  C   UNL     1       6.163  -4.889  21.600  0.00  0.00    +0.001 A 
ATOM     13  C   UNL     1       6.831  -5.814  22.389  0.00  0.00    +0.000 A 
ATOM     14  C   UNL     1       7.761  -5.373  23.328  0.00  0.00    +0.004 A 
ENDBRANCH   1  10
BRANCH   2  15
ATOM     15  N   UNL     1       9.776  -1.452  21.493  0.00  0.00    -0.295 N 
ATOM     16  H   UNL     1      10.279  -2.076  22.127  0.00  0.00    +0.163 HD
ATOM     17  H   UNL     1      10.422  -0.674  21.320  0.00  0.00    +0.163 HD
ENDBRANCH   2  15
TORSDOF 2
ENDMDL
MODEL 4
REMARK VINA RESULT:      -5.3      4.210      5.230
REMARK  Name = 
REMARK  3 active torsions:
REMARK  status: ('A' for Active; 'I' for Inactive)
REMARK    1  A    between atoms: C_1  and  C_2
REMARK    2  A    between atoms: C_7  and  C_8
REMARK    3  A    between atoms: N_13  and  N_14
REMARK                            x       y       z     vdW  Elec       q    Type
REMARK                         _______ _______ _______ _____ _____    ______ ____
ROOT
ATOM      1  C   UNL     1       8.979  -2.565  23.979  0.00  0.00    +0.180 A 
ATOM      2  N   UNL     1       7.734  -2.964  24.417  0.00  0.00    -0.225 N 
ATOM      3  C   UNL     1       7.898  -4.227  24.953  0.00  0.00    +0.193 A 
ATOM      4  S   UNL     1       6.771  -5.240  25.621  0.00  0.00    -0.010 S 
ATOM      5  N   UNL     1       9.248  -4.507  24.821  0.00  0.00    -0.253 N 
ATOM      6  H   UNL     1       9.727  -5.359  25.096  0.00  0.00    +0.191 HD
ATOM      7  N   UNL     1       9.902  -3.466  24.215  0.00  0.00    -0.152 NA
ENDROOT
BRANCH   1  10
ATOM      8  C   UNL     1       9.839  -0.049  25.492  0.00  0.00    +0.044 C 
ATOM      9  C   UNL     1       9.666  -0.108  23.998  0.00  0.00    -0.040 A 
ATOM     10  C   UNL     1       9.250  -1.267  23.293  0.00  0.00    +0.024 A 
ATOM     11  C   UNL     1       9.153  -1.196  21.894  0.00  0.00    +0.012 A 
ATOM     12  C   UNL     1       9.400  -0.010  21.198  0.00  0.00    +0.001 A 
ATOM     13  C   UNL     1       9.780   1.130  21.892  0.00  0.00    +0.000 A 
ATOM     14  C   UNL     1       9.916   1.078  23.277  0.00  0.00    +0.004 A 
ENDBRANCH   1  10
BRANCH   2  15
ATOM     15  N   UNL     1       6.527  -2.258  24.411  0.00  0.00    -0.295 N 
ATOM     16  H   UNL     1       6.684  -1.393  23.891  0.00  0.00    +0.163 HD
ATOM     17  H   UNL     1       6.352  -1.958  25.376  0.00  0.00    +0.163 HD
ENDBRANCH   2  15
TORSDOF 2
ENDMDL
MODEL 5
REMARK VINA RESULT:      -5.2      3.135      5.017
REMARK  Name = 
REMARK  3 active torsions:
REMARK  status: ('A' for Active; 'I' for Inactive)
REMARK    1  A    between atoms: C_1  and  C_2
REMARK    2  A    between atoms: C_7  and  C_8
REMARK    3  A    between atoms: N_13  and  N_14
REMARK                            x       y       z     vdW  Elec       q    Type
REMARK                         _______ _______ _______ _____ _____    ______ ____
ROOT
ATOM      1  C   UNL     1       9.316   2.862  23.778  0.00  0.00    +0.180 A 
ATOM      2  N   UNL     1      10.167   3.939  23.658  0.00  0.00    -0.225 N 
ATOM      3  C   UNL     1       9.622   4.950  24.428  0.00  0.00    +0.193 A 
ATOM      4  S   UNL     1      10.168   6.495  24.674  0.00  0.00    -0.010 S 
ATOM      5  N   UNL     1       8.475   4.408  24.985  0.00  0.00    -0.253 N 
ATOM      6  H   UNL     1       7.813   4.873  25.597  0.00  0.00    +0.191 HD
ATOM      7  N   UNL     1       8.302   3.113  24.570  0.00  0.00    -0.152 NA
ENDROOT
BRANCH   1  10
ATOM      8  C   UNL     1      10.808   0.506  25.037  0.00  0.00    +0.044 C 
ATOM      9  C   UNL     1      10.185   0.465  23.668  0.00  0.00    -0.040 A 
ATOM     10  C   UNL     1       9.508   1.560  23.072  0.00  0.00    +0.024 A 
ATOM     11  C   UNL     1       8.949   1.382  21.796  0.00  0.00    +0.012 A 
ATOM     12  C   UNL     1       9.091   0.185  21.091  0.00  0.00    +0.001 A 
ATOM     13  C   UNL     1       9.778  -0.875  21.664  0.00  0.00    +0.000 A 
ATOM     14  C   UNL     1      10.314  -0.737  22.942  0.00  0.00    +0.004 A 
ENDBRANCH   1  10
BRANCH   2  15
ATOM     15  N   UNL     1      11.381   4.035  22.972  0.00  0.00    -0.295 N 
ATOM     16  H   UNL     1      12.096   3.598  23.556  0.00  0.00    +0.163 HD
ATOM     17  H   UNL     1      11.631   5.029  22.947  0.00  0.00    +0.163 HD
ENDBRANCH   2  15
TORSDOF 2
ENDMDL
MODEL 6
REMARK VINA RESULT:      -5.2      5.532      6.681
REMARK  Name = 
REMARK  3 active torsions:
REMARK  status: ('A' for Active; 'I' for Inactive)
REMARK    1  A    between atoms: C_1  and  C_2
REMARK    2  A    between atoms: C_7  and  C_8
REMARK    3  A    between atoms: N_13  and  N_14
REMARK                            x       y       z     vdW  Elec       q    Type
REMARK                         _______ _______ _______ _____ _____    ______ ____
ROOT
ATOM      1  C   UNL     1       8.366  -3.775  25.712  0.00  0.00    +0.180 A 
ATOM      2  N   UNL     1       7.037  -4.126  25.612  0.00  0.00    -0.225 N 
ATOM      3  C   UNL     1       6.884  -5.280  26.356  0.00  0.00    +0.193 A 
ATOM      4  S   UNL     1       5.527  -6.196  26.609  0.00  0.00    -0.010 S 
ATOM      5  N   UNL     1       8.139  -5.547  26.879  0.00  0.00    -0.253 N 
ATOM      6  H   UNL     1       8.404  -6.331  27.466  0.00  0.00    +0.191 HD
ATOM      7  N   UNL     1       9.044  -4.604  26.468  0.00  0.00    -0.152 NA
ENDROOT
BRANCH   1  10
ATOM      8  C   UNL     1       8.305  -0.953  26.892  0.00  0.00    +0.044 C 
ATOM      9  C   UNL     1       8.961  -1.297  25.582  0.00  0.00    -0.040 A 
ATOM     10  C   UNL     1       8.977  -2.601  25.021  0.00  0.00    +0.024 A 
ATOM     11  C   UNL     1       9.647  -2.793  23.802  0.00  0.00    +0.012 A 
ATOM     12  C   UNL     1      10.242  -1.732  23.114  0.00  0.00    +0.001 A 
ATOM     13  C   UNL     1      10.201  -0.454  23.651  0.00  0.00    +0.000 A 
ATOM     14  C   UNL     1       9.572  -0.241  24.874  0.00  0.00    +0.004 A 
ENDBRANCH   1  10
BRANCH   2  15
ATOM     15  N   UNL     1       5.992  -3.458  24.964  0.00  0.00    -0.295 N 
ATOM     16  H   UNL     1       5.117  -3.828  25.340  0.00  0.00    +0.163 HD
ATOM     17  H   UNL     1       6.008  -3.760  23.985  0.00  0.00    +0.163 HD
ENDBRANCH   2  15
TORSDOF 2
ENDMDL
MODEL 7
REMARK VINA RESULT:      -5.1      3.570      5.929
REMARK  Name = 
REMARK  3 active torsions:
REMARK  status: ('A' for Active; 'I' for Inactive)
REMARK    1  A    between atoms: C_1  and  C_2
REMARK    2  A    between atoms: C_7  and  C_8
REMARK    3  A    between atoms: N_13  and  N_14
REMARK                            x       y       z     vdW  Elec       q    Type
REMARK                         _______ _______ _______ _____ _____    ______ ____
ROOT
ATOM      1  C   UNL     1       8.484   0.349  22.514  0.00  0.00    +0.180 A 
ATOM      2  N   UNL     1       7.474   1.253  22.763  0.00  0.00    -0.225 N 
ATOM      3  C   UNL     1       7.849   2.432  22.148  0.00  0.00    +0.193 A 
ATOM      4  S   UNL     1       7.065   3.891  22.104  0.00  0.00    -0.010 S 
ATOM      5  N   UNL     1       9.065   2.159  21.544  0.00  0.00    -0.253 N 
ATOM      6  H   UNL     1       9.643   2.801  21.012  0.00  0.00    +0.191 HD
ATOM      7  N   UNL     1       9.443   0.863  21.782  0.00  0.00    -0.152 NA
ENDROOT
BRANCH   1  10
ATOM      8  C   UNL     1       9.706  -0.388  25.220  0.00  0.00    +0.044 C 
ATOM      9  C   UNL     1       9.056  -1.384  24.298  0.00  0.00    -0.040 A 
ATOM     10  C   UNL     1       8.503  -1.051  23.034  0.00  0.00    +0.024 A 
ATOM     11  C   UNL     1       7.902  -2.072  22.280  0.00  0.00    +0.012 A 
ATOM     12  C   UNL     1       7.886  -3.398  22.719  0.00  0.00    +0.001 A 
ATOM     13  C   UNL     1       8.451  -3.726  23.942  0.00  0.00    +0.000 A 
ATOM     14  C   UNL     1       9.024  -2.728  24.725  0.00  0.00    +0.004 A 
ENDBRANCH   1  10
BRANCH   2  15
ATOM     15  N   UNL     1       6.262   1.062  23.435  0.00  0.00    -0.295 N 
ATOM     16  H   UNL     1       5.550   0.872  22.728  0.00  0.00    +0.163 HD
ATOM     17  H   UNL     1       6.000   1.967  23.839  0.00  0.00    +0.163 HD
ENDBRANCH   2  15
TORSDOF 2
ENDMDL
MODEL 8
REMARK VINA RESULT:      -5.1      4.544      5.679
REMARK  Name = 
REMARK  3 active torsions:
REMARK  status: ('A' for Active; 'I' for Inactive)
REMARK    1  A    between atoms: C_1  and  C_2
REMARK    2  A    between atoms: C_7  and  C_8
REMARK    3  A    between atoms: N_13  and  N_14
REMARK                            x       y       z     vdW  Elec       q    Type
REMARK                         _______ _______ _______ _____ _____    ______ ____
ROOT
ATOM      1  C   UNL     1       8.518  -3.325  23.803  0.00  0.00    +0.180 A 
ATOM      2  N   UNL     1       7.392  -3.507  23.029  0.00  0.00    -0.225 N 
ATOM      3  C   UNL     1       7.179  -4.871  22.970  0.00  0.00    +0.193 A 
ATOM      4  S   UNL     1       5.996  -5.718  22.177  0.00  0.00    -0.010 S 
ATOM      5  N   UNL     1       8.189  -5.432  23.735  0.00  0.00    -0.253 N 
ATOM      6  H   UNL     1       8.354  -6.419  23.903  0.00  0.00    +0.191 HD
ATOM      7  N   UNL     1       9.009  -4.459  24.242  0.00  0.00    -0.152 NA
ENDROOT
BRANCH   1  10
ATOM      8  C   UNL     1       8.050  -1.835  26.433  0.00  0.00    +0.044 C 
ATOM      9  C   UNL     1       8.922  -1.316  25.323  0.00  0.00    -0.040 A 
ATOM     10  C   UNL     1       9.129  -1.994  24.094  0.00  0.00    +0.024 A 
ATOM     11  C   UNL     1       9.989  -1.412  23.148  0.00  0.00    +0.012 A 
ATOM     12  C   UNL     1      10.594  -0.172  23.369  0.00  0.00    +0.001 A 
ATOM     13  C   UNL     1      10.369   0.503  24.560  0.00  0.00    +0.000 A 
ATOM     14  C   UNL     1       9.546  -0.067  25.528  0.00  0.00    +0.004 A 
ENDBRANCH   1  10
BRANCH   2  15
ATOM     15  N   UNL     1       6.553  -2.550  22.450  0.00  0.00    -0.295 N 
ATOM     16  H   UNL     1       5.984  -3.029  21.751  0.00  0.00    +0.163 HD
ATOM     17  H   UNL     1       7.152  -1.914  21.913  0.00  0.00    +0.163 HD
ENDBRANCH   2  15
TORSDOF 2
ENDMDL
MODEL 9
REMARK VINA RESULT:      -5.1      3.439      4.519
REMARK  Name = 
REMARK  3 active torsions:
REMARK  status: ('A' for Active; 'I' for Inactive)
REMARK    1  A    between atoms: C_1  and  C_2
REMARK    2  A    between atoms: C_7  and  C_8
REMARK    3  A    between atoms: N_13  and  N_14
REMARK                            x       y       z     vdW  Elec       q    Type
REMARK                         _______ _______ _______ _____ _____    ______ ____
ROOT
ATOM      1  C   UNL     1       9.293  -1.774  24.031  0.00  0.00    +0.180 A 
ATOM      2  N   UNL     1       8.047  -2.118  24.507  0.00  0.00    -0.225 N 
ATOM      3  C   UNL     1       8.077  -3.484  24.720  0.00  0.00    +0.193 A 
ATOM      4  S   UNL     1       6.879  -4.489  25.267  0.00  0.00    -0.010 S 
ATOM      5  N   UNL     1       9.358  -3.880  24.375  0.00  0.00    -0.253 N 
ATOM      6  H   UNL     1       9.734  -4.822  24.392  0.00  0.00    +0.191 HD
ATOM      7  N   UNL     1      10.098  -2.807  23.949  0.00  0.00    -0.152 NA
ENDROOT
BRANCH   1  10
ATOM      8  C   UNL     1       9.183  -0.804  21.132  0.00  0.00    +0.044 C 
ATOM      9  C   UNL     1       9.615   0.059  22.286  0.00  0.00    -0.040 A 
ATOM     10  C   UNL     1       9.685  -0.390  23.630  0.00  0.00    +0.024 A 
ATOM     11  C   UNL     1      10.080   0.525  24.619  0.00  0.00    +0.012 A 
ATOM     12  C   UNL     1      10.452   1.835  24.303  0.00  0.00    +0.001 A 
ATOM     13  C   UNL     1      10.409   2.264  22.985  0.00  0.00    +0.000 A 
ATOM     14  C   UNL     1       9.989   1.386  21.989  0.00  0.00    +0.004 A 
ENDBRANCH   1  10
BRANCH   2  15
ATOM     15  N   UNL     1       6.954  -1.296  24.801  0.00  0.00    -0.295 N 
ATOM     16  H   UNL     1       6.160  -1.907  24.999  0.00  0.00    +0.163 HD
ATOM     17  H   UNL     1       6.705  -0.811  23.932  0.00  0.00    +0.163 HD
ENDBRANCH   2  15
TORSDOF 2
ENDMDL
