MODEL 1
REMARK VINA RESULT:      -6.5      0.000      0.000
REMARK  Name = 
REMARK  5 active torsions:
REMARK  status: ('A' for Active; 'I' for Inactive)
REMARK    1  A    between atoms: C_1  and  C_2
REMARK    2  A    between atoms: C_3  and  C_4
REMARK    3  A    between atoms: N_7  and  S_8
REMARK    4  A    between atoms: S_8  and  C_11
REMARK    5  A    between atoms: C_14  and  N_15
REMARK                            x       y       z     vdW  Elec       q    Type
REMARK                         _______ _______ _______ _____ _____    ______ ____
ROOT
ATOM      1  S   UNL     1       9.082  -2.947  24.323  0.00  0.00    +0.076 S 
ATOM      2  O   UNL     1      10.274  -3.766  24.231  0.00  0.00    -0.150 OA
ATOM      3  O   UNL     1       8.487  -2.680  25.614  0.00  0.00    -0.150 OA
ENDROOT
BRANCH   1   8
ATOM      4  C   UNL     1       4.958  -6.525  25.743  0.00  0.00    +0.088 C 
ATOM      5  C   UNL     1       5.399  -5.317  25.026  0.00  0.00    +0.127 A 
ATOM      6  O   UNL     1       6.659  -5.333  24.491  0.00  0.00    -0.429 OA
ATOM      7  C   UNL     1       6.823  -4.076  23.986  0.00  0.00    +0.308 A 
ATOM      8  N   UNL     1       7.968  -3.667  23.287  0.00  0.00    -0.169 N 
ATOM      9  H   UNL     1       8.448  -4.429  22.819  0.00  0.00    +0.178 HD
ATOM     10  N   UNL     1       5.766  -3.305  24.092  0.00  0.00    -0.199 NA
ATOM     11  C   UNL     1       4.835  -4.095  24.724  0.00  0.00    +0.081 A 
ATOM     12  C   UNL     1       3.464  -3.593  24.957  0.00  0.00    +0.069 C 
ENDBRANCH   1   8
BRANCH   1  13
ATOM     13  C   UNL     1       9.425  -1.408  23.520  0.00  0.00    +0.109 A 
ATOM     14  C   UNL     1       9.195  -1.270  22.151  0.00  0.00    +0.030 A 
ATOM     15  C   UNL     1       9.455  -0.044  21.536  0.00  0.00    +0.024 A 
ATOM     16  C   UNL     1       9.907   1.049  22.282  0.00  0.00    +0.025 A 
ATOM     17  C   UNL     1      10.226   0.862  23.631  0.00  0.00    +0.024 A 
ATOM     18  C   UNL     1       9.973  -0.358  24.259  0.00  0.00    +0.030 A 
BRANCH  16  19
ATOM     19  N   UNL     1      10.249   2.245  21.640  0.00  0.00    -0.358 N 
ATOM     20  H   UNL     1      11.058   2.159  21.031  0.00  0.00    +0.142 HD
ATOM     21  H   UNL     1       9.466   2.689  21.170  0.00  0.00    +0.142 HD
ENDBRANCH  16  19
ENDBRANCH   1  13
TORSDOF 3
ENDMDL
MODEL 2
REMARK VINA RESULT:      -6.5      1.788      2.043
REMARK  Name = 
REMARK  5 active torsions:
REMARK  status: ('A' for Active; 'I' for Inactive)
REMARK    1  A    between atoms: C_1  and  C_2
REMARK    2  A    between atoms: C_3  and  C_4
REMARK    3  A    between atoms: N_7  and  S_8
REMARK    4  A    between atoms: S_8  and  C_11
REMARK    5  A    between atoms: C_14  and  N_15
REMARK                            x       y       z     vdW  Elec       q    Type
REMARK                         _______ _______ _______ _____ _____    ______ ____
ROOT
ATOM      1  S   UNL     1       9.303  -1.830  23.392  0.00  0.00    +0.076 S 
ATOM      2  O   UNL     1      10.449  -2.630  23.006  0.00  0.00    -0.150 OA
ATOM      3  O   UNL     1       8.664  -2.054  24.670  0.00  0.00    -0.150 OA
ENDROOT
BRANCH   1   8
ATOM      4  C   UNL     1       6.331  -6.446  22.094  0.00  0.00    +0.088 C 
ATOM      5  C   UNL     1       6.378  -4.996  22.347  0.00  0.00    +0.127 A 
ATOM      6  O   UNL     1       7.499  -4.325  21.940  0.00  0.00    -0.429 OA
ATOM      7  C   UNL     1       7.306  -3.050  22.385  0.00  0.00    +0.308 A 
ATOM      8  N   UNL     1       8.199  -1.999  22.132  0.00  0.00    -0.169 N 
ATOM      9  H   UNL     1       8.739  -2.125  21.282  0.00  0.00    +0.178 HD
ATOM     10  N   UNL     1       6.147  -2.847  22.966  0.00  0.00    -0.199 NA
ATOM     11  C   UNL     1       5.527  -4.073  22.920  0.00  0.00    +0.081 A 
ATOM     12  C   UNL     1       4.144  -4.231  23.419  0.00  0.00    +0.069 C 
ENDBRANCH   1   8
BRANCH   1  13
ATOM     13  C   UNL     1       9.772  -0.128  23.274  0.00  0.00    +0.109 A 
ATOM     14  C   UNL     1       9.670   0.539  22.054  0.00  0.00    +0.030 A 
ATOM     15  C   UNL     1      10.028   1.887  21.982  0.00  0.00    +0.024 A 
ATOM     16  C   UNL     1      10.451   2.577  23.123  0.00  0.00    +0.025 A 
ATOM     17  C   UNL     1      10.642   1.866  24.312  0.00  0.00    +0.024 A 
ATOM     18  C   UNL     1      10.289   0.519  24.398  0.00  0.00    +0.030 A 
BRANCH  16  19
ATOM     19  N   UNL     1      10.892   3.902  23.019  0.00  0.00    -0.358 N 
ATOM     20  H   UNL     1      11.278   4.268  23.885  0.00  0.00    +0.142 HD
ATOM     21  H   UNL     1      11.512   4.060  22.231  0.00  0.00    +0.142 HD
ENDBRANCH  16  19
ENDBRANCH   1  13
TORSDOF 3
ENDMDL
MODEL 3
REMARK VINA RESULT:      -6.4      2.530      3.391
REMARK  Name = 
REMARK  5 active torsions:
REMARK  status: ('A' for Active; 'I' for Inactive)
REMARK    1  A    between atoms: C_1  and  C_2
REMARK    2  A    between atoms: C_3  and  C_4
REMARK    3  A    between atoms: N_7  and  S_8
REMARK    4  A    between atoms: S_8  and  C_11
REMARK    5  A    between atoms: C_14  and  N_15
REMARK                            x       y       z     vdW  Elec       q    Type
REMARK                         _______ _______ _______ _____ _____    ______ ____
ROOT
ATOM      1  S   UNL     1      10.199   0.110  24.418  0.00  0.00    +0.076 S 
ATOM      2  O   UNL     1      11.571   0.553  24.568  0.00  0.00    -0.150 OA
ATOM      3  O   UNL     1       9.457  -0.345  25.573  0.00  0.00    -0.150 OA
ENDROOT
BRANCH   1   8
ATOM      4  C   UNL     1       9.165  -5.395  25.095  0.00  0.00    +0.088 C 
ATOM      5  C   UNL     1       8.940  -4.143  24.353  0.00  0.00    +0.127 A 
ATOM      6  O   UNL     1      10.000  -3.284  24.239  0.00  0.00    -0.429 OA
ATOM      7  C   UNL     1       9.480  -2.194  23.603  0.00  0.00    +0.308 A 
ATOM      8  N   UNL     1      10.245  -1.081  23.228  0.00  0.00    -0.169 N 
ATOM      9  H   UNL     1      11.223  -1.299  23.066  0.00  0.00    +0.178 HD
ATOM     10  N   UNL     1       8.223  -2.320  23.249  0.00  0.00    -0.199 NA
ATOM     11  C   UNL     1       7.871  -3.574  23.691  0.00  0.00    +0.081 A 
ATOM     12  C   UNL     1       6.526  -4.118  23.406  0.00  0.00    +0.069 C 
ENDBRANCH   1   8
BRANCH   1  13
ATOM     13  C   UNL     1       9.297   1.413  23.632  0.00  0.00    +0.109 A 
ATOM     14  C   UNL     1       8.822   1.245  22.332  0.00  0.00    +0.030 A 
ATOM     15  C   UNL     1       8.097   2.277  21.732  0.00  0.00    +0.024 A 
ATOM     16  C   UNL     1       7.816   3.455  22.433  0.00  0.00    +0.025 A 
ATOM     17  C   UNL     1       8.386   3.643  23.695  0.00  0.00    +0.024 A 
ATOM     18  C   UNL     1       9.113   2.621  24.306  0.00  0.00    +0.030 A 
BRANCH  16  19
ATOM     19  N   UNL     1       7.167   4.516  21.790  0.00  0.00    -0.358 N 
ATOM     20  H   UNL     1       6.258   4.735  22.189  0.00  0.00    +0.142 HD
ATOM     21  H   UNL     1       7.747   5.344  21.692  0.00  0.00    +0.142 HD
ENDBRANCH  16  19
ENDBRANCH   1  13
TORSDOF 3
ENDMDL
MODEL 4
REMARK VINA RESULT:      -6.3      2.377      6.210
REMARK  Name = 
REMARK  5 active torsions:
REMARK  status: ('A' for Active; 'I' for Inactive)
REMARK    1  A    between atoms: C_1  and  C_2
REMARK    2  A    between atoms: C_3  and  C_4
REMARK    3  A    between atoms: N_7  and  S_8
REMARK    4  A    between atoms: S_8  and  C_11
REMARK    5  A    between atoms: C_14  and  N_15
REMARK                            x       y       z     vdW  Elec       q    Type
REMARK                         _______ _______ _______ _____ _____    ______ ____
ROOT
ATOM      1  S   UNL     1       6.525  -2.828  22.620  0.00  0.00    +0.076 S 
ATOM      2  O   UNL     1       7.741  -2.797  21.832  0.00  0.00    -0.150 OA
ATOM      3  O   UNL     1       5.289  -3.283  22.023  0.00  0.00    -0.150 OA
ENDROOT
BRANCH   1   8
ATOM      4  C   UNL     1      10.551   0.336  24.989  0.00  0.00    +0.088 C 
ATOM      5  C   UNL     1       9.447   0.200  24.025  0.00  0.00    +0.127 A 
ATOM      6  O   UNL     1       8.394  -0.597  24.386  0.00  0.00    -0.429 OA
ATOM      7  C   UNL     1       7.591  -0.611  23.283  0.00  0.00    +0.308 A 
ATOM      8  N   UNL     1       6.355  -1.270  23.235  0.00  0.00    -0.169 N 
ATOM      9  H   UNL     1       5.910  -1.358  24.144  0.00  0.00    +0.178 HD
ATOM     10  N   UNL     1       8.006   0.153  22.299  0.00  0.00    -0.199 NA
ATOM     11  C   UNL     1       9.174   0.704  22.770  0.00  0.00    +0.081 A 
ATOM     12  C   UNL     1       9.910   1.699  21.960  0.00  0.00    +0.069 C 
ENDBRANCH   1   8
BRANCH   1  13
ATOM     13  C   UNL     1       6.851  -3.787  24.071  0.00  0.00    +0.109 A 
ATOM     14  C   UNL     1       8.142  -4.248  24.326  0.00  0.00    +0.030 A 
ATOM     15  C   UNL     1       8.385  -4.989  25.484  0.00  0.00    +0.024 A 
ATOM     16  C   UNL     1       7.359  -5.241  26.401  0.00  0.00    +0.025 A 
ATOM     17  C   UNL     1       6.054  -4.857  26.078  0.00  0.00    +0.024 A 
ATOM     18  C   UNL     1       5.796  -4.117  24.924  0.00  0.00    +0.030 A 
BRANCH  16  19
ATOM     19  N   UNL     1       7.595  -6.060  27.511  0.00  0.00    -0.358 N 
ATOM     20  H   UNL     1       8.491  -5.886  27.959  0.00  0.00    +0.142 HD
ATOM     21  H   UNL     1       6.831  -6.063  28.181  0.00  0.00    +0.142 HD
ENDBRANCH  16  19
ENDBRANCH   1  13
TORSDOF 3
ENDMDL
MODEL 5
REMARK VINA RESULT:      -6.3      1.226      2.075
REMARK  Name = 
REMARK  5 active torsions:
REMARK  status: ('A' for Active; 'I' for Inactive)
REMARK    1  A    between atoms: C_1  and  C_2
REMARK    2  A    between atoms: C_3  and  C_4
REMARK    3  A    between atoms: N_7  and  S_8
REMARK    4  A    between atoms: S_8  and  C_11
REMARK    5  A    between atoms: C_14  and  N_15
REMARK                            x       y       z     vdW  Elec       q    Type
REMARK                         _______ _______ _______ _____ _____    ______ ____
ROOT
ATOM      1  S   UNL     1       8.752  -3.177  23.773  0.00  0.00    +0.076 S 
ATOM      2  O   UNL     1       8.014  -3.847  22.720  0.00  0.00    -0.150 OA
ATOM      3  O   UNL     1       9.920  -3.806  24.349  0.00  0.00    -0.150 OA
ENDROOT
BRANCH   1   8
ATOM      4  C   UNL     1       3.354  -4.815  23.868  0.00  0.00    +0.088 C 
ATOM      5  C   UNL     1       4.651  -4.676  24.552  0.00  0.00    +0.127 A 
ATOM      6  O   UNL     1       5.404  -3.575  24.248  0.00  0.00    -0.429 OA
ATOM      7  C   UNL     1       6.565  -3.762  24.941  0.00  0.00    +0.308 A 
ATOM      8  N   UNL     1       7.612  -2.830  24.962  0.00  0.00    -0.169 N 
ATOM      9  H   UNL     1       7.304  -1.875  24.806  0.00  0.00    +0.178 HD
ATOM     10  N   UNL     1       6.578  -4.834  25.699  0.00  0.00    -0.199 NA
ATOM     11  C   UNL     1       5.349  -5.412  25.488  0.00  0.00    +0.081 A 
ATOM     12  C   UNL     1       4.952  -6.622  26.240  0.00  0.00    +0.069 C 
ENDBRANCH   1   8
BRANCH   1  13
ATOM     13  C   UNL     1       9.197  -1.572  23.179  0.00  0.00    +0.109 A 
ATOM     14  C   UNL     1       9.674  -0.608  24.067  0.00  0.00    +0.030 A 
ATOM     15  C   UNL     1      10.038   0.649  23.578  0.00  0.00    +0.024 A 
ATOM     16  C   UNL     1       9.961   0.935  22.211  0.00  0.00    +0.025 A 
ATOM     17  C   UNL     1       9.386  -0.009  21.354  0.00  0.00    +0.024 A 
ATOM     18  C   UNL     1       9.018  -1.268  21.828  0.00  0.00    +0.030 A 
BRANCH  16  19
ATOM     19  N   UNL     1      10.242   2.225  21.747  0.00  0.00    -0.358 N 
ATOM     20  H   UNL     1       9.433   2.840  21.746  0.00  0.00    +0.142 HD
ATOM     21  H   UNL     1      11.043   2.653  22.204  0.00  0.00    +0.142 HD
ENDBRANCH  16  19
ENDBRANCH   1  13
TORSDOF 3
ENDMDL
MODEL 6
REMARK VINA RESULT:      -6.3      1.727      2.145
REMARK  Name = 
REMARK  5 active torsions:
REMARK  status: ('A' for Active; 'I' for Inactive)
REMARK    1  A    between atoms: C_1  and  C_2
REMARK    2  A    between atoms: C_3  and  C_4
REMARK    3  A    between atoms: N_7  and  S_8
REMARK    4  A    between atoms: S_8  and  C_11
REMARK    5  A    between atoms: C_14  and  N_15
REMARK                            x       y       z     vdW  Elec       q    Type
REMARK                         _______ _______ _______ _____ _____    ______ ____
ROOT
ATOM      1  S   UNL     1       8.966  -2.006  23.205  0.00  0.00    +0.076 S 
ATOM      2  O   UNL     1       8.402  -2.318  21.907  0.00  0.00    -0.150 OA
ATOM      3  O   UNL     1       9.982  -2.863  23.776  0.00  0.00    -0.150 OA
ENDROOT
BRANCH   1   8
ATOM      4  C   UNL     1       5.304  -6.071  24.579  0.00  0.00    +0.088 C 
ATOM      5  C   UNL     1       6.209  -4.985  24.992  0.00  0.00    +0.127 A 
ATOM      6  O   UNL     1       6.305  -3.901  24.162  0.00  0.00    -0.429 OA
ATOM      7  C   UNL     1       7.267  -3.123  24.738  0.00  0.00    +0.308 A 
ATOM      8  N   UNL     1       7.647  -1.868  24.241  0.00  0.00    -0.169 N 
ATOM      9  H   UNL     1       6.911  -1.401  23.722  0.00  0.00    +0.178 HD
ATOM     10  N   UNL     1       7.725  -3.582  25.879  0.00  0.00    -0.199 NA
ATOM     11  C   UNL     1       7.035  -4.755  26.073  0.00  0.00    +0.081 A 
ATOM     12  C   UNL     1       7.226  -5.539  27.312  0.00  0.00    +0.069 C 
ENDBRANCH   1   8
BRANCH   1  13
ATOM     13  C   UNL     1       9.584  -0.349  23.138  0.00  0.00    +0.109 A 
ATOM     14  C   UNL     1       9.486   0.383  21.955  0.00  0.00    +0.030 A 
ATOM     15  C   UNL     1       9.962   1.695  21.924  0.00  0.00    +0.024 A 
ATOM     16  C   UNL     1      10.501   2.289  23.070  0.00  0.00    +0.025 A 
ATOM     17  C   UNL     1      10.683   1.506  24.215  0.00  0.00    +0.024 A 
ATOM     18  C   UNL     1      10.212   0.193  24.260  0.00  0.00    +0.030 A 
BRANCH  16  19
ATOM     19  N   UNL     1      11.057   3.572  23.002  0.00  0.00    -0.358 N 
ATOM     20  H   UNL     1      11.150   3.922  22.053  0.00  0.00    +0.142 HD
ATOM     21  H   UNL     1      10.599   4.243  23.611  0.00  0.00    +0.142 HD
ENDBRANCH  16  19
ENDBRANCH   1  13
TORSDOF 3
ENDMDL
MODEL 7
REMARK VINA RESULT:      -6.1      2.247      6.019
REMARK  Name = 
REMARK  5 active torsions:
REMARK  status: ('A' for Active; 'I' for Inactive)
REMARK    1  A    between atoms: C_1  and  C_2
REMARK    2  A    between atoms: C_3  and  C_4
REMARK    3  A    between atoms: N_7  and  S_8
REMARK    4  A    between atoms: S_8  and  C_11
REMARK    5  A    between atoms: C_14  and  N_15
REMARK                            x       y       z     vdW  Elec       q    Type
REMARK                         _______ _______ _______ _____ _____    ______ ____
ROOT
ATOM      1  S   UNL     1       8.947  -4.066  25.398  0.00  0.00    +0.076 S 
ATOM      2  O   UNL     1       9.242  -4.873  26.566  0.00  0.00    -0.150 OA
ATOM      3  O   UNL     1       9.978  -3.816  24.415  0.00  0.00    -0.150 OA
ENDROOT
BRANCH   1   8
ATOM      4  C   UNL     1      10.675   1.148  24.115  0.00  0.00    +0.088 C 
ATOM      5  C   UNL     1       9.579   0.181  24.288  0.00  0.00    +0.127 A 
ATOM      6  O   UNL     1       9.718  -0.753  25.279  0.00  0.00    -0.429 OA
ATOM      7  C   UNL     1       8.622  -1.553  25.141  0.00  0.00    +0.308 A 
ATOM      8  N   UNL     1       8.330  -2.621  26.001  0.00  0.00    -0.169 N 
ATOM      9  H   UNL     1       8.713  -2.502  26.934  0.00  0.00    +0.178 HD
ATOM     10  N   UNL     1       7.781  -1.167  24.209  0.00  0.00    -0.199 NA
ATOM     11  C   UNL     1       8.361  -0.041  23.676  0.00  0.00    +0.081 A 
ATOM     12  C   UNL     1       7.663   0.738  22.631  0.00  0.00    +0.069 C 
ENDBRANCH   1   8
BRANCH   1  13
ATOM     13  C   UNL     1       7.545  -4.782  24.592  0.00  0.00    +0.109 A 
ATOM     14  C   UNL     1       7.536  -4.923  23.204  0.00  0.00    +0.030 A 
ATOM     15  C   UNL     1       6.429  -5.506  22.585  0.00  0.00    +0.024 A 
ATOM     16  C   UNL     1       5.352  -5.979  23.341  0.00  0.00    +0.025 A 
ATOM     17  C   UNL     1       5.336  -5.738  24.719  0.00  0.00    +0.024 A 
ATOM     18  C   UNL     1       6.434  -5.156  25.351  0.00  0.00    +0.030 A 
BRANCH  16  19
ATOM     19  N   UNL     1       4.211  -6.478  22.703  0.00  0.00    -0.358 N 
ATOM     20  H   UNL     1       3.415  -6.587  23.325  0.00  0.00    +0.142 HD
ATOM     21  H   UNL     1       3.965  -5.970  21.858  0.00  0.00    +0.142 HD
ENDBRANCH  16  19
ENDBRANCH   1  13
TORSDOF 3
ENDMDL
MODEL 8
REMARK VINA RESULT:      -6.0      1.923      2.708
REMARK  Name = 
REMARK  5 active torsions:
REMARK  status: ('A' for Active; 'I' for Inactive)
REMARK    1  A    between atoms: C_1  and  C_2
REMARK    2  A    between atoms: C_3  and  C_4
REMARK    3  A    between atoms: N_7  and  S_8
REMARK    4  A    between atoms: S_8  and  C_11
REMARK    5  A    between atoms: C_14  and  N_15
REMARK                            x       y       z     vdW  Elec       q    Type
REMARK                         _______ _______ _______ _____ _____    ______ ____
ROOT
ATOM      1  S   UNL     1       8.958  -2.964  24.387  0.00  0.00    +0.076 S 
ATOM      2  O   UNL     1       7.672  -3.412  23.889  0.00  0.00    -0.150 OA
ATOM      3  O   UNL     1      10.110  -3.835  24.297  0.00  0.00    -0.150 OA
ENDROOT
BRANCH   1   8
ATOM      4  C   UNL     1       3.972  -2.685  27.011  0.00  0.00    +0.088 C 
ATOM      5  C   UNL     1       5.376  -3.129  26.997  0.00  0.00    +0.127 A 
ATOM      6  O   UNL     1       6.286  -2.306  26.391  0.00  0.00    -0.429 OA
ATOM      7  C   UNL     1       7.456  -3.005  26.444  0.00  0.00    +0.308 A 
ATOM      8  N   UNL     1       8.680  -2.501  25.981  0.00  0.00    -0.169 N 
ATOM      9  H   UNL     1       8.734  -1.488  26.008  0.00  0.00    +0.178 HD
ATOM     10  N   UNL     1       7.378  -4.148  27.085  0.00  0.00    -0.199 NA
ATOM     11  C   UNL     1       6.062  -4.227  27.474  0.00  0.00    +0.081 A 
ATOM     12  C   UNL     1       5.593  -5.359  28.302  0.00  0.00    +0.069 C 
ENDBRANCH   1   8
BRANCH   1  13
ATOM     13  C   UNL     1       9.335  -1.429  23.594  0.00  0.00    +0.109 A 
ATOM     14  C   UNL     1       9.764  -0.340  24.353  0.00  0.00    +0.030 A 
ATOM     15  C   UNL     1      10.075   0.860  23.710  0.00  0.00    +0.024 A 
ATOM     16  C   UNL     1       9.993   0.968  22.318  0.00  0.00    +0.025 A 
ATOM     17  C   UNL     1       9.466  -0.101  21.587  0.00  0.00    +0.024 A 
ATOM     18  C   UNL     1       9.151  -1.306  22.216  0.00  0.00    +0.030 A 
BRANCH  16  19
ATOM     19  N   UNL     1      10.220   2.200  21.694  0.00  0.00    -0.358 N 
ATOM     20  H   UNL     1       9.435   2.520  21.134  0.00  0.00    +0.142 HD
ATOM     21  H   UNL     1      10.550   2.920  22.331  0.00  0.00    +0.142 HD
ENDBRANCH  16  19
ENDBRANCH   1  13
TORSDOF 3
ENDMDL
MODEL 9
REMARK VINA RESULT:      -6.0      2.411      6.377
REMARK  Name = 
REMARK  5 active torsions:
REMARK  status: ('A' for Active; 'I' for Inactive)
REMARK    1  A    between atoms: C_1  and  C_2
REMARK    2  A    between atoms: C_3  and  C_4
REMARK    3  A    between atoms: N_7  and  S_8
REMARK    4  A    between atoms: S_8  and  C_11
REMARK    5  A    between atoms: C_14  and  N_15
REMARK                            x       y       z     vdW  Elec       q    Type
REMARK                         _______ _______ _______ _____ _____    ______ ____
ROOT
ATOM      1  S   UNL     1       9.089  -2.364  23.216  0.00  0.00    +0.076 S 
ATOM      2  O   UNL     1      10.110  -3.095  23.940  0.00  0.00    -0.150 OA
ATOM      3  O   UNL     1       9.395  -1.783  21.926  0.00  0.00    -0.150 OA
ENDROOT
BRANCH   1   8
ATOM      4  C   UNL     1      10.644   3.056  23.383  0.00  0.00    +0.088 C 
ATOM      5  C   UNL     1       9.577   2.042  23.373  0.00  0.00    +0.127 A 
ATOM      6  O   UNL     1       9.831   0.860  24.016  0.00  0.00    -0.429 OA
ATOM      7  C   UNL     1       8.728   0.098  23.762  0.00  0.00    +0.308 A 
ATOM      8  N   UNL     1       8.540  -1.188  24.288  0.00  0.00    -0.169 N 
ATOM      9  H   UNL     1       9.026  -1.340  25.166  0.00  0.00    +0.178 HD
ATOM     10  N   UNL     1       7.786   0.713  23.085  0.00  0.00    -0.199 NA
ATOM     11  C   UNL     1       8.299   1.967  22.858  0.00  0.00    +0.081 A 
ATOM     12  C   UNL     1       7.484   2.996  22.176  0.00  0.00    +0.069 C 
ENDBRANCH   1   8
BRANCH   1  13
ATOM     13  C   UNL     1       7.684  -3.426  23.048  0.00  0.00    +0.109 A 
ATOM     14  C   UNL     1       7.799  -4.784  23.345  0.00  0.00    +0.030 A 
ATOM     15  C   UNL     1       6.676  -5.606  23.224  0.00  0.00    +0.024 A 
ATOM     16  C   UNL     1       5.439  -5.076  22.845  0.00  0.00    +0.025 A 
ATOM     17  C   UNL     1       5.368  -3.734  22.456  0.00  0.00    +0.024 A 
ATOM     18  C   UNL     1       6.482  -2.902  22.570  0.00  0.00    +0.030 A 
BRANCH  16  19
ATOM     19  N   UNL     1       4.344  -5.924  22.641  0.00  0.00    -0.358 N 
ATOM     20  H   UNL     1       4.607  -6.856  22.335  0.00  0.00    +0.142 HD
ATOM     21  H   UNL     1       3.701  -5.949  23.426  0.00  0.00    +0.142 HD
ENDBRANCH  16  19
ENDBRANCH   1  13
TORSDOF 3
ENDMDL
