MODEL 1
REMARK VINA RESULT:      -5.0      0.000      0.000
REMARK  Name = 
REMARK  4 active torsions:
REMARK  status: ('A' for Active; 'I' for Inactive)
REMARK    1  A    between atoms: N_1  and  C_2
REMARK    2  A    between atoms: C_4  and  O_5
REMARK    3  A    between atoms: C_6  and  C_9
REMARK    4  A    between atoms: C_9  and  O_10
REMARK                            x       y       z     vdW  Elec       q    Type
REMARK                         _______ _______ _______ _____ _____    ______ ____
ROOT
ATOM      1  C   UNL     1      10.307   2.013  23.173  0.00  0.00    +0.028 A 
ATOM      2  C   UNL     1      10.434   1.277  24.353  0.00  0.00    +0.024 A 
ATOM      3  C   UNL     1      10.163  -0.095  24.373  0.00  0.00    +0.020 A 
ATOM      4  C   UNL     1       9.803  -0.769  23.198  0.00  0.00    +0.100 A 
ATOM      5  C   UNL     1       9.744  -0.041  22.004  0.00  0.00    +0.133 A 
ATOM      6  C   UNL     1      10.014   1.333  21.988  0.00  0.00    +0.069 A 
ENDROOT
BRANCH   1   7
ATOM      7  N   UNL     1      10.697   3.356  23.138  0.00  0.00    -0.358 N 
ATOM      8  H   UNL     1       9.954   4.006  23.379  0.00  0.00    +0.142 HD
ATOM      9  H   UNL     1      11.183   3.632  22.290  0.00  0.00    +0.142 HD
ENDBRANCH   1   7
BRANCH   4  10
ATOM     10  C   UNL     1       9.524  -2.232  23.307  0.00  0.00    +0.340 C 
ATOM     11  O   UNL     1      10.276  -3.002  23.884  0.00  0.00    -0.245 OA
BRANCH  10  12
ATOM     12  O   UNL     1       8.376  -2.644  22.730  0.00  0.00    -0.477 OA
ATOM     13  H   UNL     1       7.587  -2.423  23.272  0.00  0.00    +0.295 HD
ENDBRANCH  10  12
ENDBRANCH   4  10
BRANCH   5  14
ATOM     14  O   UNL     1       9.428  -0.674  20.826  0.00  0.00    -0.506 OA
ATOM     15  H   UNL     1       9.499  -0.027  20.098  0.00  0.00    +0.292 HD
ENDBRANCH   5  14
TORSDOF 4
ENDMDL
MODEL 2
REMARK VINA RESULT:      -4.9      1.794      2.469
REMARK  Name = 
REMARK  4 active torsions:
REMARK  status: ('A' for Active; 'I' for Inactive)
REMARK    1  A    between atoms: N_1  and  C_2
REMARK    2  A    between atoms: C_4  and  O_5
REMARK    3  A    between atoms: C_6  and  C_9
REMARK    4  A    between atoms: C_9  and  O_10
REMARK                            x       y       z     vdW  Elec       q    Type
REMARK                         _______ _______ _______ _____ _____    ______ ____
ROOT
ATOM      1  C   UNL     1      10.006   1.030  22.306  0.00  0.00    +0.028 A 
ATOM      2  C   UNL     1       9.706  -0.175  21.670  0.00  0.00    +0.024 A 
ATOM      3  C   UNL     1       9.533  -1.351  22.408  0.00  0.00    +0.020 A 
ATOM      4  C   UNL     1       9.611  -1.333  23.807  0.00  0.00    +0.100 A 
ATOM      5  C   UNL     1       9.843  -0.108  24.446  0.00  0.00    +0.133 A 
ATOM      6  C   UNL     1      10.018   1.066  23.703  0.00  0.00    +0.069 A 
ENDROOT
BRANCH   1   7
ATOM      7  N   UNL     1      10.056   2.219  21.570  0.00  0.00    -0.358 N 
ATOM      8  H   UNL     1       9.330   2.297  20.864  0.00  0.00    +0.142 HD
ATOM      9  H   UNL     1      10.973   2.446  21.199  0.00  0.00    +0.142 HD
ENDBRANCH   1   7
BRANCH   4  10
ATOM     10  C   UNL     1       9.421  -2.632  24.520  0.00  0.00    +0.340 C 
ATOM     11  O   UNL     1      10.026  -3.646  24.207  0.00  0.00    -0.245 OA
BRANCH  10  12
ATOM     12  O   UNL     1       8.539  -2.606  25.540  0.00  0.00    -0.477 OA
ATOM     13  H   UNL     1       7.660  -2.267  25.262  0.00  0.00    +0.295 HD
ENDBRANCH  10  12
ENDBRANCH   4  10
BRANCH   5  14
ATOM     14  O   UNL     1       9.893  -0.046  25.818  0.00  0.00    -0.506 OA
ATOM     15  H   UNL     1      10.329  -0.854  26.149  0.00  0.00    +0.292 HD
ENDBRANCH   5  14
TORSDOF 4
ENDMDL
MODEL 3
REMARK VINA RESULT:      -4.7      1.697      2.484
REMARK  Name = 
REMARK  4 active torsions:
REMARK  status: ('A' for Active; 'I' for Inactive)
REMARK    1  A    between atoms: N_1  and  C_2
REMARK    2  A    between atoms: C_4  and  O_5
REMARK    3  A    between atoms: C_6  and  C_9
REMARK    4  A    between atoms: C_9  and  O_10
REMARK                            x       y       z     vdW  Elec       q    Type
REMARK                         _______ _______ _______ _____ _____    ______ ____
ROOT
ATOM      1  C   UNL     1       9.119   2.896  22.964  0.00  0.00    +0.028 A 
ATOM      2  C   UNL     1       8.825   2.053  21.891  0.00  0.00    +0.024 A 
ATOM      3  C   UNL     1       9.174   0.699  21.927  0.00  0.00    +0.020 A 
ATOM      4  C   UNL     1       9.785   0.150  23.063  0.00  0.00    +0.100 A 
ATOM      5  C   UNL     1      10.016   0.983  24.164  0.00  0.00    +0.133 A 
ATOM      6  C   UNL     1       9.667   2.339  24.123  0.00  0.00    +0.069 A 
ENDROOT
BRANCH   1   7
ATOM      7  N   UNL     1       8.658   4.216  22.966  0.00  0.00    -0.358 N 
ATOM      8  H   UNL     1       9.337   4.889  23.313  0.00  0.00    +0.142 HD
ATOM      9  H   UNL     1       7.746   4.344  23.394  0.00  0.00    +0.142 HD
ENDBRANCH   1   7
BRANCH   4  10
ATOM     10  C   UNL     1      10.132  -1.302  23.018  0.00  0.00    +0.340 C 
ATOM     11  O   UNL     1      10.014  -2.035  23.988  0.00  0.00    -0.245 OA
BRANCH  10  12
ATOM     12  O   UNL     1      10.578  -1.752  21.827  0.00  0.00    -0.477 OA
ATOM     13  H   UNL     1       9.855  -2.122  21.275  0.00  0.00    +0.295 HD
ENDBRANCH  10  12
ENDBRANCH   4  10
BRANCH   5  14
ATOM     14  O   UNL     1      10.583   0.473  25.307  0.00  0.00    -0.506 OA
ATOM     15  H   UNL     1      10.023  -0.258  25.630  0.00  0.00    +0.292 HD
ENDBRANCH   5  14
TORSDOF 4
ENDMDL
MODEL 4
REMARK VINA RESULT:      -4.6      3.075      4.427
REMARK  Name = 
REMARK  4 active torsions:
REMARK  status: ('A' for Active; 'I' for Inactive)
REMARK    1  A    between atoms: N_1  and  C_2
REMARK    2  A    between atoms: C_4  and  O_5
REMARK    3  A    between atoms: C_6  and  C_9
REMARK    4  A    between atoms: C_9  and  O_10
REMARK                            x       y       z     vdW  Elec       q    Type
REMARK                         _______ _______ _______ _____ _____    ______ ____
ROOT
ATOM      1  C   UNL     1       9.001  -2.179  23.438  0.00  0.00    +0.028 A 
ATOM      2  C   UNL     1       9.072  -1.638  22.154  0.00  0.00    +0.024 A 
ATOM      3  C   UNL     1       9.491  -0.318  21.956  0.00  0.00    +0.020 A 
ATOM      4  C   UNL     1       9.894   0.473  23.040  0.00  0.00    +0.100 A 
ATOM      5  C   UNL     1       9.887  -0.096  24.319  0.00  0.00    +0.133 A 
ATOM      6  C   UNL     1       9.464  -1.417  24.514  0.00  0.00    +0.069 A 
ENDROOT
BRANCH   1   7
ATOM      7  N   UNL     1       8.697  -3.534  23.614  0.00  0.00    -0.358 N 
ATOM      8  H   UNL     1       7.705  -3.745  23.551  0.00  0.00    +0.142 HD
ATOM      9  H   UNL     1       9.125  -3.959  24.430  0.00  0.00    +0.142 HD
ENDBRANCH   1   7
BRANCH   4  10
ATOM     10  C   UNL     1      10.320   1.874  22.743  0.00  0.00    +0.340 C 
ATOM     11  O   UNL     1      10.841   2.592  23.582  0.00  0.00    -0.245 OA
BRANCH  10  12
ATOM     12  O   UNL     1      10.097   2.289  21.479  0.00  0.00    -0.477 OA
ATOM     13  H   UNL     1       9.371   1.787  21.046  0.00  0.00    +0.295 HD
ENDBRANCH  10  12
ENDBRANCH   4  10
BRANCH   5  14
ATOM     14  O   UNL     1      10.306   0.639  25.402  0.00  0.00    -0.506 OA
ATOM     15  H   UNL     1      10.867   1.370  25.081  0.00  0.00    +0.292 HD
ENDBRANCH   5  14
TORSDOF 4
ENDMDL
MODEL 5
REMARK VINA RESULT:      -4.6      5.922      7.287
REMARK  Name = 
REMARK  4 active torsions:
REMARK  status: ('A' for Active; 'I' for Inactive)
REMARK    1  A    between atoms: N_1  and  C_2
REMARK    2  A    between atoms: C_4  and  O_5
REMARK    3  A    between atoms: C_6  and  C_9
REMARK    4  A    between atoms: C_9  and  O_10
REMARK                            x       y       z     vdW  Elec       q    Type
REMARK                         _______ _______ _______ _____ _____    ______ ____
ROOT
ATOM      1  C   UNL     1       5.255  -5.583  25.026  0.00  0.00    +0.028 A 
ATOM      2  C   UNL     1       5.943  -5.208  23.871  0.00  0.00    +0.024 A 
ATOM      3  C   UNL     1       7.314  -4.936  23.912  0.00  0.00    +0.020 A 
ATOM      4  C   UNL     1       8.036  -5.081  25.104  0.00  0.00    +0.100 A 
ATOM      5  C   UNL     1       7.356  -5.525  26.245  0.00  0.00    +0.133 A 
ATOM      6  C   UNL     1       5.982  -5.793  26.201  0.00  0.00    +0.069 A 
ENDROOT
BRANCH   1   7
ATOM      7  N   UNL     1       3.912  -5.968  24.950  0.00  0.00    -0.358 N 
ATOM      8  H   UNL     1       3.331  -5.585  25.691  0.00  0.00    +0.142 HD
ATOM      9  H   UNL     1       3.766  -6.966  24.831  0.00  0.00    +0.142 HD
ENDBRANCH   1   7
BRANCH   4  10
ATOM     10  C   UNL     1       9.495  -4.765  25.063  0.00  0.00    +0.340 C 
ATOM     11  O   UNL     1       9.943  -3.814  24.441  0.00  0.00    -0.245 OA
BRANCH  10  12
ATOM     12  O   UNL     1      10.286  -5.600  25.768  0.00  0.00    -0.477 OA
ATOM     13  H   UNL     1      11.220  -5.572  25.465  0.00  0.00    +0.295 HD
ENDBRANCH  10  12
ENDBRANCH   4  10
BRANCH   5  14
ATOM     14  O   UNL     1       8.037  -5.711  27.424  0.00  0.00    -0.506 OA
ATOM     15  H   UNL     1       8.062  -6.667  27.619  0.00  0.00    +0.292 HD
ENDBRANCH   5  14
TORSDOF 4
ENDMDL
MODEL 6
REMARK VINA RESULT:      -4.5      2.735      3.875
REMARK  Name = 
REMARK  4 active torsions:
REMARK  status: ('A' for Active; 'I' for Inactive)
REMARK    1  A    between atoms: N_1  and  C_2
REMARK    2  A    between atoms: C_4  and  O_5
REMARK    3  A    between atoms: C_6  and  C_9
REMARK    4  A    between atoms: C_9  and  O_10
REMARK                            x       y       z     vdW  Elec       q    Type
REMARK                         _______ _______ _______ _____ _____    ______ ____
ROOT
ATOM      1  C   UNL     1       9.341  -2.059  24.425  0.00  0.00    +0.028 A 
ATOM      2  C   UNL     1       9.385  -0.878  25.168  0.00  0.00    +0.024 A 
ATOM      3  C   UNL     1       9.633   0.350  24.547  0.00  0.00    +0.020 A 
ATOM      4  C   UNL     1       9.797   0.427  23.157  0.00  0.00    +0.100 A 
ATOM      5  C   UNL     1       9.683  -0.750  22.407  0.00  0.00    +0.133 A 
ATOM      6  C   UNL     1       9.436  -1.978  23.033  0.00  0.00    +0.069 A 
ENDROOT
BRANCH   1   7
ATOM      7  N   UNL     1       8.972  -3.261  25.038  0.00  0.00    -0.358 N 
ATOM      8  H   UNL     1       8.029  -3.258  25.415  0.00  0.00    +0.142 HD
ATOM      9  H   UNL     1       9.648  -3.617  25.706  0.00  0.00    +0.142 HD
ENDBRANCH   1   7
BRANCH   4  10
ATOM     10  C   UNL     1      10.066   1.775  22.573  0.00  0.00    +0.340 C 
ATOM     11  O   UNL     1      10.690   2.637  23.173  0.00  0.00    -0.245 OA
BRANCH  10  12
ATOM     12  O   UNL     1       9.576   1.974  21.332  0.00  0.00    -0.477 OA
ATOM     13  H   UNL     1      10.272   1.902  20.642  0.00  0.00    +0.295 HD
ENDBRANCH  10  12
ENDBRANCH   4  10
BRANCH   5  14
ATOM     14  O   UNL     1       9.805  -0.709  21.039  0.00  0.00    -0.506 OA
ATOM     15  H   UNL     1       9.462  -1.546  20.672  0.00  0.00    +0.292 HD
ENDBRANCH   5  14
TORSDOF 4
ENDMDL
MODEL 7
REMARK VINA RESULT:      -4.4      1.983      2.559
REMARK  Name = 
REMARK  4 active torsions:
REMARK  status: ('A' for Active; 'I' for Inactive)
REMARK    1  A    between atoms: N_1  and  C_2
REMARK    2  A    between atoms: C_4  and  O_5
REMARK    3  A    between atoms: C_6  and  C_9
REMARK    4  A    between atoms: C_9  and  O_10
REMARK                            x       y       z     vdW  Elec       q    Type
REMARK                         _______ _______ _______ _____ _____    ______ ____
ROOT
ATOM      1  C   UNL     1       8.238   2.588  22.345  0.00  0.00    +0.028 A 
ATOM      2  C   UNL     1       9.479   2.122  21.906  0.00  0.00    +0.024 A 
ATOM      3  C   UNL     1       9.751   0.751  21.855  0.00  0.00    +0.020 A 
ATOM      4  C   UNL     1       8.767  -0.186  22.200  0.00  0.00    +0.100 A 
ATOM      5  C   UNL     1       7.502   0.284  22.573  0.00  0.00    +0.133 A 
ATOM      6  C   UNL     1       7.234   1.658  22.625  0.00  0.00    +0.069 A 
ENDROOT
BRANCH   1   7
ATOM      7  N   UNL     1       7.937   3.952  22.276  0.00  0.00    -0.358 N 
ATOM      8  H   UNL     1       7.331   4.278  23.024  0.00  0.00    +0.142 HD
ATOM      9  H   UNL     1       7.619   4.268  21.366  0.00  0.00    +0.142 HD
ENDBRANCH   1   7
BRANCH   4  10
ATOM     10  C   UNL     1       9.141  -1.630  22.125  0.00  0.00    +0.340 C 
ATOM     11  O   UNL     1       8.317  -2.527  22.217  0.00  0.00    -0.245 OA
BRANCH  10  12
ATOM     12  O   UNL     1      10.455  -1.876  21.941  0.00  0.00    -0.477 OA
ATOM     13  H   UNL     1      11.007  -1.078  22.091  0.00  0.00    +0.295 HD
ENDBRANCH  10  12
ENDBRANCH   4  10
BRANCH   5  14
ATOM     14  O   UNL     1       6.502  -0.605  22.886  0.00  0.00    -0.506 OA
ATOM     15  H   UNL     1       5.717  -0.099  23.170  0.00  0.00    +0.292 HD
ENDBRANCH   5  14
TORSDOF 4
ENDMDL
MODEL 8
REMARK VINA RESULT:      -4.4      3.596      4.676
REMARK  Name = 
REMARK  4 active torsions:
REMARK  status: ('A' for Active; 'I' for Inactive)
REMARK    1  A    between atoms: N_1  and  C_2
REMARK    2  A    between atoms: C_4  and  O_5
REMARK    3  A    between atoms: C_6  and  C_9
REMARK    4  A    between atoms: C_9  and  O_10
REMARK                            x       y       z     vdW  Elec       q    Type
REMARK                         _______ _______ _______ _____ _____    ______ ____
ROOT
ATOM      1  C   UNL     1       8.032  -2.211  22.545  0.00  0.00    +0.028 A 
ATOM      2  C   UNL     1       9.240  -1.746  22.023  0.00  0.00    +0.024 A 
ATOM      3  C   UNL     1       9.446  -0.380  21.805  0.00  0.00    +0.020 A 
ATOM      4  C   UNL     1       8.461   0.555  22.150  0.00  0.00    +0.100 A 
ATOM      5  C   UNL     1       7.278   0.091  22.738  0.00  0.00    +0.133 A 
ATOM      6  C   UNL     1       7.074  -1.278  22.953  0.00  0.00    +0.069 A 
ENDROOT
BRANCH   1   7
ATOM      7  N   UNL     1       7.882  -3.563  22.872  0.00  0.00    -0.358 N 
ATOM      8  H   UNL     1       6.916  -3.877  22.895  0.00  0.00    +0.142 HD
ATOM      9  H   UNL     1       8.396  -3.857  23.696  0.00  0.00    +0.142 HD
ENDBRANCH   1   7
BRANCH   4  10
ATOM     10  C   UNL     1       8.758   1.993  21.878  0.00  0.00    +0.340 C 
ATOM     11  O   UNL     1       7.901   2.862  21.935  0.00  0.00    -0.245 OA
BRANCH  10  12
ATOM     12  O   UNL     1      10.042   2.269  21.570  0.00  0.00    -0.477 OA
ATOM     13  H   UNL     1      10.237   3.231  21.616  0.00  0.00    +0.295 HD
ENDBRANCH  10  12
ENDBRANCH   4  10
BRANCH   5  14
ATOM     14  O   UNL     1       6.303   0.980  23.120  0.00  0.00    -0.506 OA
ATOM     15  H   UNL     1       6.270   1.003  24.095  0.00  0.00    +0.292 HD
ENDBRANCH   5  14
TORSDOF 4
ENDMDL
MODEL 9
REMARK VINA RESULT:      -4.4      2.264      2.808
REMARK  Name = 
REMARK  4 active torsions:
REMARK  status: ('A' for Active; 'I' for Inactive)
REMARK    1  A    between atoms: N_1  and  C_2
REMARK    2  A    between atoms: C_4  and  O_5
REMARK    3  A    between atoms: C_6  and  C_9
REMARK    4  A    between atoms: C_9  and  O_10
REMARK                            x       y       z     vdW  Elec       q    Type
REMARK                         _______ _______ _______ _____ _____    ______ ____
ROOT
ATOM      1  C   UNL     1       9.279   0.998  22.084  0.00  0.00    +0.028 A 
ATOM      2  C   UNL     1       9.683  -0.249  21.604  0.00  0.00    +0.024 A 
ATOM      3  C   UNL     1       8.918  -1.393  21.853  0.00  0.00    +0.020 A 
ATOM      4  C   UNL     1       7.705  -1.304  22.550  0.00  0.00    +0.100 A 
ATOM      5  C   UNL     1       7.269  -0.041  22.969  0.00  0.00    +0.133 A 
ATOM      6  C   UNL     1       8.039   1.102  22.720  0.00  0.00    +0.069 A 
ENDROOT
BRANCH   1   7
ATOM      7  N   UNL     1       9.987   2.151  21.727  0.00  0.00    -0.358 N 
ATOM      8  H   UNL     1       9.561   2.677  20.969  0.00  0.00    +0.142 HD
ATOM      9  H   UNL     1      10.980   2.005  21.577  0.00  0.00    +0.142 HD
ENDBRANCH   1   7
BRANCH   4  10
ATOM     10  C   UNL     1       6.953  -2.573  22.779  0.00  0.00    +0.340 C 
ATOM     11  O   UNL     1       7.479  -3.573  23.243  0.00  0.00    -0.245 OA
BRANCH  10  12
ATOM     12  O   UNL     1       5.646  -2.538  22.445  0.00  0.00    -0.477 OA
ATOM     13  H   UNL     1       5.462  -1.885  21.734  0.00  0.00    +0.295 HD
ENDBRANCH  10  12
ENDBRANCH   4  10
BRANCH   5  14
ATOM     14  O   UNL     1       6.069   0.091  23.626  0.00  0.00    -0.506 OA
ATOM     15  H   UNL     1       5.484   0.660  23.090  0.00  0.00    +0.292 HD
ENDBRANCH   5  14
TORSDOF 4
ENDMDL
