MODEL 1
REMARK VINA RESULT:      -5.1      0.000      0.000
REMARK  Name = 
REMARK  1 active torsions:
REMARK  status: ('A' for Active; 'I' for Inactive)
REMARK    1  A    between atoms: O_1  and  C_2
REMARK                            x       y       z     vdW  Elec       q    Type
REMARK                         _______ _______ _______ _____ _____    ______ ____
ROOT
ATOM      1  C   UNL     1       9.607  -1.946  23.561  0.00  0.00    +0.156 A 
ATOM      2  C   UNL     1       8.988  -0.700  23.489  0.00  0.00    +0.058 A 
ATOM      3  I   UNL     1       9.469   0.694  22.011  0.00  0.00    -0.040 I 
ATOM      4  C   UNL     1       8.013  -0.366  24.424  0.00  0.00    +0.033 A 
ATOM      5  C   UNL     1       7.666  -1.286  25.420  0.00  0.00    +0.024 A 
ATOM      6  I   UNL     1       6.181  -0.654  26.779  0.00  0.00    -0.043 I 
ATOM      7  C   UNL     1       8.286  -2.563  25.494  0.00  0.00    +0.017 A 
ATOM      8  C   UNL     1       8.002  -3.569  26.449  0.00  0.00    +0.012 A 
ATOM      9  C   UNL     1       8.670  -4.789  26.424  0.00  0.00    +0.020 A 
ATOM     10  C   UNL     1       9.617  -4.988  25.444  0.00  0.00    +0.111 A 
ATOM     11  N   UNL     1       9.930  -4.064  24.512  0.00  0.00    -0.251 NA
ATOM     12  C   UNL     1       9.275  -2.883  24.539  0.00  0.00    +0.114 A 
ENDROOT
BRANCH   1  13
ATOM     13  O   UNL     1      10.582  -2.296  22.652  0.00  0.00    -0.504 OA
ATOM     14  H   UNL     1      10.382  -3.232  22.432  0.00  0.00    +0.292 HD
ENDBRANCH   1  13
TORSDOF 1
ENDMDL
MODEL 2
REMARK VINA RESULT:      -4.8      2.812      3.139
REMARK  Name = 
REMARK  1 active torsions:
REMARK  status: ('A' for Active; 'I' for Inactive)
REMARK    1  A    between atoms: O_1  and  C_2
REMARK                            x       y       z     vdW  Elec       q    Type
REMARK                         _______ _______ _______ _____ _____    ______ ____
ROOT
ATOM      1  C   UNL     1       8.518  -2.230  24.418  0.00  0.00    +0.156 A 
ATOM      2  C   UNL     1       8.521  -2.095  23.031  0.00  0.00    +0.058 A 
ATOM      3  I   UNL     1       9.450  -0.489  22.075  0.00  0.00    -0.040 I 
ATOM      4  C   UNL     1       7.893  -3.060  22.250  0.00  0.00    +0.033 A 
ATOM      5  C   UNL     1       7.269  -4.151  22.866  0.00  0.00    +0.024 A 
ATOM      6  I   UNL     1       6.346  -5.536  21.570  0.00  0.00    -0.043 I 
ATOM      7  C   UNL     1       7.270  -4.301  24.280  0.00  0.00    +0.017 A 
ATOM      8  C   UNL     1       6.683  -5.367  25.001  0.00  0.00    +0.012 A 
ATOM      9  C   UNL     1       6.750  -5.415  26.390  0.00  0.00    +0.020 A 
ATOM     10  C   UNL     1       7.401  -4.391  27.042  0.00  0.00    +0.111 A 
ATOM     11  N   UNL     1       7.975  -3.348  26.405  0.00  0.00    -0.251 NA
ATOM     12  C   UNL     1       7.911  -3.311  25.056  0.00  0.00    +0.114 A 
ENDROOT
BRANCH   1  13
ATOM     13  O   UNL     1       9.126  -1.283  25.214  0.00  0.00    -0.504 OA
ATOM     14  H   UNL     1       8.645  -0.452  25.010  0.00  0.00    +0.292 HD
ENDBRANCH   1  13
TORSDOF 1
ENDMDL
MODEL 3
REMARK VINA RESULT:      -4.8      2.951      3.674
REMARK  Name = 
REMARK  1 active torsions:
REMARK  status: ('A' for Active; 'I' for Inactive)
REMARK    1  A    between atoms: O_1  and  C_2
REMARK                            x       y       z     vdW  Elec       q    Type
REMARK                         _______ _______ _______ _____ _____    ______ ____
ROOT
ATOM      1  C   UNL     1       9.491   1.915  23.016  0.00  0.00    +0.156 A 
ATOM      2  C   UNL     1       8.855   2.740  23.940  0.00  0.00    +0.058 A 
ATOM      3  I   UNL     1       8.735   4.808  23.683  0.00  0.00    -0.040 I 
ATOM      4  C   UNL     1       8.272   2.177  25.071  0.00  0.00    +0.033 A 
ATOM      5  C   UNL     1       8.331   0.792  25.263  0.00  0.00    +0.024 A 
ATOM      6  I   UNL     1       7.419   0.066  27.021  0.00  0.00    -0.043 I 
ATOM      7  C   UNL     1       8.970  -0.058  24.319  0.00  0.00    +0.017 A 
ATOM      8  C   UNL     1       9.076  -1.466  24.410  0.00  0.00    +0.012 A 
ATOM      9  C   UNL     1       9.721  -2.201  23.420  0.00  0.00    +0.020 A 
ATOM     10  C   UNL     1      10.258  -1.516  22.352  0.00  0.00    +0.111 A 
ATOM     11  N   UNL     1      10.191  -0.175  22.217  0.00  0.00    -0.251 NA
ATOM     12  C   UNL     1       9.558   0.531  23.179  0.00  0.00    +0.114 A 
ENDROOT
BRANCH   1  13
ATOM     13  O   UNL     1      10.083   2.450  21.892  0.00  0.00    -0.504 OA
ATOM     14  H   UNL     1       9.343   2.553  21.255  0.00  0.00    +0.292 HD
ENDBRANCH   1  13
TORSDOF 1
ENDMDL
MODEL 4
REMARK VINA RESULT:      -4.7      3.897      4.644
REMARK  Name = 
REMARK  1 active torsions:
REMARK  status: ('A' for Active; 'I' for Inactive)
REMARK    1  A    between atoms: O_1  and  C_2
REMARK                            x       y       z     vdW  Elec       q    Type
REMARK                         _______ _______ _______ _____ _____    ______ ____
ROOT
ATOM      1  C   UNL     1       7.871  -4.601  26.318  0.00  0.00    +0.156 A 
ATOM      2  C   UNL     1       7.758  -4.119  25.016  0.00  0.00    +0.058 A 
ATOM      3  I   UNL     1       9.239  -2.938  24.138  0.00  0.00    -0.040 I 
ATOM      4  C   UNL     1       6.629  -4.433  24.266  0.00  0.00    +0.033 A 
ATOM      5  C   UNL     1       5.625  -5.230  24.828  0.00  0.00    +0.024 A 
ATOM      6  I   UNL     1       3.963  -5.625  23.591  0.00  0.00    -0.043 I 
ATOM      7  C   UNL     1       5.737  -5.734  26.153  0.00  0.00    +0.017 A 
ATOM      8  C   UNL     1       4.791  -6.555  26.810  0.00  0.00    +0.012 A 
ATOM      9  C   UNL     1       5.008  -6.997  28.112  0.00  0.00    +0.020 A 
ATOM     10  C   UNL     1       6.169  -6.608  28.742  0.00  0.00    +0.111 A 
ATOM     11  N   UNL     1       7.103  -5.824  28.164  0.00  0.00    -0.251 NA
ATOM     12  C   UNL     1       6.889  -5.403  26.899  0.00  0.00    +0.114 A 
ENDROOT
BRANCH   1  13
ATOM     13  O   UNL     1       8.976  -4.296  27.083  0.00  0.00    -0.504 OA
ATOM     14  H   UNL     1       9.379  -3.525  26.628  0.00  0.00    +0.292 HD
ENDBRANCH   1  13
TORSDOF 1
ENDMDL
MODEL 5
REMARK VINA RESULT:      -4.6      5.219      6.479
REMARK  Name = 
REMARK  1 active torsions:
REMARK  status: ('A' for Active; 'I' for Inactive)
REMARK    1  A    between atoms: O_1  and  C_2
REMARK                            x       y       z     vdW  Elec       q    Type
REMARK                         _______ _______ _______ _____ _____    ______ ____
ROOT
ATOM      1  C   UNL     1       4.567  -6.816  25.976  0.00  0.00    +0.156 A 
ATOM      2  C   UNL     1       3.874  -6.989  24.779  0.00  0.00    +0.058 A 
ATOM      3  I   UNL     1       2.053  -8.005  24.689  0.00  0.00    -0.040 I 
ATOM      4  C   UNL     1       4.402  -6.467  23.603  0.00  0.00    +0.033 A 
ATOM      5  C   UNL     1       5.618  -5.774  23.637  0.00  0.00    +0.024 A 
ATOM      6  I   UNL     1       6.313  -5.041  21.785  0.00  0.00    -0.043 I 
ATOM      7  C   UNL     1       6.326  -5.585  24.856  0.00  0.00    +0.017 A 
ATOM      8  C   UNL     1       7.551  -4.893  25.004  0.00  0.00    +0.012 A 
ATOM      9  C   UNL     1       8.154  -4.764  26.252  0.00  0.00    +0.020 A 
ATOM     10  C   UNL     1       7.525  -5.334  27.336  0.00  0.00    +0.111 A 
ATOM     11  N   UNL     1       6.359  -6.007  27.252  0.00  0.00    -0.251 NA
ATOM     12  C   UNL     1       5.776  -6.124  26.039  0.00  0.00    +0.114 A 
ENDROOT
BRANCH   1  13
ATOM     13  O   UNL     1       4.069  -7.332  27.153  0.00  0.00    -0.504 OA
ATOM     14  H   UNL     1       3.111  -7.120  27.123  0.00  0.00    +0.292 HD
ENDBRANCH   1  13
TORSDOF 1
ENDMDL
MODEL 6
REMARK VINA RESULT:      -4.6      2.008      3.870
REMARK  Name = 
REMARK  1 active torsions:
REMARK  status: ('A' for Active; 'I' for Inactive)
REMARK    1  A    between atoms: O_1  and  C_2
REMARK                            x       y       z     vdW  Elec       q    Type
REMARK                         _______ _______ _______ _____ _____    ______ ____
ROOT
ATOM      1  C   UNL     1       8.826  -3.498  24.693  0.00  0.00    +0.156 A 
ATOM      2  C   UNL     1       7.746  -3.492  25.573  0.00  0.00    +0.058 A 
ATOM      3  I   UNL     1       7.285  -5.136  26.774  0.00  0.00    -0.040 I 
ATOM      4  C   UNL     1       6.946  -2.358  25.666  0.00  0.00    +0.033 A 
ATOM      5  C   UNL     1       7.239  -1.238  24.878  0.00  0.00    +0.024 A 
ATOM      6  I   UNL     1       5.945   0.412  25.107  0.00  0.00    -0.043 I 
ATOM      7  C   UNL     1       8.345  -1.233  23.984  0.00  0.00    +0.017 A 
ATOM      8  C   UNL     1       8.735  -0.155  23.154  0.00  0.00    +0.012 A 
ATOM      9  C   UNL     1       9.843  -0.259  22.320  0.00  0.00    +0.020 A 
ATOM     10  C   UNL     1      10.546  -1.444  22.322  0.00  0.00    +0.111 A 
ATOM     11  N   UNL     1      10.217  -2.504  23.089  0.00  0.00    -0.251 NA
ATOM     12  C   UNL     1       9.143  -2.394  23.901  0.00  0.00    +0.114 A 
ENDROOT
BRANCH   1  13
ATOM     13  O   UNL     1       9.627  -4.613  24.576  0.00  0.00    -0.504 OA
ATOM     14  H   UNL     1       9.300  -5.062  23.766  0.00  0.00    +0.292 HD
ENDBRANCH   1  13
TORSDOF 1
ENDMDL
MODEL 7
REMARK VINA RESULT:      -4.6      4.386      5.037
REMARK  Name = 
REMARK  1 active torsions:
REMARK  status: ('A' for Active; 'I' for Inactive)
REMARK    1  A    between atoms: O_1  and  C_2
REMARK                            x       y       z     vdW  Elec       q    Type
REMARK                         _______ _______ _______ _____ _____    ______ ____
ROOT
ATOM      1  C   UNL     1       5.607  -6.222  24.382  0.00  0.00    +0.156 A 
ATOM      2  C   UNL     1       6.276  -5.366  23.510  0.00  0.00    +0.058 A 
ATOM      3  I   UNL     1       6.217  -5.622  21.439  0.00  0.00    -0.040 I 
ATOM      4  C   UNL     1       7.004  -4.299  24.026  0.00  0.00    +0.033 A 
ATOM      5  C   UNL     1       7.053  -4.099  25.411  0.00  0.00    +0.024 A 
ATOM      6  I   UNL     1       8.198  -2.453  26.064  0.00  0.00    -0.043 I 
ATOM      7  C   UNL     1       6.365  -4.964  26.306  0.00  0.00    +0.017 A 
ATOM      8  C   UNL     1       6.337  -4.846  27.716  0.00  0.00    +0.012 A 
ATOM      9  C   UNL     1       5.623  -5.749  28.496  0.00  0.00    +0.020 A 
ATOM     10  C   UNL     1       4.947  -6.764  27.856  0.00  0.00    +0.111 A 
ATOM     11  N   UNL     1       4.941  -6.926  26.516  0.00  0.00    -0.251 NA
ATOM     12  C   UNL     1       5.633  -6.042  25.764  0.00  0.00    +0.114 A 
ENDROOT
BRANCH   1  13
ATOM     13  O   UNL     1       4.886  -7.292  23.894  0.00  0.00    -0.504 OA
ATOM     14  H   UNL     1       5.552  -7.836  23.421  0.00  0.00    +0.292 HD
ENDBRANCH   1  13
TORSDOF 1
ENDMDL
MODEL 8
REMARK VINA RESULT:      -4.6      2.440      4.112
REMARK  Name = 
REMARK  1 active torsions:
REMARK  status: ('A' for Active; 'I' for Inactive)
REMARK    1  A    between atoms: O_1  and  C_2
REMARK                            x       y       z     vdW  Elec       q    Type
REMARK                         _______ _______ _______ _____ _____    ______ ____
ROOT
ATOM      1  C   UNL     1       9.434  -2.101  24.573  0.00  0.00    +0.156 A 
ATOM      2  C   UNL     1       8.684  -2.659  25.606  0.00  0.00    +0.058 A 
ATOM      3  I   UNL     1       8.635  -4.716  25.957  0.00  0.00    -0.040 I 
ATOM      4  C   UNL     1       7.945  -1.825  26.440  0.00  0.00    +0.033 A 
ATOM      5  C   UNL     1       7.967  -0.441  26.231  0.00  0.00    +0.024 A 
ATOM      6  I   UNL     1       6.797   0.709  27.557  0.00  0.00    -0.043 I 
ATOM      7  C   UNL     1       8.738   0.135  25.185  0.00  0.00    +0.017 A 
ATOM      8  C   UNL     1       8.840   1.517  24.895  0.00  0.00    +0.012 A 
ATOM      9  C   UNL     1       9.633   1.971  23.846  0.00  0.00    +0.020 A 
ATOM     10  C   UNL     1      10.311   1.036  23.095  0.00  0.00    +0.111 A 
ATOM     11  N   UNL     1      10.247  -0.292  23.324  0.00  0.00    -0.251 NA
ATOM     12  C   UNL     1       9.479  -0.726  24.348  0.00  0.00    +0.114 A 
ENDROOT
BRANCH   1  13
ATOM     13  O   UNL     1      10.168  -2.907  23.729  0.00  0.00    -0.504 OA
ATOM     14  H   UNL     1      11.094  -2.802  24.039  0.00  0.00    +0.292 HD
ENDBRANCH   1  13
TORSDOF 1
ENDMDL
MODEL 9
REMARK VINA RESULT:      -4.6      3.126      3.359
REMARK  Name = 
REMARK  1 active torsions:
REMARK  status: ('A' for Active; 'I' for Inactive)
REMARK    1  A    between atoms: O_1  and  C_2
REMARK                            x       y       z     vdW  Elec       q    Type
REMARK                         _______ _______ _______ _____ _____    ______ ____
ROOT
ATOM      1  C   UNL     1       8.227  -2.607  23.079  0.00  0.00    +0.156 A 
ATOM      2  C   UNL     1       8.567  -2.131  24.344  0.00  0.00    +0.058 A 
ATOM      3  I   UNL     1       9.689  -0.390  24.609  0.00  0.00    -0.040 I 
ATOM      4  C   UNL     1       8.146  -2.827  25.472  0.00  0.00    +0.033 A 
ATOM      5  C   UNL     1       7.385  -3.993  25.322  0.00  0.00    +0.024 A 
ATOM      6  I   UNL     1       6.818  -4.958  27.110  0.00  0.00    -0.043 I 
ATOM      7  C   UNL     1       7.026  -4.480  24.035  0.00  0.00    +0.017 A 
ATOM      8  C   UNL     1       6.253  -5.636  23.772  0.00  0.00    +0.012 A 
ATOM      9  C   UNL     1       5.956  -6.017  22.468  0.00  0.00    +0.020 A 
ATOM     10  C   UNL     1       6.441  -5.238  21.440  0.00  0.00    +0.111 A 
ATOM     11  N   UNL     1       7.184  -4.129  21.633  0.00  0.00    -0.251 NA
ATOM     12  C   UNL     1       7.465  -3.762  22.902  0.00  0.00    +0.114 A 
ENDROOT
BRANCH   1  13
ATOM     13  O   UNL     1       8.640  -1.940  21.946  0.00  0.00    -0.504 OA
ATOM     14  H   UNL     1       9.376  -1.368  22.258  0.00  0.00    +0.292 HD
ENDBRANCH   1  13
TORSDOF 1
ENDMDL
