MODEL 1
REMARK VINA RESULT:      -7.8      0.000      0.000
REMARK  Name = 
REMARK  16 active torsions:
REMARK  status: ('A' for Active; 'I' for Inactive)
REMARK    1  A    between atoms: O_1  and  C_2
REMARK    2  A    between atoms: C_5  and  C_7
REMARK    3  A    between atoms: C_7  and  O_8
REMARK    4  A    between atoms: O_8  and  P_9
REMARK    5  A    between atoms: P_9  and  O_10
REMARK    6  A    between atoms: P_9  and  O_12
REMARK    7  A    between atoms: O_12  and  P_13
REMARK    8  A    between atoms: P_13  and  O_14
REMARK    9  A    between atoms: P_13  and  O_16
REMARK   10  A    between atoms: O_16  and  C_17
REMARK   11  A    between atoms: C_17  and  C_18
REMARK   12  A    between atoms: C_21  and  N_29
REMARK   13  A    between atoms: C_23  and  O_25
REMARK   14  A    between atoms: C_26  and  O_28
REMARK   15  A    between atoms: C_41  and  O_43
REMARK   16  A    between atoms: C_44  and  O_46
REMARK                            x       y       z     vdW  Elec       q    Type
REMARK                         _______ _______ _______ _____ _____    ______ ____
ROOT
ATOM      1  O   UNL     1       7.962  -2.081  22.162  0.00  0.00    -0.284 OA
ENDROOT
BRANCH   1   2
ATOM      2  P   UNL     1       9.392  -1.682  22.805  0.00  0.00    +0.483 P 
ATOM      3  O   UNL     1       9.849  -2.626  23.866  0.00  0.00    -0.227 OA
BRANCH   2   4
ATOM      4  O   UNL     1      10.291  -1.672  21.481  0.00  0.00    -0.302 OA
ATOM      5  H   UNL     1      11.008  -1.015  21.542  0.00  0.00    +0.222 HD
ENDBRANCH   2   4
BRANCH   2   6
ATOM      6  O   UNL     1       9.405  -0.099  23.277  0.00  0.00    -0.186 OA
BRANCH   6   7
ATOM      7  P   UNL     1       9.405  -0.284  24.997  0.00  0.00    +0.483 P 
ATOM      8  O   UNL     1      10.671   0.554  25.172  0.00  0.00    -0.227 OA
BRANCH   7   9
ATOM      9  O   UNL     1       9.405  -0.469  26.717  0.00  0.00    -0.302 OA
ATOM     10  H   UNL     1       9.370   0.454  27.040  0.00  0.00    +0.222 HD
ENDBRANCH   7   9
BRANCH   7  11
ATOM     11  O   UNL     1       8.092   0.685  25.106  0.00  0.00    -0.284 OA
BRANCH  11  12
ATOM     12  C   UNL     1       8.204   2.095  24.983  0.00  0.00    +0.206 C 
BRANCH  12  16
ATOM     13  C   UNL     1       8.008   4.154  22.727  0.00  0.00    +0.279 C 
ATOM     14  C   UNL     1       7.587   2.915  21.923  0.00  0.00    +0.201 C 
ATOM     15  C   UNL     1       6.766   2.081  22.900  0.00  0.00    +0.179 C 
ATOM     16  C   UNL     1       7.016   2.743  24.251  0.00  0.00    +0.179 C 
ATOM     17  O   UNL     1       7.307   4.125  23.965  0.00  0.00    -0.341 OA
BRANCH  13  18
ATOM     18  O   UNL     1       7.673   5.345  22.042  0.00  0.00    -0.365 OA
ATOM     19  H   UNL     1       7.217   5.897  22.699  0.00  0.00    +0.213 HD
ENDBRANCH  13  18
BRANCH  15  20
ATOM     20  O   UNL     1       5.383   2.137  22.548  0.00  0.00    -0.386 OA
ATOM     21  H   UNL     1       4.890   1.575  23.177  0.00  0.00    +0.210 HD
ENDBRANCH  15  20
BRANCH  14  22
ATOM     22  O   UNL     1       8.741   2.176  21.507  0.00  0.00    -0.384 OA
ATOM     23  H   UNL     1       8.857   2.360  20.556  0.00  0.00    +0.210 HD
ENDBRANCH  14  22
ENDBRANCH  12  16
ENDBRANCH  11  12
ENDBRANCH   7  11
ENDBRANCH   6   7
ENDBRANCH   2   6
ENDBRANCH   1   2
BRANCH   1  24
ATOM     24  C   UNL     1       6.683  -1.767  22.752  0.00  0.00    +0.206 C 
BRANCH  24  25
ATOM     25  C   UNL     1       5.777  -2.943  23.247  0.00  0.00    +0.178 C 
ATOM     26  C   UNL     1       6.198  -4.299  22.628  0.00  0.00    +0.178 C 
ATOM     27  C   UNL     1       6.903  -5.084  23.740  0.00  0.00    +0.195 C 
ATOM     28  C   UNL     1       6.867  -4.144  24.941  0.00  0.00    +0.253 C 
ATOM     29  O   UNL     1       5.865  -3.138  24.680  0.00  0.00    -0.346 OA
BRANCH  28  30
ATOM     30  N   UNL     1       6.600  -4.846  26.192  0.00  0.00    -0.286 N 
ATOM     31  C   UNL     1       5.354  -5.254  26.634  0.00  0.00    +0.168 A 
ATOM     32  N   UNL     1       4.157  -5.032  26.002  0.00  0.00    -0.217 NA
ATOM     33  C   UNL     1       3.130  -5.579  26.621  0.00  0.00    +0.207 A 
ATOM     34  N   UNL     1       3.235  -6.312  27.816  0.00  0.00    -0.288 N 
ATOM     35  C   UNL     1       4.433  -6.510  28.461  0.00  0.00    +0.168 A 
ATOM     36  N   UNL     1       4.290  -7.224  29.556  0.00  0.00    -0.234 NA
ATOM     37  C   UNL     1       2.940  -7.499  29.618  0.00  0.00    +0.131 A 
ATOM     38  C   UNL     1       2.265  -6.942  28.552  0.00  0.00    +0.114 A 
ATOM     39  C   UNL     1       5.622  -5.922  27.813  0.00  0.00    +0.151 A 
ATOM     40  N   UNL     1       6.940  -5.911  28.134  0.00  0.00    -0.230 NA
ATOM     41  C   UNL     1       7.506  -5.255  27.137  0.00  0.00    +0.203 A 
ENDBRANCH  28  30
BRANCH  27  42
ATOM     42  O   UNL     1       8.251  -5.403  23.375  0.00  0.00    -0.385 OA
ATOM     43  H   UNL     1       8.796  -4.635  23.628  0.00  0.00    +0.210 HD
ENDBRANCH  27  42
BRANCH  26  44
ATOM     44  O   UNL     1       5.043  -5.035  22.194  0.00  0.00    -0.386 OA
ATOM     45  H   UNL     1       4.480  -5.235  22.965  0.00  0.00    +0.210 HD
ENDBRANCH  26  44
ENDBRANCH  24  25
ENDBRANCH   1  24
TORSDOF 16
ENDMDL
MODEL 2
REMARK VINA RESULT:      -7.7      4.271      9.221
REMARK  Name = 
REMARK  16 active torsions:
REMARK  status: ('A' for Active; 'I' for Inactive)
REMARK    1  A    between atoms: O_1  and  C_2
REMARK    2  A    between atoms: C_5  and  C_7
REMARK    3  A    between atoms: C_7  and  O_8
REMARK    4  A    between atoms: O_8  and  P_9
REMARK    5  A    between atoms: P_9  and  O_10
REMARK    6  A    between atoms: P_9  and  O_12
REMARK    7  A    between atoms: O_12  and  P_13
REMARK    8  A    between atoms: P_13  and  O_14
REMARK    9  A    between atoms: P_13  and  O_16
REMARK   10  A    between atoms: O_16  and  C_17
REMARK   11  A    between atoms: C_17  and  C_18
REMARK   12  A    between atoms: C_21  and  N_29
REMARK   13  A    between atoms: C_23  and  O_25
REMARK   14  A    between atoms: C_26  and  O_28
REMARK   15  A    between atoms: C_41  and  O_43
REMARK   16  A    between atoms: C_44  and  O_46
REMARK                            x       y       z     vdW  Elec       q    Type
REMARK                         _______ _______ _______ _____ _____    ______ ____
ROOT
ATOM      1  O   UNL     1       8.804  -3.318  24.986  0.00  0.00    -0.284 OA
ENDROOT
BRANCH   1   2
ATOM      2  P   UNL     1       7.847  -4.621  24.927  0.00  0.00    +0.483 P 
ATOM      3  O   UNL     1       7.661  -5.158  23.547  0.00  0.00    -0.227 OA
BRANCH   2   4
ATOM      4  O   UNL     1       8.643  -5.588  25.923  0.00  0.00    -0.302 OA
ATOM      5  H   UNL     1       8.044  -6.007  26.568  0.00  0.00    +0.222 HD
ENDBRANCH   2   4
BRANCH   2   6
ATOM      6  O   UNL     1       6.427  -4.347  25.728  0.00  0.00    -0.186 OA
BRANCH   6   7
ATOM      7  P   UNL     1       6.688  -5.284  27.158  0.00  0.00    +0.483 P 
ATOM      8  O   UNL     1       5.784  -4.393  28.008  0.00  0.00    -0.227 OA
BRANCH   7   9
ATOM      9  O   UNL     1       6.949  -6.221  28.589  0.00  0.00    -0.302 OA
ATOM     10  H   UNL     1       6.062  -6.589  28.778  0.00  0.00    +0.222 HD
ENDBRANCH   7   9
BRANCH   7  11
ATOM     11  O   UNL     1       5.807  -6.507  26.524  0.00  0.00    -0.284 OA
BRANCH  11  12
ATOM     12  C   UNL     1       4.635  -6.255  25.763  0.00  0.00    +0.206 C 
BRANCH  12  16
ATOM     13  C   UNL     1       2.483  -7.378  23.899  0.00  0.00    +0.279 C 
ATOM     14  C   UNL     1       2.758  -6.069  23.144  0.00  0.00    +0.201 C 
ATOM     15  C   UNL     1       4.258  -5.845  23.294  0.00  0.00    +0.179 C 
ATOM     16  C   UNL     1       4.680  -6.861  24.350  0.00  0.00    +0.179 C 
ATOM     17  O   UNL     1       3.739  -7.947  24.248  0.00  0.00    -0.341 OA
BRANCH  13  18
ATOM     18  O   UNL     1       1.777  -8.296  23.088  0.00  0.00    -0.365 OA
ATOM     19  H   UNL     1       0.963  -7.834  22.828  0.00  0.00    +0.213 HD
ENDBRANCH  13  18
BRANCH  15  20
ATOM     20  O   UNL     1       4.916  -6.092  22.050  0.00  0.00    -0.386 OA
ATOM     21  H   UNL     1       5.031  -5.236  21.595  0.00  0.00    +0.210 HD
ENDBRANCH  15  20
BRANCH  14  22
ATOM     22  O   UNL     1       2.044  -4.985  23.749  0.00  0.00    -0.384 OA
ATOM     23  H   UNL     1       2.692  -4.268  23.879  0.00  0.00    +0.210 HD
ENDBRANCH  14  22
ENDBRANCH  12  16
ENDBRANCH  11  12
ENDBRANCH   7  11
ENDBRANCH   6   7
ENDBRANCH   2   6
ENDBRANCH   1   2
BRANCH   1  24
ATOM     24  C   UNL     1       9.897  -3.063  24.079  0.00  0.00    +0.206 C 
BRANCH  24  25
ATOM     25  C   UNL     1      10.022  -1.642  23.437  0.00  0.00    +0.178 C 
ATOM     26  C   UNL     1       8.960  -1.408  22.335  0.00  0.00    +0.178 C 
ATOM     27  C   UNL     1       7.916  -0.458  22.932  0.00  0.00    +0.195 C 
ATOM     28  C   UNL     1       8.415  -0.199  24.351  0.00  0.00    +0.253 C 
ATOM     29  O   UNL     1       9.806  -0.584  24.402  0.00  0.00    -0.346 OA
BRANCH  28  30
ATOM     30  N   UNL     1       8.233   1.189  24.762  0.00  0.00    -0.286 N 
ATOM     31  C   UNL     1       9.036   2.250  24.386  0.00  0.00    +0.168 A 
ATOM     32  N   UNL     1      10.161   2.178  23.603  0.00  0.00    -0.217 NA
ATOM     33  C   UNL     1      10.703   3.354  23.358  0.00  0.00    +0.207 A 
ATOM     34  N   UNL     1      10.195   4.569  23.850  0.00  0.00    -0.288 N 
ATOM     35  C   UNL     1       9.083   4.635  24.655  0.00  0.00    +0.168 A 
ATOM     36  N   UNL     1       8.793   5.873  24.993  0.00  0.00    -0.234 NA
ATOM     37  C   UNL     1       9.760   6.637  24.376  0.00  0.00    +0.131 A 
ATOM     38  C   UNL     1      10.643   5.851  23.664  0.00  0.00    +0.114 A 
ATOM     39  C   UNL     1       8.430   3.348  24.964  0.00  0.00    +0.151 A 
ATOM     40  N   UNL     1       7.337   3.017  25.697  0.00  0.00    -0.230 NA
ATOM     41  C   UNL     1       7.243   1.707  25.557  0.00  0.00    +0.203 A 
ENDBRANCH  28  30
BRANCH  27  42
ATOM     42  O   UNL     1       6.616  -1.059  22.946  0.00  0.00    -0.385 OA
ATOM     43  H   UNL     1       6.376  -1.183  23.883  0.00  0.00    +0.210 HD
ENDBRANCH  27  42
BRANCH  26  44
ATOM     44  O   UNL     1       9.557  -0.785  21.185  0.00  0.00    -0.386 OA
ATOM     45  H   UNL     1       9.020  -0.015  20.921  0.00  0.00    +0.210 HD
ENDBRANCH  26  44
ENDBRANCH  24  25
ENDBRANCH   1  24
TORSDOF 16
ENDMDL
MODEL 3
REMARK VINA RESULT:      -7.7      4.568      8.640
REMARK  Name = 
REMARK  16 active torsions:
REMARK  status: ('A' for Active; 'I' for Inactive)
REMARK    1  A    between atoms: O_1  and  C_2
REMARK    2  A    between atoms: C_5  and  C_7
REMARK    3  A    between atoms: C_7  and  O_8
REMARK    4  A    between atoms: O_8  and  P_9
REMARK    5  A    between atoms: P_9  and  O_10
REMARK    6  A    between atoms: P_9  and  O_12
REMARK    7  A    between atoms: O_12  and  P_13
REMARK    8  A    between atoms: P_13  and  O_14
REMARK    9  A    between atoms: P_13  and  O_16
REMARK   10  A    between atoms: O_16  and  C_17
REMARK   11  A    between atoms: C_17  and  C_18
REMARK   12  A    between atoms: C_21  and  N_29
REMARK   13  A    between atoms: C_23  and  O_25
REMARK   14  A    between atoms: C_26  and  O_28
REMARK   15  A    between atoms: C_41  and  O_43
REMARK   16  A    between atoms: C_44  and  O_46
REMARK                            x       y       z     vdW  Elec       q    Type
REMARK                         _______ _______ _______ _____ _____    ______ ____
ROOT
ATOM      1  O   UNL     1       7.191  -5.591  28.146  0.00  0.00    -0.284 OA
ENDROOT
BRANCH   1   2
ATOM      2  P   UNL     1       5.845  -6.068  28.907  0.00  0.00    +0.483 P 
ATOM      3  O   UNL     1       5.685  -7.551  28.957  0.00  0.00    -0.227 OA
BRANCH   2   4
ATOM      4  O   UNL     1       6.076  -5.369  30.328  0.00  0.00    -0.302 OA
ATOM      5  H   UNL     1       5.675  -5.887  31.050  0.00  0.00    +0.222 HD
ENDBRANCH   2   4
BRANCH   2   6
ATOM      6  O   UNL     1       4.520  -5.278  28.314  0.00  0.00    -0.186 OA
BRANCH   6   7
ATOM      7  P   UNL     1       3.397  -6.588  28.206  0.00  0.00    +0.483 P 
ATOM      8  O   UNL     1       2.322  -5.843  28.997  0.00  0.00    -0.227 OA
BRANCH   7   9
ATOM      9  O   UNL     1       2.272  -7.899  28.099  0.00  0.00    -0.302 OA
ATOM     10  H   UNL     1       2.838  -8.658  27.852  0.00  0.00    +0.222 HD
ENDBRANCH   7   9
BRANCH   7  11
ATOM     11  O   UNL     1       3.199  -6.295  26.609  0.00  0.00    -0.284 OA
BRANCH  11  12
ATOM     12  C   UNL     1       4.085  -6.843  25.644  0.00  0.00    +0.206 C 
BRANCH  12  16
ATOM     13  C   UNL     1       4.629  -6.104  22.724  0.00  0.00    +0.279 C 
ATOM     14  C   UNL     1       3.796  -4.871  23.105  0.00  0.00    +0.201 C 
ATOM     15  C   UNL     1       4.194  -4.566  24.544  0.00  0.00    +0.179 C 
ATOM     16  C   UNL     1       4.989  -5.793  24.976  0.00  0.00    +0.179 C 
ATOM     17  O   UNL     1       5.565  -6.333  23.770  0.00  0.00    -0.341 OA
BRANCH  13  18
ATOM     18  O   UNL     1       5.337  -5.889  21.519  0.00  0.00    -0.365 OA
ATOM     19  H   UNL     1       4.995  -6.555  20.900  0.00  0.00    +0.213 HD
ENDBRANCH  13  18
BRANCH  15  20
ATOM     20  O   UNL     1       5.002  -3.388  24.589  0.00  0.00    -0.386 OA
ATOM     21  H   UNL     1       5.227  -3.213  25.523  0.00  0.00    +0.210 HD
ENDBRANCH  15  20
BRANCH  14  22
ATOM     22  O   UNL     1       2.399  -5.176  23.044  0.00  0.00    -0.384 OA
ATOM     23  H   UNL     1       2.330  -6.079  22.683  0.00  0.00    +0.210 HD
ENDBRANCH  14  22
ENDBRANCH  12  16
ENDBRANCH  11  12
ENDBRANCH   7  11
ENDBRANCH   6   7
ENDBRANCH   2   6
ENDBRANCH   1   2
BRANCH   1  24
ATOM     24  C   UNL     1       7.237  -4.567  27.129  0.00  0.00    +0.206 C 
BRANCH  24  25
ATOM     25  C   UNL     1       8.610  -4.245  26.453  0.00  0.00    +0.178 C 
ATOM     26  C   UNL     1       8.767  -4.962  25.089  0.00  0.00    +0.178 C 
ATOM     27  C   UNL     1       8.592  -3.886  24.010  0.00  0.00    +0.195 C 
ATOM     28  C   UNL     1       8.331  -2.606  24.799  0.00  0.00    +0.253 C 
ATOM     29  O   UNL     1       8.759  -2.835  26.159  0.00  0.00    -0.346 OA
BRANCH  28  30
ATOM     30  N   UNL     1       9.001  -1.447  24.219  0.00  0.00    -0.286 N 
ATOM     31  C   UNL     1       8.698  -0.125  24.490  0.00  0.00    +0.168 A 
ATOM     32  N   UNL     1       7.694   0.325  25.310  0.00  0.00    -0.217 NA
ATOM     33  C   UNL     1       7.665   1.637  25.430  0.00  0.00    +0.207 A 
ATOM     34  N   UNL     1       8.562   2.502  24.779  0.00  0.00    -0.288 N 
ATOM     35  C   UNL     1       9.550   2.050  23.938  0.00  0.00    +0.168 A 
ATOM     36  N   UNL     1      10.267   3.037  23.446  0.00  0.00    -0.234 NA
ATOM     37  C   UNL     1       9.717   4.175  23.997  0.00  0.00    +0.131 A 
ATOM     38  C   UNL     1       8.656   3.869  24.825  0.00  0.00    +0.114 A 
ATOM     39  C   UNL     1       9.634   0.586  23.766  0.00  0.00    +0.151 A 
ATOM     40  N   UNL     1      10.457  -0.214  23.044  0.00  0.00    -0.230 NA
ATOM     41  C   UNL     1      10.051  -1.436  23.338  0.00  0.00    +0.203 A 
ENDBRANCH  28  30
BRANCH  27  42
ATOM     42  O   UNL     1       7.492  -4.193  23.146  0.00  0.00    -0.385 OA
ATOM     43  H   UNL     1       7.363  -5.158  23.193  0.00  0.00    +0.210 HD
ENDBRANCH  27  42
BRANCH  26  44
ATOM     44  O   UNL     1      10.079  -5.536  24.970  0.00  0.00    -0.386 OA
ATOM     45  H   UNL     1      10.049  -6.284  24.345  0.00  0.00    +0.210 HD
ENDBRANCH  26  44
ENDBRANCH  24  25
ENDBRANCH   1  24
TORSDOF 16
ENDMDL
MODEL 4
REMARK VINA RESULT:      -7.6      4.159      8.719
REMARK  Name = 
REMARK  16 active torsions:
REMARK  status: ('A' for Active; 'I' for Inactive)
REMARK    1  A    between atoms: O_1  and  C_2
REMARK    2  A    between atoms: C_5  and  C_7
REMARK    3  A    between atoms: C_7  and  O_8
REMARK    4  A    between atoms: O_8  and  P_9
REMARK    5  A    between atoms: P_9  and  O_10
REMARK    6  A    between atoms: P_9  and  O_12
REMARK    7  A    between atoms: O_12  and  P_13
REMARK    8  A    between atoms: P_13  and  O_14
REMARK    9  A    between atoms: P_13  and  O_16
REMARK   10  A    between atoms: O_16  and  C_17
REMARK   11  A    between atoms: C_17  and  C_18
REMARK   12  A    between atoms: C_21  and  N_29
REMARK   13  A    between atoms: C_23  and  O_25
REMARK   14  A    between atoms: C_26  and  O_28
REMARK   15  A    between atoms: C_41  and  O_43
REMARK   16  A    between atoms: C_44  and  O_46
REMARK                            x       y       z     vdW  Elec       q    Type
REMARK                         _______ _______ _______ _____ _____    ______ ____
ROOT
ATOM      1  O   UNL     1      10.188  -3.714  24.196  0.00  0.00    -0.284 OA
ENDROOT
BRANCH   1   2
ATOM      2  P   UNL     1       9.235  -4.798  24.925  0.00  0.00    +0.483 P 
ATOM      3  O   UNL     1       8.437  -5.622  23.972  0.00  0.00    -0.227 OA
BRANCH   2   4
ATOM      4  O   UNL     1      10.335  -5.609  25.758  0.00  0.00    -0.302 OA
ATOM      5  H   UNL     1      11.083  -5.877  25.194  0.00  0.00    +0.222 HD
ENDBRANCH   2   4
BRANCH   2   6
ATOM      6  O   UNL     1       8.325  -4.084  26.106  0.00  0.00    -0.186 OA
BRANCH   6   7
ATOM      7  P   UNL     1       7.085  -5.272  26.308  0.00  0.00    +0.483 P 
ATOM      8  O   UNL     1       7.249  -5.306  27.827  0.00  0.00    -0.227 OA
BRANCH   7   9
ATOM      9  O   UNL     1       5.845  -6.462  26.512  0.00  0.00    -0.302 OA
ATOM     10  H   UNL     1       5.181  -5.999  27.063  0.00  0.00    +0.222 HD
ENDBRANCH   7   9
BRANCH   7  11
ATOM     11  O   UNL     1       5.950  -4.165  25.907  0.00  0.00    -0.284 OA
BRANCH  11  12
ATOM     12  C   UNL     1       4.566  -4.473  25.968  0.00  0.00    +0.206 C 
BRANCH  12  16
ATOM     13  C   UNL     1       5.097  -5.223  23.048  0.00  0.00    +0.279 C 
ATOM     14  C   UNL     1       3.914  -6.170  23.301  0.00  0.00    +0.201 C 
ATOM     15  C   UNL     1       2.982  -5.387  24.218  0.00  0.00    +0.179 C 
ATOM     16  C   UNL     1       3.816  -4.188  24.656  0.00  0.00    +0.179 C 
ATOM     17  O   UNL     1       4.757  -3.952  23.590  0.00  0.00    -0.341 OA
BRANCH  13  18
ATOM     18  O   UNL     1       5.347  -5.076  21.665  0.00  0.00    -0.365 OA
ATOM     19  H   UNL     1       5.850  -5.867  21.410  0.00  0.00    +0.213 HD
ENDBRANCH  13  18
BRANCH  15  20
ATOM     20  O   UNL     1       1.821  -4.970  23.496  0.00  0.00    -0.386 OA
ATOM     21  H   UNL     1       1.057  -5.469  23.843  0.00  0.00    +0.210 HD
ENDBRANCH  15  20
BRANCH  14  22
ATOM     22  O   UNL     1       4.359  -7.358  23.964  0.00  0.00    -0.384 OA
ATOM     23  H   UNL     1       5.332  -7.366  23.889  0.00  0.00    +0.210 HD
ENDBRANCH  14  22
ENDBRANCH  12  16
ENDBRANCH  11  12
ENDBRANCH   7  11
ENDBRANCH   6   7
ENDBRANCH   2   6
ENDBRANCH   1   2
BRANCH   1  24
ATOM     24  C   UNL     1       9.923  -2.296  24.141  0.00  0.00    +0.206 C 
BRANCH  24  25
ATOM     25  C   UNL     1       9.011  -1.748  22.994  0.00  0.00    +0.178 C 
ATOM     26  C   UNL     1       7.550  -2.244  23.130  0.00  0.00    +0.178 C 
ATOM     27  C   UNL     1       6.729  -1.047  23.625  0.00  0.00    +0.195 C 
ATOM     28  C   UNL     1       7.754   0.075  23.764  0.00  0.00    +0.253 C 
ATOM     29  O   UNL     1       8.923  -0.303  23.006  0.00  0.00    -0.346 OA
BRANCH  28  30
ATOM     30  N   UNL     1       7.231   1.366  23.325  0.00  0.00    -0.286 N 
ATOM     31  C   UNL     1       7.848   2.589  23.515  0.00  0.00    +0.168 A 
ATOM     32  N   UNL     1       9.026   2.807  24.182  0.00  0.00    -0.217 NA
ATOM     33  C   UNL     1       9.411   4.067  24.164  0.00  0.00    +0.207 A 
ATOM     34  N   UNL     1       8.689   5.098  23.537  0.00  0.00    -0.288 N 
ATOM     35  C   UNL     1       7.495   4.880  22.892  0.00  0.00    +0.168 A 
ATOM     36  N   UNL     1       7.003   5.987  22.380  0.00  0.00    -0.234 NA
ATOM     37  C   UNL     1       7.922   6.961  22.709  0.00  0.00    +0.131 A 
ATOM     38  C   UNL     1       8.975   6.434  23.429  0.00  0.00    +0.114 A 
ATOM     39  C   UNL     1       7.013   3.484  22.876  0.00  0.00    +0.151 A 
ATOM     40  N   UNL     1       5.914   2.892  22.347  0.00  0.00    -0.230 NA
ATOM     41  C   UNL     1       6.072   1.612  22.634  0.00  0.00    +0.203 A 
ENDBRANCH  28  30
BRANCH  27  42
ATOM     42  O   UNL     1       6.103  -1.332  24.881  0.00  0.00    -0.385 OA
ATOM     43  H   UNL     1       6.816  -1.364  25.546  0.00  0.00    +0.210 HD
ENDBRANCH  27  42
BRANCH  26  44
ATOM     44  O   UNL     1       7.041  -2.665  21.853  0.00  0.00    -0.386 OA
ATOM     45  H   UNL     1       6.623  -1.905  21.406  0.00  0.00    +0.210 HD
ENDBRANCH  26  44
ENDBRANCH  24  25
ENDBRANCH   1  24
TORSDOF 16
ENDMDL
MODEL 5
REMARK VINA RESULT:      -7.6      4.586      8.470
REMARK  Name = 
REMARK  16 active torsions:
REMARK  status: ('A' for Active; 'I' for Inactive)
REMARK    1  A    between atoms: O_1  and  C_2
REMARK    2  A    between atoms: C_5  and  C_7
REMARK    3  A    between atoms: C_7  and  O_8
REMARK    4  A    between atoms: O_8  and  P_9
REMARK    5  A    between atoms: P_9  and  O_10
REMARK    6  A    between atoms: P_9  and  O_12
REMARK    7  A    between atoms: O_12  and  P_13
REMARK    8  A    between atoms: P_13  and  O_14
REMARK    9  A    between atoms: P_13  and  O_16
REMARK   10  A    between atoms: O_16  and  C_17
REMARK   11  A    between atoms: C_17  and  C_18
REMARK   12  A    between atoms: C_21  and  N_29
REMARK   13  A    between atoms: C_23  and  O_25
REMARK   14  A    between atoms: C_26  and  O_28
REMARK   15  A    between atoms: C_41  and  O_43
REMARK   16  A    between atoms: C_44  and  O_46
REMARK                            x       y       z     vdW  Elec       q    Type
REMARK                         _______ _______ _______ _____ _____    ______ ____
ROOT
ATOM      1  O   UNL     1       6.782  -5.210  28.435  0.00  0.00    -0.284 OA
ENDROOT
BRANCH   1   2
ATOM      2  P   UNL     1       5.367  -5.814  28.935  0.00  0.00    +0.483 P 
ATOM      3  O   UNL     1       5.509  -6.905  29.942  0.00  0.00    -0.227 OA
BRANCH   2   4
ATOM      4  O   UNL     1       4.681  -4.476  29.485  0.00  0.00    -0.302 OA
ATOM      5  H   UNL     1       4.947  -4.291  30.404  0.00  0.00    +0.222 HD
ENDBRANCH   2   4
BRANCH   2   6
ATOM      6  O   UNL     1       4.412  -6.220  27.649  0.00  0.00    -0.186 OA
BRANCH   6   7
ATOM      7  P   UNL     1       3.395  -4.824  27.559  0.00  0.00    +0.483 P 
ATOM      8  O   UNL     1       4.447  -4.002  26.816  0.00  0.00    -0.227 OA
BRANCH   7   9
ATOM      9  O   UNL     1       2.379  -3.426  27.470  0.00  0.00    -0.302 OA
ATOM     10  H   UNL     1       2.723  -2.951  26.686  0.00  0.00    +0.222 HD
ENDBRANCH   7   9
BRANCH   7  11
ATOM     11  O   UNL     1       2.435  -5.585  26.476  0.00  0.00    -0.284 OA
BRANCH  11  12
ATOM     12  C   UNL     1       2.050  -4.958  25.262  0.00  0.00    +0.206 C 
BRANCH  12  16
ATOM     13  C   UNL     1       4.246  -5.309  23.159  0.00  0.00    +0.279 C 
ATOM     14  C   UNL     1       4.470  -6.622  23.922  0.00  0.00    +0.201 C 
ATOM     15  C   UNL     1       3.072  -7.076  24.327  0.00  0.00    +0.179 C 
ATOM     16  C   UNL     1       2.190  -5.868  24.031  0.00  0.00    +0.179 C 
ATOM     17  O   UNL     1       2.845  -5.156  22.962  0.00  0.00    -0.341 OA
BRANCH  13  18
ATOM     18  O   UNL     1       4.882  -5.338  21.896  0.00  0.00    -0.365 OA
ATOM     19  H   UNL     1       5.532  -4.616  21.921  0.00  0.00    +0.213 HD
ENDBRANCH  13  18
BRANCH  15  20
ATOM     20  O   UNL     1       2.678  -8.205  23.544  0.00  0.00    -0.386 OA
ATOM     21  H   UNL     1       2.665  -8.986  24.129  0.00  0.00    +0.210 HD
ENDBRANCH  15  20
BRANCH  14  22
ATOM     22  O   UNL     1       5.261  -6.389  25.093  0.00  0.00    -0.384 OA
ATOM     23  H   UNL     1       5.781  -7.201  25.239  0.00  0.00    +0.210 HD
ENDBRANCH  14  22
ENDBRANCH  12  16
ENDBRANCH  11  12
ENDBRANCH   7  11
ENDBRANCH   6   7
ENDBRANCH   2   6
ENDBRANCH   1   2
BRANCH   1  24
ATOM     24  C   UNL     1       7.517  -5.688  27.288  0.00  0.00    +0.206 C 
BRANCH  24  25
ATOM     25  C   UNL     1       8.507  -4.711  26.572  0.00  0.00    +0.178 C 
ATOM     26  C   UNL     1       9.049  -5.303  25.248  0.00  0.00    +0.178 C 
ATOM     27  C   UNL     1       8.337  -4.556  24.114  0.00  0.00    +0.195 C 
ATOM     28  C   UNL     1       7.411  -3.580  24.835  0.00  0.00    +0.253 C 
ATOM     29  O   UNL     1       7.873  -3.464  26.198  0.00  0.00    -0.346 OA
BRANCH  28  30
ATOM     30  N   UNL     1       7.355  -2.277  24.181  0.00  0.00    -0.286 N 
ATOM     31  C   UNL     1       8.307  -1.280  24.294  0.00  0.00    +0.168 A 
ATOM     32  N   UNL     1       9.438  -1.323  25.070  0.00  0.00    -0.217 NA
ATOM     33  C   UNL     1      10.198  -0.254  24.947  0.00  0.00    +0.207 A 
ATOM     34  N   UNL     1       9.888   0.835  24.114  0.00  0.00    -0.288 N 
ATOM     35  C   UNL     1       8.741   0.887  23.357  0.00  0.00    +0.168 A 
ATOM     36  N   UNL     1       8.663   1.998  22.657  0.00  0.00    -0.234 NA
ATOM     37  C   UNL     1       9.812   2.691  22.976  0.00  0.00    +0.131 A 
ATOM     38  C   UNL     1      10.586   1.992  23.879  0.00  0.00    +0.114 A 
ATOM     39  C   UNL     1       7.849  -0.286  23.453  0.00  0.00    +0.151 A 
ATOM     40  N   UNL     1       6.666  -0.597  22.869  0.00  0.00    -0.230 NA
ATOM     41  C   UNL     1       6.392  -1.805  23.327  0.00  0.00    +0.203 A 
ENDBRANCH  28  30
BRANCH  27  42
ATOM     42  O   UNL     1       7.592  -5.457  23.287  0.00  0.00    -0.385 OA
ATOM     43  H   UNL     1       6.719  -5.047  23.145  0.00  0.00    +0.210 HD
ENDBRANCH  27  42
BRANCH  26  44
ATOM     44  O   UNL     1      10.465  -5.080  25.139  0.00  0.00    -0.386 OA
ATOM     45  H   UNL     1      10.699  -4.259  25.610  0.00  0.00    +0.210 HD
ENDBRANCH  26  44
ENDBRANCH  24  25
ENDBRANCH   1  24
TORSDOF 16
ENDMDL
MODEL 6
REMARK VINA RESULT:      -7.5      2.034      2.442
REMARK  Name = 
REMARK  16 active torsions:
REMARK  status: ('A' for Active; 'I' for Inactive)
REMARK    1  A    between atoms: O_1  and  C_2
REMARK    2  A    between atoms: C_5  and  C_7
REMARK    3  A    between atoms: C_7  and  O_8
REMARK    4  A    between atoms: O_8  and  P_9
REMARK    5  A    between atoms: P_9  and  O_10
REMARK    6  A    between atoms: P_9  and  O_12
REMARK    7  A    between atoms: O_12  and  P_13
REMARK    8  A    between atoms: P_13  and  O_14
REMARK    9  A    between atoms: P_13  and  O_16
REMARK   10  A    between atoms: O_16  and  C_17
REMARK   11  A    between atoms: C_17  and  C_18
REMARK   12  A    between atoms: C_21  and  N_29
REMARK   13  A    between atoms: C_23  and  O_25
REMARK   14  A    between atoms: C_26  and  O_28
REMARK   15  A    between atoms: C_41  and  O_43
REMARK   16  A    between atoms: C_44  and  O_46
REMARK                            x       y       z     vdW  Elec       q    Type
REMARK                         _______ _______ _______ _____ _____    ______ ____
ROOT
ATOM      1  O   UNL     1       7.801  -1.479  22.111  0.00  0.00    -0.284 OA
ENDROOT
BRANCH   1   2
ATOM      2  P   UNL     1       9.269  -1.493  22.792  0.00  0.00    +0.483 P 
ATOM      3  O   UNL     1       9.464  -2.613  23.758  0.00  0.00    -0.227 OA
BRANCH   2   4
ATOM      4  O   UNL     1      10.177  -1.574  21.477  0.00  0.00    -0.302 OA
ATOM      5  H   UNL     1       9.713  -1.210  20.700  0.00  0.00    +0.222 HD
ENDBRANCH   2   4
BRANCH   2   6
ATOM      6  O   UNL     1       9.645  -0.009  23.414  0.00  0.00    -0.186 OA
BRANCH   6   7
ATOM      7  P   UNL     1       9.478  -0.325  25.106  0.00  0.00    +0.483 P 
ATOM      8  O   UNL     1      10.753   0.439  25.460  0.00  0.00    -0.227 OA
BRANCH   7   9
ATOM      9  O   UNL     1       9.312  -0.642  26.799  0.00  0.00    -0.302 OA
ATOM     10  H   UNL     1      10.163  -1.067  27.030  0.00  0.00    +0.222 HD
ENDBRANCH   7   9
BRANCH   7  11
ATOM     11  O   UNL     1       8.197   0.690  25.175  0.00  0.00    -0.284 OA
BRANCH  11  12
ATOM     12  C   UNL     1       8.337   2.074  24.890  0.00  0.00    +0.206 C 
BRANCH  12  16
ATOM     13  C   UNL     1       8.036   4.049  22.572  0.00  0.00    +0.279 C 
ATOM     14  C   UNL     1       7.606   2.778  21.826  0.00  0.00    +0.201 C 
ATOM     15  C   UNL     1       6.831   1.968  22.859  0.00  0.00    +0.179 C 
ATOM     16  C   UNL     1       7.117   2.680  24.177  0.00  0.00    +0.179 C 
ATOM     17  O   UNL     1       7.378   4.055  23.833  0.00  0.00    -0.341 OA
BRANCH  13  18
ATOM     18  O   UNL     1       7.661   5.211  21.858  0.00  0.00    -0.365 OA
ATOM     19  H   UNL     1       7.723   5.937  22.501  0.00  0.00    +0.213 HD
ENDBRANCH  13  18
BRANCH  15  20
ATOM     20  O   UNL     1       5.435   1.993  22.554  0.00  0.00    -0.386 OA
ATOM     21  H   UNL     1       5.329   2.378  21.663  0.00  0.00    +0.210 HD
ENDBRANCH  15  20
BRANCH  14  22
ATOM     22  O   UNL     1       8.755   2.039  21.397  0.00  0.00    -0.384 OA
ATOM     23  H   UNL     1       8.661   1.143  21.770  0.00  0.00    +0.210 HD
ENDBRANCH  14  22
ENDBRANCH  12  16
ENDBRANCH  11  12
ENDBRANCH   7  11
ENDBRANCH   6   7
ENDBRANCH   2   6
ENDBRANCH   1   2
BRANCH   1  24
ATOM     24  C   UNL     1       6.569  -1.735  22.818  0.00  0.00    +0.206 C 
BRANCH  24  25
ATOM     25  C   UNL     1       5.702  -2.965  22.389  0.00  0.00    +0.178 C 
ATOM     26  C   UNL     1       6.560  -4.088  21.757  0.00  0.00    +0.178 C 
ATOM     27  C   UNL     1       6.659  -5.202  22.805  0.00  0.00    +0.195 C 
ATOM     28  C   UNL     1       5.866  -4.667  23.994  0.00  0.00    +0.253 C 
ATOM     29  O   UNL     1       5.037  -3.586  23.516  0.00  0.00    -0.346 OA
BRANCH  28  30
ATOM     30  N   UNL     1       5.067  -5.702  24.643  0.00  0.00    -0.286 N 
ATOM     31  C   UNL     1       3.918  -6.272  24.127  0.00  0.00    +0.168 A 
ATOM     32  N   UNL     1       3.307  -5.936  22.945  0.00  0.00    -0.217 NA
ATOM     33  C   UNL     1       2.254  -6.679  22.672  0.00  0.00    +0.207 A 
ATOM     34  N   UNL     1       1.785  -7.710  23.504  0.00  0.00    -0.288 N 
ATOM     35  C   UNL     1       2.384  -8.027  24.700  0.00  0.00    +0.168 A 
ATOM     36  N   UNL     1       1.777  -9.023  25.306  0.00  0.00    -0.234 NA
ATOM     37  C   UNL     1       0.741  -9.365  24.461  0.00  0.00    +0.131 A 
ATOM     38  C   UNL     1       0.724  -8.563  23.339  0.00  0.00    +0.114 A 
ATOM     39  C   UNL     1       3.573  -7.229  25.060  0.00  0.00    +0.151 A 
ATOM     40  N   UNL     1       4.413  -7.250  26.125  0.00  0.00    -0.230 NA
ATOM     41  C   UNL     1       5.305  -6.317  25.845  0.00  0.00    +0.203 A 
ENDBRANCH  28  30
BRANCH  27  42
ATOM     42  O   UNL     1       8.021  -5.455  23.166  0.00  0.00    -0.385 OA
ATOM     43  H   UNL     1       8.431  -5.909  22.406  0.00  0.00    +0.210 HD
ENDBRANCH  27  42
BRANCH  26  44
ATOM     44  O   UNL     1       5.921  -4.607  20.579  0.00  0.00    -0.386 OA
ATOM     45  H   UNL     1       5.540  -5.482  20.778  0.00  0.00    +0.210 HD
ENDBRANCH  26  44
ENDBRANCH  24  25
ENDBRANCH   1  24
TORSDOF 16
ENDMDL
MODEL 7
REMARK VINA RESULT:      -7.5      4.402      9.024
REMARK  Name = 
REMARK  16 active torsions:
REMARK  status: ('A' for Active; 'I' for Inactive)
REMARK    1  A    between atoms: O_1  and  C_2
REMARK    2  A    between atoms: C_5  and  C_7
REMARK    3  A    between atoms: C_7  and  O_8
REMARK    4  A    between atoms: O_8  and  P_9
REMARK    5  A    between atoms: P_9  and  O_10
REMARK    6  A    between atoms: P_9  and  O_12
REMARK    7  A    between atoms: O_12  and  P_13
REMARK    8  A    between atoms: P_13  and  O_14
REMARK    9  A    between atoms: P_13  and  O_16
REMARK   10  A    between atoms: O_16  and  C_17
REMARK   11  A    between atoms: C_17  and  C_18
REMARK   12  A    between atoms: C_21  and  N_29
REMARK   13  A    between atoms: C_23  and  O_25
REMARK   14  A    between atoms: C_26  and  O_28
REMARK   15  A    between atoms: C_41  and  O_43
REMARK   16  A    between atoms: C_44  and  O_46
REMARK                            x       y       z     vdW  Elec       q    Type
REMARK                         _______ _______ _______ _____ _____    ______ ____
ROOT
ATOM      1  O   UNL     1       8.454  -3.046  24.304  0.00  0.00    -0.284 OA
ENDROOT
BRANCH   1   2
ATOM      2  P   UNL     1       7.875  -4.557  24.282  0.00  0.00    +0.483 P 
ATOM      3  O   UNL     1       7.779  -5.136  22.910  0.00  0.00    -0.227 OA
BRANCH   2   4
ATOM      4  O   UNL     1       8.941  -5.270  25.240  0.00  0.00    -0.302 OA
ATOM      5  H   UNL     1       9.597  -5.776  24.728  0.00  0.00    +0.222 HD
ENDBRANCH   2   4
BRANCH   2   6
ATOM      6  O   UNL     1       6.469  -4.663  25.144  0.00  0.00    -0.186 OA
BRANCH   6   7
ATOM      7  P   UNL     1       7.033  -5.472  26.565  0.00  0.00    +0.483 P 
ATOM      8  O   UNL     1       6.971  -4.203  27.414  0.00  0.00    -0.227 OA
BRANCH   7   9
ATOM      9  O   UNL     1       7.598  -6.281  27.987  0.00  0.00    -0.302 OA
ATOM     10  H   UNL     1       7.337  -5.672  28.707  0.00  0.00    +0.222 HD
ENDBRANCH   7   9
BRANCH   7  11
ATOM     11  O   UNL     1       5.612  -6.273  26.680  0.00  0.00    -0.284 OA
BRANCH  11  12
ATOM     12  C   UNL     1       4.375  -5.578  26.724  0.00  0.00    +0.206 C 
BRANCH  12  16
ATOM     13  C   UNL     1       3.107  -5.516  23.939  0.00  0.00    +0.279 C 
ATOM     14  C   UNL     1       3.829  -6.865  23.814  0.00  0.00    +0.201 C 
ATOM     15  C   UNL     1       3.720  -7.490  25.200  0.00  0.00    +0.179 C 
ATOM     16  C   UNL     1       3.213  -6.353  26.080  0.00  0.00    +0.179 C 
ATOM     17  O   UNL     1       2.463  -5.485  25.208  0.00  0.00    -0.341 OA
BRANCH  13  18
ATOM     18  O   UNL     1       2.128  -5.365  22.929  0.00  0.00    -0.365 OA
ATOM     19  H   UNL     1       2.557  -5.667  22.111  0.00  0.00    +0.213 HD
ENDBRANCH  13  18
BRANCH  15  20
ATOM     20  O   UNL     1       2.791  -8.575  25.175  0.00  0.00    -0.386 OA
ATOM     21  H   UNL     1       1.891  -8.202  25.235  0.00  0.00    +0.210 HD
ENDBRANCH  15  20
BRANCH  14  22
ATOM     22  O   UNL     1       5.207  -6.663  23.481  0.00  0.00    -0.384 OA
ATOM     23  H   UNL     1       5.277  -6.783  22.516  0.00  0.00    +0.210 HD
ENDBRANCH  14  22
ENDBRANCH  12  16
ENDBRANCH  11  12
ENDBRANCH   7  11
ENDBRANCH   6   7
ENDBRANCH   2   6
ENDBRANCH   1   2
BRANCH   1  24
ATOM     24  C   UNL     1       9.835  -2.696  24.076  0.00  0.00    +0.206 C 
BRANCH  24  25
ATOM     25  C   UNL     1      10.158  -1.522  23.093  0.00  0.00    +0.178 C 
ATOM     26  C   UNL     1       8.977  -1.227  22.135  0.00  0.00    +0.178 C 
ATOM     27  C   UNL     1       8.333   0.074  22.627  0.00  0.00    +0.195 C 
ATOM     28  C   UNL     1       9.161   0.461  23.849  0.00  0.00    +0.253 C 
ATOM     29  O   UNL     1      10.402  -0.276  23.789  0.00  0.00    -0.346 OA
BRANCH  28  30
ATOM     30  N   UNL     1       9.401   1.899  23.928  0.00  0.00    -0.286 N 
ATOM     31  C   UNL     1       8.721   2.783  24.745  0.00  0.00    +0.168 A 
ATOM     32  N   UNL     1       7.680   2.474  25.584  0.00  0.00    -0.217 NA
ATOM     33  C   UNL     1       7.253   3.503  26.288  0.00  0.00    +0.207 A 
ATOM     34  N   UNL     1       7.794   4.797  26.191  0.00  0.00    -0.288 N 
ATOM     35  C   UNL     1       8.820   5.109  25.330  0.00  0.00    +0.168 A 
ATOM     36  N   UNL     1       9.163   6.376  25.411  0.00  0.00    -0.234 NA
ATOM     37  C   UNL     1       8.322   6.903  26.369  0.00  0.00    +0.131 A 
ATOM     38  C   UNL     1       7.462   5.944  26.865  0.00  0.00    +0.114 A 
ATOM     39  C   UNL     1       9.342   3.994  24.515  0.00  0.00    +0.151 A 
ATOM     40  N   UNL     1      10.326   3.910  23.585  0.00  0.00    -0.230 NA
ATOM     41  C   UNL     1      10.339   2.633  23.249  0.00  0.00    +0.203 A 
ENDBRANCH  28  30
BRANCH  27  42
ATOM     42  O   UNL     1       6.960  -0.128  22.978  0.00  0.00    -0.385 OA
ATOM     43  H   UNL     1       6.452  -0.090  22.147  0.00  0.00    +0.210 HD
ENDBRANCH  27  42
BRANCH  26  44
ATOM     44  O   UNL     1       9.454  -1.037  20.793  0.00  0.00    -0.386 OA
ATOM     45  H   UNL     1       8.919  -1.576  20.181  0.00  0.00    +0.210 HD
ENDBRANCH  26  44
ENDBRANCH  24  25
ENDBRANCH   1  24
TORSDOF 16
ENDMDL
MODEL 8
REMARK VINA RESULT:      -7.4      2.569      4.263
REMARK  Name = 
REMARK  16 active torsions:
REMARK  status: ('A' for Active; 'I' for Inactive)
REMARK    1  A    between atoms: O_1  and  C_2
REMARK    2  A    between atoms: C_5  and  C_7
REMARK    3  A    between atoms: C_7  and  O_8
REMARK    4  A    between atoms: O_8  and  P_9
REMARK    5  A    between atoms: P_9  and  O_10
REMARK    6  A    between atoms: P_9  and  O_12
REMARK    7  A    between atoms: O_12  and  P_13
REMARK    8  A    between atoms: P_13  and  O_14
REMARK    9  A    between atoms: P_13  and  O_16
REMARK   10  A    between atoms: O_16  and  C_17
REMARK   11  A    between atoms: C_17  and  C_18
REMARK   12  A    between atoms: C_21  and  N_29
REMARK   13  A    between atoms: C_23  and  O_25
REMARK   14  A    between atoms: C_26  and  O_28
REMARK   15  A    between atoms: C_41  and  O_43
REMARK   16  A    between atoms: C_44  and  O_46
REMARK                            x       y       z     vdW  Elec       q    Type
REMARK                         _______ _______ _______ _____ _____    ______ ____
ROOT
ATOM      1  O   UNL     1       8.408  -0.699  26.697  0.00  0.00    -0.284 OA
ENDROOT
BRANCH   1   2
ATOM      2  P   UNL     1       7.321   0.381  27.216  0.00  0.00    +0.483 P 
ATOM      3  O   UNL     1       5.929  -0.155  27.266  0.00  0.00    -0.227 OA
BRANCH   2   4
ATOM      4  O   UNL     1       7.954   0.738  28.642  0.00  0.00    -0.302 OA
ATOM      5  H   UNL     1       8.102  -0.063  29.178  0.00  0.00    +0.222 HD
ENDBRANCH   2   4
BRANCH   2   6
ATOM      6  O   UNL     1       7.454   1.801  26.382  0.00  0.00    -0.186 OA
BRANCH   6   7
ATOM      7  P   UNL     1       5.910   1.855  25.606  0.00  0.00    +0.483 P 
ATOM      8  O   UNL     1       5.748   3.356  25.846  0.00  0.00    -0.227 OA
BRANCH   7   9
ATOM      9  O   UNL     1       4.364   1.911  24.829  0.00  0.00    -0.302 OA
ATOM     10  H   UNL     1       4.585   1.771  23.886  0.00  0.00    +0.222 HD
ENDBRANCH   7   9
BRANCH   7  11
ATOM     11  O   UNL     1       6.624   1.611  24.155  0.00  0.00    -0.284 OA
BRANCH  11  12
ATOM     12  C   UNL     1       6.152   2.257  22.982  0.00  0.00    +0.206 C 
BRANCH  12  16
ATOM     13  C   UNL     1       7.871   4.790  22.947  0.00  0.00    +0.279 C 
ATOM     14  C   UNL     1       8.948   3.807  23.427  0.00  0.00    +0.201 C 
ATOM     15  C   UNL     1       8.652   2.513  22.678  0.00  0.00    +0.179 C 
ATOM     16  C   UNL     1       7.279   2.751  22.059  0.00  0.00    +0.179 C 
ATOM     17  O   UNL     1       7.174   4.176  21.869  0.00  0.00    -0.341 OA
BRANCH  13  18
ATOM     18  O   UNL     1       8.447   5.996  22.487  0.00  0.00    -0.365 OA
ATOM     19  H   UNL     1       8.607   6.524  23.286  0.00  0.00    +0.213 HD
ENDBRANCH  13  18
BRANCH  15  20
ATOM     20  O   UNL     1       9.640   2.294  21.669  0.00  0.00    -0.386 OA
ATOM     21  H   UNL     1       9.408   2.846  20.897  0.00  0.00    +0.210 HD
ENDBRANCH  15  20
BRANCH  14  22
ATOM     22  O   UNL     1       8.831   3.588  24.837  0.00  0.00    -0.384 OA
ATOM     23  H   UNL     1       9.519   2.938  25.072  0.00  0.00    +0.210 HD
ENDBRANCH  14  22
ENDBRANCH  12  16
ENDBRANCH  11  12
ENDBRANCH   7  11
ENDBRANCH   6   7
ENDBRANCH   2   6
ENDBRANCH   1   2
BRANCH   1  24
ATOM     24  C   UNL     1       9.370  -0.452  25.649  0.00  0.00    +0.206 C 
BRANCH  24  25
ATOM     25  C   UNL     1       9.030  -0.918  24.195  0.00  0.00    +0.178 C 
ATOM     26  C   UNL     1       9.930  -2.093  23.737  0.00  0.00    +0.178 C 
ATOM     27  C   UNL     1       9.053  -3.349  23.770  0.00  0.00    +0.195 C 
ATOM     28  C   UNL     1       7.696  -2.845  24.255  0.00  0.00    +0.253 C 
ATOM     29  O   UNL     1       7.674  -1.412  24.080  0.00  0.00    -0.346 OA
BRANCH  28  30
ATOM     30  N   UNL     1       6.583  -3.482  23.559  0.00  0.00    -0.286 N 
ATOM     31  C   UNL     1       5.839  -4.545  24.038  0.00  0.00    +0.168 A 
ATOM     32  N   UNL     1       6.044  -5.210  25.221  0.00  0.00    -0.217 NA
ATOM     33  C   UNL     1       5.151  -6.151  25.453  0.00  0.00    +0.207 A 
ATOM     34  N   UNL     1       4.094  -6.460  24.579  0.00  0.00    -0.288 N 
ATOM     35  C   UNL     1       3.907  -5.810  23.383  0.00  0.00    +0.168 A 
ATOM     36  N   UNL     1       2.856  -6.264  22.735  0.00  0.00    -0.234 NA
ATOM     37  C   UNL     1       2.343  -7.249  23.551  0.00  0.00    +0.131 A 
ATOM     38  C   UNL     1       3.095  -7.392  24.699  0.00  0.00    +0.114 A 
ATOM     39  C   UNL     1       4.876  -4.742  23.069  0.00  0.00    +0.151 A 
ATOM     40  N   UNL     1       5.011  -3.896  22.017  0.00  0.00    -0.230 NA
ATOM     41  C   UNL     1       6.050  -3.147  22.341  0.00  0.00    +0.203 A 
ENDBRANCH  28  30
BRANCH  27  42
ATOM     42  O   UNL     1       9.587  -4.332  24.665  0.00  0.00    -0.385 OA
ATOM     43  H   UNL     1      10.072  -4.974  24.114  0.00  0.00    +0.210 HD
ENDBRANCH  27  42
BRANCH  26  44
ATOM     44  O   UNL     1      10.393  -1.878  22.394  0.00  0.00    -0.386 OA
ATOM     45  H   UNL     1      10.854  -1.021  22.344  0.00  0.00    +0.210 HD
ENDBRANCH  26  44
ENDBRANCH  24  25
ENDBRANCH   1  24
TORSDOF 16
ENDMDL
MODEL 9
REMARK VINA RESULT:      -7.4      4.322      8.981
REMARK  Name = 
REMARK  16 active torsions:
REMARK  status: ('A' for Active; 'I' for Inactive)
REMARK    1  A    between atoms: O_1  and  C_2
REMARK    2  A    between atoms: C_5  and  C_7
REMARK    3  A    between atoms: C_7  and  O_8
REMARK    4  A    between atoms: O_8  and  P_9
REMARK    5  A    between atoms: P_9  and  O_10
REMARK    6  A    between atoms: P_9  and  O_12
REMARK    7  A    between atoms: O_12  and  P_13
REMARK    8  A    between atoms: P_13  and  O_14
REMARK    9  A    between atoms: P_13  and  O_16
REMARK   10  A    between atoms: O_16  and  C_17
REMARK   11  A    between atoms: C_17  and  C_18
REMARK   12  A    between atoms: C_21  and  N_29
REMARK   13  A    between atoms: C_23  and  O_25
REMARK   14  A    between atoms: C_26  and  O_28
REMARK   15  A    between atoms: C_41  and  O_43
REMARK   16  A    between atoms: C_44  and  O_46
REMARK                            x       y       z     vdW  Elec       q    Type
REMARK                         _______ _______ _______ _____ _____    ______ ____
ROOT
ATOM      1  O   UNL     1       5.761  -3.849  22.635  0.00  0.00    -0.284 OA
ENDROOT
BRANCH   1   2
ATOM      2  P   UNL     1       5.974  -5.383  22.170  0.00  0.00    +0.483 P 
ATOM      3  O   UNL     1       5.827  -5.583  20.698  0.00  0.00    -0.227 OA
BRANCH   2   4
ATOM      4  O   UNL     1       7.448  -5.637  22.738  0.00  0.00    -0.302 OA
ATOM      5  H   UNL     1       7.527  -5.351  23.666  0.00  0.00    +0.222 HD
ENDBRANCH   2   4
BRANCH   2   6
ATOM      6  O   UNL     1       5.045  -6.408  23.073  0.00  0.00    -0.186 OA
BRANCH   6   7
ATOM      7  P   UNL     1       3.855  -5.306  23.674  0.00  0.00    +0.483 P 
ATOM      8  O   UNL     1       2.771  -5.833  22.735  0.00  0.00    -0.227 OA
BRANCH   7   9
ATOM      9  O   UNL     1       2.664  -4.203  24.274  0.00  0.00    -0.302 OA
ATOM     10  H   UNL     1       2.268  -3.837  23.456  0.00  0.00    +0.222 HD
ENDBRANCH   7   9
BRANCH   7  11
ATOM     11  O   UNL     1       3.798  -6.128  25.087  0.00  0.00    -0.284 OA
BRANCH  11  12
ATOM     12  C   UNL     1       3.984  -5.469  26.330  0.00  0.00    +0.206 C 
BRANCH  12  16
ATOM     13  C   UNL     1       7.002  -5.105  25.964  0.00  0.00    +0.279 C 
ATOM     14  C   UNL     1       6.824  -4.198  27.190  0.00  0.00    +0.201 C 
ATOM     15  C   UNL     1       5.764  -4.894  28.036  0.00  0.00    +0.179 C 
ATOM     16  C   UNL     1       5.207  -5.974  27.115  0.00  0.00    +0.179 C 
ATOM     17  O   UNL     1       6.275  -6.305  26.205  0.00  0.00    -0.341 OA
BRANCH  13  18
ATOM     18  O   UNL     1       8.363  -5.431  25.763  0.00  0.00    -0.365 OA
ATOM     19  H   UNL     1       8.474  -6.315  26.149  0.00  0.00    +0.213 HD
ENDBRANCH  13  18
BRANCH  15  20
ATOM     20  O   UNL     1       6.365  -5.469  29.198  0.00  0.00    -0.386 OA
ATOM     21  H   UNL     1       5.859  -5.169  29.977  0.00  0.00    +0.210 HD
ENDBRANCH  15  20
BRANCH  14  22
ATOM     22  O   UNL     1       6.352  -2.907  26.790  0.00  0.00    -0.384 OA
ATOM     23  H   UNL     1       5.412  -3.019  26.554  0.00  0.00    +0.210 HD
ENDBRANCH  14  22
ENDBRANCH  12  16
ENDBRANCH  11  12
ENDBRANCH   7  11
ENDBRANCH   6   7
ENDBRANCH   2   6
ENDBRANCH   1   2
BRANCH   1  24
ATOM     24  C   UNL     1       6.659  -2.764  22.315  0.00  0.00    +0.206 C 
BRANCH  24  25
ATOM     25  C   UNL     1       7.526  -2.146  23.461  0.00  0.00    +0.178 C 
ATOM     26  C   UNL     1       9.008  -2.588  23.369  0.00  0.00    +0.178 C 
ATOM     27  C   UNL     1       9.791  -1.376  22.852  0.00  0.00    +0.195 C 
ATOM     28  C   UNL     1       8.727  -0.299  22.658  0.00  0.00    +0.253 C 
ATOM     29  O   UNL     1       7.558  -0.700  23.405  0.00  0.00    -0.346 OA
BRANCH  28  30
ATOM     30  N   UNL     1       9.191   1.023  23.066  0.00  0.00    -0.286 N 
ATOM     31  C   UNL     1       8.546   2.218  22.800  0.00  0.00    +0.168 A 
ATOM     32  N   UNL     1       7.393   2.372  22.074  0.00  0.00    -0.217 NA
ATOM     33  C   UNL     1       6.971   3.619  22.023  0.00  0.00    +0.207 A 
ATOM     34  N   UNL     1       7.632   4.696  22.638  0.00  0.00    -0.288 N 
ATOM     35  C   UNL     1       8.802   4.542  23.344  0.00  0.00    +0.168 A 
ATOM     36  N   UNL     1       9.237   5.683  23.831  0.00  0.00    -0.234 NA
ATOM     37  C   UNL     1       8.305   6.614  23.422  0.00  0.00    +0.131 A 
ATOM     38  C   UNL     1       7.302   6.026  22.679  0.00  0.00    +0.114 A 
ATOM     39  C   UNL     1       9.324   3.164  23.437  0.00  0.00    +0.151 A 
ATOM     40  N   UNL     1      10.416   2.628  24.038  0.00  0.00    -0.230 NA
ATOM     41  C   UNL     1      10.309   1.334  23.797  0.00  0.00    +0.203 A 
ENDBRANCH  28  30
BRANCH  27  42
ATOM     42  O   UNL     1      10.453  -1.674  21.617  0.00  0.00    -0.385 OA
ATOM     43  H   UNL     1       9.790  -1.555  20.911  0.00  0.00    +0.210 HD
ENDBRANCH  27  42
BRANCH  26  44
ATOM     44  O   UNL     1       9.507  -2.950  24.667  0.00  0.00    -0.386 OA
ATOM     45  H   UNL     1       9.371  -2.206  25.283  0.00  0.00    +0.210 HD
ENDBRANCH  26  44
ENDBRANCH  24  25
ENDBRANCH   1  24
TORSDOF 16
ENDMDL
