MODEL 1
REMARK VINA RESULT:      -7.7      0.000      0.000
REMARK  Name = 
REMARK  10 active torsions:
REMARK  status: ('A' for Active; 'I' for Inactive)
REMARK    1  A    between atoms: C_2  and  O_3
REMARK    2  A    between atoms: C_2  and  C_4
REMARK    3  A    between atoms: C_2  and  C_6
REMARK    4  A    between atoms: C_4  and  O_5
REMARK    5  A    between atoms: C_6  and  O_7
REMARK    6  A    between atoms: O_7  and  C_8
REMARK    7  A    between atoms: C_10  and  C_14
REMARK    8  A    between atoms: C_14  and  C_16
REMARK    9  A    between atoms: C_17  and  N_18
REMARK   10  A    between atoms: N_19  and  C_22
REMARK                            x       y       z     vdW  Elec       q    Type
REMARK                         _______ _______ _______ _____ _____    ______ ____
ROOT
ATOM      1  C   UNL     1       9.126  -0.403  22.385  0.00  0.00    +0.198 C 
ATOM      2  O   UNL     1       9.414  -0.367  21.193  0.00  0.00    -0.286 OA
ENDROOT
BRANCH   1   7
ATOM      3  C   UNL     1      10.186   3.011  23.659  0.00  0.00    +0.121 A 
ATOM      4  C   UNL     1       9.124   3.306  24.524  0.00  0.00    +0.046 A 
ATOM      5  C   UNL     1       8.116   2.376  24.757  0.00  0.00    +0.004 A 
ATOM      6  C   UNL     1       8.149   1.150  24.108  0.00  0.00    +0.012 A 
ATOM      7  C   UNL     1       9.174   0.857  23.193  0.00  0.00    +0.026 A 
ATOM      8  C   UNL     1      10.224   1.768  23.016  0.00  0.00    +0.057 A 
BRANCH   3   9
ATOM      9  O   UNL     1      11.210   3.878  23.363  0.00  0.00    -0.489 OA
BRANCH   9  10
ATOM     10  C   UNL     1      10.981   5.234  23.755  0.00  0.00    +0.262 C 
BRANCH  10  11
ATOM     11  C   UNL     1      12.209   6.108  23.513  0.00  0.00    +0.177 C 
BRANCH  11  12
ATOM     12  O   UNL     1      12.856   6.329  24.776  0.00  0.00    -0.386 OA
ATOM     13  H   UNL     1      13.595   5.697  24.848  0.00  0.00    +0.210 HD
ENDBRANCH  11  12
BRANCH  11  14
ATOM     14  C   UNL     1      13.177   5.472  22.509  0.00  0.00    +0.190 C 
BRANCH  14  15
ATOM     15  O   UNL     1      14.297   4.905  23.188  0.00  0.00    -0.392 OA
ATOM     16  H   UNL     1      14.999   4.761  22.528  0.00  0.00    +0.210 HD
ENDBRANCH  14  15
ENDBRANCH  11  14
ENDBRANCH  10  11
ENDBRANCH   9  10
ENDBRANCH   3   9
ENDBRANCH   1   7
BRANCH   1  17
ATOM     17  C   UNL     1       8.784  -1.634  23.088  0.00  0.00    +0.081 A 
ATOM     18  C   UNL     1       9.648  -2.559  23.709  0.00  0.00    +0.148 A 
ATOM     19  N   UNL     1       9.044  -3.692  24.043  0.00  0.00    -0.172 NA
ATOM     20  N   UNL     1       7.728  -3.472  23.793  0.00  0.00    -0.218 N 
ATOM     21  C   UNL     1       7.526  -2.195  23.239  0.00  0.00    +0.131 A 
BRANCH  20  22
ATOM     22  C   UNL     1       6.793  -4.510  24.071  0.00  0.00    +0.068 A 
ATOM     23  C   UNL     1       6.463  -4.872  25.383  0.00  0.00    +0.030 A 
ATOM     24  C   UNL     1       5.537  -5.894  25.610  0.00  0.00    +0.040 A 
ATOM     25  C   UNL     1       4.937  -6.540  24.533  0.00  0.00    +0.124 A 
ATOM     26  F   UNL     1       4.045  -7.511  24.761  0.00  0.00    -0.205 F 
ATOM     27  C   UNL     1       5.258  -6.198  23.226  0.00  0.00    +0.040 A 
ATOM     28  C   UNL     1       6.199  -5.194  22.992  0.00  0.00    +0.030 A 
ENDBRANCH  20  22
BRANCH  21  29
ATOM     29  N   UNL     1       6.326  -1.692  22.843  0.00  0.00    -0.342 N 
ATOM     30  H   UNL     1       6.044  -1.758  21.867  0.00  0.00    +0.144 HD
ATOM     31  H   UNL     1       6.020  -0.810  23.266  0.00  0.00    +0.144 HD
ENDBRANCH  21  29
ENDBRANCH   1  17
TORSDOF 10
ENDMDL
MODEL 2
REMARK VINA RESULT:      -7.3      1.945      2.654
REMARK  Name = 
REMARK  10 active torsions:
REMARK  status: ('A' for Active; 'I' for Inactive)
REMARK    1  A    between atoms: C_2  and  O_3
REMARK    2  A    between atoms: C_2  and  C_4
REMARK    3  A    between atoms: C_2  and  C_6
REMARK    4  A    between atoms: C_4  and  O_5
REMARK    5  A    between atoms: C_6  and  O_7
REMARK    6  A    between atoms: O_7  and  C_8
REMARK    7  A    between atoms: C_10  and  C_14
REMARK    8  A    between atoms: C_14  and  C_16
REMARK    9  A    between atoms: C_17  and  N_18
REMARK   10  A    between atoms: N_19  and  C_22
REMARK                            x       y       z     vdW  Elec       q    Type
REMARK                         _______ _______ _______ _____ _____    ______ ____
ROOT
ATOM      1  C   UNL     1       9.273   1.480  23.027  0.00  0.00    +0.198 C 
ATOM      2  O   UNL     1      10.493   1.368  23.077  0.00  0.00    -0.286 OA
ENDROOT
BRANCH   1   7
ATOM      3  C   UNL     1       8.836   5.240  23.302  0.00  0.00    +0.121 A 
ATOM      4  C   UNL     1       7.622   5.410  22.625  0.00  0.00    +0.046 A 
ATOM      5  C   UNL     1       6.908   4.312  22.156  0.00  0.00    +0.004 A 
ATOM      6  C   UNL     1       7.416   3.033  22.339  0.00  0.00    +0.012 A 
ATOM      7  C   UNL     1       8.659   2.845  22.964  0.00  0.00    +0.026 A 
ATOM      8  C   UNL     1       9.339   3.948  23.498  0.00  0.00    +0.057 A 
BRANCH   3   9
ATOM      9  O   UNL     1       9.608   6.269  23.783  0.00  0.00    -0.489 OA
BRANCH   9  10
ATOM     10  C   UNL     1      10.682   5.866  24.637  0.00  0.00    +0.262 C 
BRANCH  10  11
ATOM     11  C   UNL     1      12.042   6.224  24.044  0.00  0.00    +0.177 C 
BRANCH  11  12
ATOM     12  O   UNL     1      12.906   6.629  25.118  0.00  0.00    -0.386 OA
ATOM     13  H   UNL     1      12.403   6.555  25.950  0.00  0.00    +0.210 HD
ENDBRANCH  11  12
BRANCH  11  14
ATOM     14  C   UNL     1      12.654   5.053  23.266  0.00  0.00    +0.190 C 
BRANCH  14  15
ATOM     15  O   UNL     1      14.079   5.146  23.265  0.00  0.00    -0.392 OA
ATOM     16  H   UNL     1      14.380   5.033  22.346  0.00  0.00    +0.210 HD
ENDBRANCH  14  15
ENDBRANCH  11  14
ENDBRANCH  10  11
ENDBRANCH   9  10
ENDBRANCH   3   9
ENDBRANCH   1   7
BRANCH   1  17
ATOM     17  C   UNL     1       8.362   0.342  23.080  0.00  0.00    +0.081 A 
ATOM     18  C   UNL     1       7.197   0.185  23.858  0.00  0.00    +0.148 A 
ATOM     19  N   UNL     1       6.734  -1.058  23.858  0.00  0.00    -0.172 NA
ATOM     20  N   UNL     1       7.498  -1.714  22.948  0.00  0.00    -0.218 N 
ATOM     21  C   UNL     1       8.488  -0.868  22.417  0.00  0.00    +0.131 A 
BRANCH  20  22
ATOM     22  C   UNL     1       7.235  -3.091  22.694  0.00  0.00    +0.068 A 
ATOM     23  C   UNL     1       6.303  -3.498  21.732  0.00  0.00    +0.030 A 
ATOM     24  C   UNL     1       6.079  -4.860  21.513  0.00  0.00    +0.040 A 
ATOM     25  C   UNL     1       6.791  -5.807  22.243  0.00  0.00    +0.124 A 
ATOM     26  F   UNL     1       6.576  -7.109  22.021  0.00  0.00    -0.205 F 
ATOM     27  C   UNL     1       7.713  -5.420  23.206  0.00  0.00    +0.040 A 
ATOM     28  C   UNL     1       7.926  -4.062  23.446  0.00  0.00    +0.030 A 
ENDBRANCH  20  22
BRANCH  21  29
ATOM     29  N   UNL     1       9.435  -1.239  21.513  0.00  0.00    -0.342 N 
ATOM     30  H   UNL     1      10.405  -1.338  21.803  0.00  0.00    +0.144 HD
ATOM     31  H   UNL     1       9.361  -0.852  20.566  0.00  0.00    +0.144 HD
ENDBRANCH  21  29
ENDBRANCH   1  17
TORSDOF 10
ENDMDL
MODEL 3
REMARK VINA RESULT:      -7.3      5.069     10.695
REMARK  Name = 
REMARK  10 active torsions:
REMARK  status: ('A' for Active; 'I' for Inactive)
REMARK    1  A    between atoms: C_2  and  O_3
REMARK    2  A    between atoms: C_2  and  C_4
REMARK    3  A    between atoms: C_2  and  C_6
REMARK    4  A    between atoms: C_4  and  O_5
REMARK    5  A    between atoms: C_6  and  O_7
REMARK    6  A    between atoms: O_7  and  C_8
REMARK    7  A    between atoms: C_10  and  C_14
REMARK    8  A    between atoms: C_14  and  C_16
REMARK    9  A    between atoms: C_17  and  N_18
REMARK   10  A    between atoms: N_19  and  C_22
REMARK                            x       y       z     vdW  Elec       q    Type
REMARK                         _______ _______ _______ _____ _____    ______ ____
ROOT
ATOM      1  C   UNL     1       7.336  -4.842  23.493  0.00  0.00    +0.198 C 
ATOM      2  O   UNL     1       8.010  -5.570  22.771  0.00  0.00    -0.286 OA
ENDROOT
BRANCH   1   7
ATOM      3  C   UNL     1       4.487  -6.926  24.886  0.00  0.00    +0.121 A 
ATOM      4  C   UNL     1       4.707  -6.781  26.261  0.00  0.00    +0.046 A 
ATOM      5  C   UNL     1       5.718  -5.951  26.737  0.00  0.00    +0.004 A 
ATOM      6  C   UNL     1       6.533  -5.276  25.838  0.00  0.00    +0.012 A 
ATOM      7  C   UNL     1       6.364  -5.453  24.455  0.00  0.00    +0.026 A 
ATOM      8  C   UNL     1       5.301  -6.233  23.982  0.00  0.00    +0.057 A 
BRANCH   3   9
ATOM      9  O   UNL     1       3.524  -7.736  24.335  0.00  0.00    -0.489 OA
BRANCH   9  10
ATOM     10  C   UNL     1       2.193  -7.488  24.799  0.00  0.00    +0.262 C 
BRANCH  10  11
ATOM     11  C   UNL     1       1.171  -8.370  24.087  0.00  0.00    +0.177 C 
BRANCH  11  12
ATOM     12  O   UNL     1       1.658  -8.638  22.763  0.00  0.00    -0.386 OA
ATOM     13  H   UNL     1       2.623  -8.504  22.765  0.00  0.00    +0.210 HD
ENDBRANCH  11  12
BRANCH  11  14
ATOM     14  C   UNL     1       0.914  -9.677  24.847  0.00  0.00    +0.190 C 
BRANCH  14  15
ATOM     15  O   UNL     1       2.142 -10.222  25.329  0.00  0.00    -0.392 OA
ATOM     16  H   UNL     1       2.598 -10.632  24.572  0.00  0.00    +0.210 HD
ENDBRANCH  14  15
ENDBRANCH  11  14
ENDBRANCH  10  11
ENDBRANCH   9  10
ENDBRANCH   3   9
ENDBRANCH   1   7
BRANCH   1  17
ATOM     17  C   UNL     1       7.390  -3.386  23.433  0.00  0.00    +0.081 A 
ATOM     18  C   UNL     1       6.364  -2.484  23.083  0.00  0.00    +0.148 A 
ATOM     19  N   UNL     1       6.802  -1.247  22.889  0.00  0.00    -0.172 NA
ATOM     20  N   UNL     1       8.106  -1.276  23.266  0.00  0.00    -0.218 N 
ATOM     21  C   UNL     1       8.492  -2.574  23.646  0.00  0.00    +0.131 A 
BRANCH  20  22
ATOM     22  C   UNL     1       8.869  -0.076  23.195  0.00  0.00    +0.068 A 
ATOM     23  C   UNL     1       9.300   0.452  21.972  0.00  0.00    +0.030 A 
ATOM     24  C   UNL     1      10.045   1.635  21.949  0.00  0.00    +0.040 A 
ATOM     25  C   UNL     1      10.346   2.290  23.139  0.00  0.00    +0.124 A 
ATOM     26  F   UNL     1      11.052   3.426  23.106  0.00  0.00    -0.205 F 
ATOM     27  C   UNL     1       9.933   1.775  24.361  0.00  0.00    +0.040 A 
ATOM     28  C   UNL     1       9.209   0.583  24.393  0.00  0.00    +0.030 A 
ENDBRANCH  20  22
BRANCH  21  29
ATOM     29  N   UNL     1       9.743  -2.938  24.037  0.00  0.00    -0.342 N 
ATOM     30  H   UNL     1       9.873  -3.482  24.887  0.00  0.00    +0.144 HD
ATOM     31  H   UNL     1      10.497  -2.256  23.906  0.00  0.00    +0.144 HD
ENDBRANCH  21  29
ENDBRANCH   1  17
TORSDOF 10
ENDMDL
MODEL 4
REMARK VINA RESULT:      -7.1      5.572      9.240
REMARK  Name = 
REMARK  10 active torsions:
REMARK  status: ('A' for Active; 'I' for Inactive)
REMARK    1  A    between atoms: C_2  and  O_3
REMARK    2  A    between atoms: C_2  and  C_4
REMARK    3  A    between atoms: C_2  and  C_6
REMARK    4  A    between atoms: C_4  and  O_5
REMARK    5  A    between atoms: C_6  and  O_7
REMARK    6  A    between atoms: O_7  and  C_8
REMARK    7  A    between atoms: C_10  and  C_14
REMARK    8  A    between atoms: C_14  and  C_16
REMARK    9  A    between atoms: C_17  and  N_18
REMARK   10  A    between atoms: N_19  and  C_22
REMARK                            x       y       z     vdW  Elec       q    Type
REMARK                         _______ _______ _______ _____ _____    ______ ____
ROOT
ATOM      1  C   UNL     1       6.317  -5.907  22.869  0.00  0.00    +0.198 C 
ATOM      2  O   UNL     1       6.385  -6.639  21.887  0.00  0.00    -0.286 OA
ENDROOT
BRANCH   1   7
ATOM      3  C   UNL     1       3.754  -6.289  25.642  0.00  0.00    +0.121 A 
ATOM      4  C   UNL     1       2.735  -5.453  25.170  0.00  0.00    +0.046 A 
ATOM      5  C   UNL     1       2.838  -4.835  23.927  0.00  0.00    +0.004 A 
ATOM      6  C   UNL     1       3.976  -5.030  23.156  0.00  0.00    +0.012 A 
ATOM      7  C   UNL     1       5.034  -5.819  23.636  0.00  0.00    +0.026 A 
ATOM      8  C   UNL     1       4.894  -6.495  24.855  0.00  0.00    +0.057 A 
BRANCH   3   9
ATOM      9  O   UNL     1       3.737  -6.922  26.860  0.00  0.00    -0.489 OA
BRANCH   9  10
ATOM     10  C   UNL     1       3.932  -6.062  27.987  0.00  0.00    +0.262 C 
BRANCH  10  11
ATOM     11  C   UNL     1       5.299  -6.276  28.633  0.00  0.00    +0.177 C 
BRANCH  11  12
ATOM     12  O   UNL     1       5.663  -7.654  28.462  0.00  0.00    -0.386 OA
ATOM     13  H   UNL     1       5.196  -8.174  29.141  0.00  0.00    +0.210 HD
ENDBRANCH  11  12
BRANCH  11  14
ATOM     14  C   UNL     1       6.366  -5.352  28.034  0.00  0.00    +0.190 C 
BRANCH  14  15
ATOM     15  O   UNL     1       7.584  -6.066  27.830  0.00  0.00    -0.392 OA
ATOM     16  H   UNL     1       7.360  -7.009  27.738  0.00  0.00    +0.210 HD
ENDBRANCH  14  15
ENDBRANCH  11  14
ENDBRANCH  10  11
ENDBRANCH   9  10
ENDBRANCH   3   9
ENDBRANCH   1   7
BRANCH   1  17
ATOM     17  C   UNL     1       7.419  -5.059  23.312  0.00  0.00    +0.081 A 
ATOM     18  C   UNL     1       8.471  -5.379  24.194  0.00  0.00    +0.148 A 
ATOM     19  N   UNL     1       9.167  -4.318  24.581  0.00  0.00    -0.172 NA
ATOM     20  N   UNL     1       8.682  -3.293  23.834  0.00  0.00    -0.218 N 
ATOM     21  C   UNL     1       7.628  -3.724  23.009  0.00  0.00    +0.131 A 
BRANCH  20  22
ATOM     22  C   UNL     1       9.245  -1.995  24.000  0.00  0.00    +0.068 A 
ATOM     23  C   UNL     1       9.035  -1.245  25.164  0.00  0.00    +0.030 A 
ATOM     24  C   UNL     1       9.609   0.024  25.287  0.00  0.00    +0.040 A 
ATOM     25  C   UNL     1      10.396   0.532  24.258  0.00  0.00    +0.124 A 
ATOM     26  F   UNL     1      10.949   1.744  24.388  0.00  0.00    -0.205 F 
ATOM     27  C   UNL     1      10.608  -0.196  23.095  0.00  0.00    +0.040 A 
ATOM     28  C   UNL     1      10.020  -1.453  22.956  0.00  0.00    +0.030 A 
ENDBRANCH  20  22
BRANCH  21  29
ATOM     29  N   UNL     1       6.909  -2.927  22.173  0.00  0.00    -0.342 N 
ATOM     30  H   UNL     1       6.608  -3.280  21.268  0.00  0.00    +0.144 HD
ATOM     31  H   UNL     1       7.168  -1.936  22.125  0.00  0.00    +0.144 HD
ENDBRANCH  21  29
ENDBRANCH   1  17
TORSDOF 10
ENDMDL
MODEL 5
REMARK VINA RESULT:      -7.0      5.135      8.905
REMARK  Name = 
REMARK  10 active torsions:
REMARK  status: ('A' for Active; 'I' for Inactive)
REMARK    1  A    between atoms: C_2  and  O_3
REMARK    2  A    between atoms: C_2  and  C_4
REMARK    3  A    between atoms: C_2  and  C_6
REMARK    4  A    between atoms: C_4  and  O_5
REMARK    5  A    between atoms: C_6  and  O_7
REMARK    6  A    between atoms: O_7  and  C_8
REMARK    7  A    between atoms: C_10  and  C_14
REMARK    8  A    between atoms: C_14  and  C_16
REMARK    9  A    between atoms: C_17  and  N_18
REMARK   10  A    between atoms: N_19  and  C_22
REMARK                            x       y       z     vdW  Elec       q    Type
REMARK                         _______ _______ _______ _____ _____    ______ ____
ROOT
ATOM      1  C   UNL     1       7.018  -4.951  26.896  0.00  0.00    +0.198 C 
ATOM      2  O   UNL     1       7.616  -5.570  27.769  0.00  0.00    -0.286 OA
ENDROOT
BRANCH   1   7
ATOM      3  C   UNL     1       4.986  -6.333  24.004  0.00  0.00    +0.121 A 
ATOM      4  C   UNL     1       4.036  -7.095  24.696  0.00  0.00    +0.046 A 
ATOM      5  C   UNL     1       4.001  -7.098  26.087  0.00  0.00    +0.004 A 
ATOM      6  C   UNL     1       4.932  -6.355  26.799  0.00  0.00    +0.012 A 
ATOM      7  C   UNL     1       5.928  -5.629  26.125  0.00  0.00    +0.026 A 
ATOM      8  C   UNL     1       5.915  -5.573  24.725  0.00  0.00    +0.057 A 
BRANCH   3   9
ATOM      9  O   UNL     1       5.098  -6.287  22.636  0.00  0.00    -0.489 OA
BRANCH   9  10
ATOM     10  C   UNL     1       6.438  -6.367  22.141  0.00  0.00    +0.262 C 
BRANCH  10  11
ATOM     11  C   UNL     1       6.753  -5.228  21.174  0.00  0.00    +0.177 C 
BRANCH  11  12
ATOM     12  O   UNL     1       5.861  -5.333  20.054  0.00  0.00    -0.386 OA
ATOM     13  H   UNL     1       6.377  -5.649  19.290  0.00  0.00    +0.210 HD
ENDBRANCH  11  12
BRANCH  11  14
ATOM     14  C   UNL     1       6.626  -3.856  21.845  0.00  0.00    +0.190 C 
BRANCH  14  15
ATOM     15  O   UNL     1       5.267  -3.420  21.834  0.00  0.00    -0.392 OA
ATOM     16  H   UNL     1       4.714  -4.188  21.601  0.00  0.00    +0.210 HD
ENDBRANCH  14  15
ENDBRANCH  11  14
ENDBRANCH  10  11
ENDBRANCH   9  10
ENDBRANCH   3   9
ENDBRANCH   1   7
BRANCH   1  17
ATOM     17  C   UNL     1       7.348  -3.580  26.520  0.00  0.00    +0.081 A 
ATOM     18  C   UNL     1       6.728  -2.384  26.935  0.00  0.00    +0.148 A 
ATOM     19  N   UNL     1       7.104  -1.329  26.224  0.00  0.00    -0.172 NA
ATOM     20  N   UNL     1       8.103  -1.785  25.426  0.00  0.00    -0.218 N 
ATOM     21  C   UNL     1       8.308  -3.164  25.612  0.00  0.00    +0.131 A 
BRANCH  20  22
ATOM     22  C   UNL     1       8.745  -0.874  24.539  0.00  0.00    +0.068 A 
ATOM     23  C   UNL     1       9.900  -0.174  24.911  0.00  0.00    +0.030 A 
ATOM     24  C   UNL     1      10.499   0.708  24.007  0.00  0.00    +0.040 A 
ATOM     25  C   UNL     1       9.954   0.879  22.738  0.00  0.00    +0.124 A 
ATOM     26  F   UNL     1      10.541   1.719  21.877  0.00  0.00    -0.205 F 
ATOM     27  C   UNL     1       8.806   0.198  22.357  0.00  0.00    +0.040 A 
ATOM     28  C   UNL     1       8.189  -0.667  23.262  0.00  0.00    +0.030 A 
ENDBRANCH  20  22
BRANCH  21  29
ATOM     29  N   UNL     1       9.209  -3.923  24.932  0.00  0.00    -0.342 N 
ATOM     30  H   UNL     1      10.057  -3.498  24.564  0.00  0.00    +0.144 HD
ATOM     31  H   UNL     1       8.842  -4.641  24.300  0.00  0.00    +0.144 HD
ENDBRANCH  21  29
ENDBRANCH   1  17
TORSDOF 10
ENDMDL
MODEL 6
REMARK VINA RESULT:      -7.0      4.613      9.329
REMARK  Name = 
REMARK  10 active torsions:
REMARK  status: ('A' for Active; 'I' for Inactive)
REMARK    1  A    between atoms: C_2  and  O_3
REMARK    2  A    between atoms: C_2  and  C_4
REMARK    3  A    between atoms: C_2  and  C_6
REMARK    4  A    between atoms: C_4  and  O_5
REMARK    5  A    between atoms: C_6  and  O_7
REMARK    6  A    between atoms: O_7  and  C_8
REMARK    7  A    between atoms: C_10  and  C_14
REMARK    8  A    between atoms: C_14  and  C_16
REMARK    9  A    between atoms: C_17  and  N_18
REMARK   10  A    between atoms: N_19  and  C_22
REMARK                            x       y       z     vdW  Elec       q    Type
REMARK                         _______ _______ _______ _____ _____    ______ ____
ROOT
ATOM      1  C   UNL     1       9.411  -2.125  23.429  0.00  0.00    +0.198 C 
ATOM      2  O   UNL     1      10.517  -2.571  23.141  0.00  0.00    -0.286 OA
ENDROOT
BRANCH   1   7
ATOM      3  C   UNL     1       6.770  -4.752  24.154  0.00  0.00    +0.121 A 
ATOM      4  C   UNL     1       5.833  -4.460  23.155  0.00  0.00    +0.046 A 
ATOM      5  C   UNL     1       6.088  -3.477  22.204  0.00  0.00    +0.004 A 
ATOM      6  C   UNL     1       7.276  -2.760  22.259  0.00  0.00    +0.012 A 
ATOM      7  C   UNL     1       8.203  -2.999  23.286  0.00  0.00    +0.026 A 
ATOM      8  C   UNL     1       7.974  -4.037  24.198  0.00  0.00    +0.057 A 
BRANCH   3   9
ATOM      9  O   UNL     1       6.590  -5.694  25.137  0.00  0.00    -0.489 OA
BRANCH   9  10
ATOM     10  C   UNL     1       5.259  -5.772  25.657  0.00  0.00    +0.262 C 
BRANCH  10  11
ATOM     11  C   UNL     1       5.252  -5.898  27.178  0.00  0.00    +0.177 C 
BRANCH  11  12
ATOM     12  O   UNL     1       5.217  -7.295  27.511  0.00  0.00    -0.386 OA
ATOM     13  H   UNL     1       5.930  -7.467  28.152  0.00  0.00    +0.210 HD
ENDBRANCH  11  12
BRANCH  11  14
ATOM     14  C   UNL     1       6.469  -5.217  27.816  0.00  0.00    +0.190 C 
BRANCH  14  15
ATOM     15  O   UNL     1       7.594  -6.094  27.802  0.00  0.00    -0.392 OA
ATOM     16  H   UNL     1       8.275  -5.708  28.381  0.00  0.00    +0.210 HD
ENDBRANCH  14  15
ENDBRANCH  11  14
ENDBRANCH  10  11
ENDBRANCH   9  10
ENDBRANCH   3   9
ENDBRANCH   1   7
BRANCH   1  17
ATOM     17  C   UNL     1       9.192  -0.749  23.861  0.00  0.00    +0.081 A 
ATOM     18  C   UNL     1       8.737  -0.284  25.112  0.00  0.00    +0.148 A 
ATOM     19  N   UNL     1       8.412   1.002  25.102  0.00  0.00    -0.172 NA
ATOM     20  N   UNL     1       8.798   1.450  23.880  0.00  0.00    -0.218 N 
ATOM     21  C   UNL     1       9.321   0.403  23.101  0.00  0.00    +0.131 A 
BRANCH  20  22
ATOM     22  C   UNL     1       8.601   2.823  23.557  0.00  0.00    +0.068 A 
ATOM     23  C   UNL     1       7.536   3.245  22.750  0.00  0.00    +0.030 A 
ATOM     24  C   UNL     1       7.379   4.603  22.460  0.00  0.00    +0.040 A 
ATOM     25  C   UNL     1       8.271   5.533  22.985  0.00  0.00    +0.124 A 
ATOM     26  F   UNL     1       8.107   6.833  22.710  0.00  0.00    -0.205 F 
ATOM     27  C   UNL     1       9.336   5.131  23.781  0.00  0.00    +0.040 A 
ATOM     28  C   UNL     1       9.513   3.774  24.055  0.00  0.00    +0.030 A 
ENDBRANCH  20  22
BRANCH  21  29
ATOM     29  N   UNL     1       9.757   0.521  21.818  0.00  0.00    -0.342 N 
ATOM     30  H   UNL     1      10.090  -0.299  21.316  0.00  0.00    +0.144 HD
ATOM     31  H   UNL     1      10.298   1.357  21.577  0.00  0.00    +0.144 HD
ENDBRANCH  21  29
ENDBRANCH   1  17
TORSDOF 10
ENDMDL
MODEL 7
REMARK VINA RESULT:      -6.9      4.526      9.134
REMARK  Name = 
REMARK  10 active torsions:
REMARK  status: ('A' for Active; 'I' for Inactive)
REMARK    1  A    between atoms: C_2  and  O_3
REMARK    2  A    between atoms: C_2  and  C_4
REMARK    3  A    between atoms: C_2  and  C_6
REMARK    4  A    between atoms: C_4  and  O_5
REMARK    5  A    between atoms: C_6  and  O_7
REMARK    6  A    between atoms: O_7  and  C_8
REMARK    7  A    between atoms: C_10  and  C_14
REMARK    8  A    between atoms: C_14  and  C_16
REMARK    9  A    between atoms: C_17  and  N_18
REMARK   10  A    between atoms: N_19  and  C_22
REMARK                            x       y       z     vdW  Elec       q    Type
REMARK                         _______ _______ _______ _____ _____    ______ ____
ROOT
ATOM      1  C   UNL     1       9.691  -1.671  23.217  0.00  0.00    +0.198 C 
ATOM      2  O   UNL     1      10.362  -1.981  22.238  0.00  0.00    -0.286 OA
ENDROOT
BRANCH   1   7
ATOM      3  C   UNL     1       6.942  -3.918  24.557  0.00  0.00    +0.121 A 
ATOM      4  C   UNL     1       7.700  -4.871  25.248  0.00  0.00    +0.046 A 
ATOM      5  C   UNL     1       9.081  -4.745  25.350  0.00  0.00    +0.004 A 
ATOM      6  C   UNL     1       9.720  -3.674  24.740  0.00  0.00    +0.012 A 
ATOM      7  C   UNL     1       8.984  -2.738  23.995  0.00  0.00    +0.026 A 
ATOM      8  C   UNL     1       7.587  -2.830  23.955  0.00  0.00    +0.057 A 
BRANCH   3   9
ATOM      9  O   UNL     1       5.579  -3.977  24.396  0.00  0.00    -0.489 OA
BRANCH   9  10
ATOM     10  C   UNL     1       5.140  -4.155  23.046  0.00  0.00    +0.262 C 
BRANCH  10  11
ATOM     11  C   UNL     1       5.292  -5.603  22.588  0.00  0.00    +0.177 C 
BRANCH  11  12
ATOM     12  O   UNL     1       3.989  -6.105  22.252  0.00  0.00    -0.386 OA
ATOM     13  H   UNL     1       4.086  -7.040  21.997  0.00  0.00    +0.210 HD
ENDBRANCH  11  12
BRANCH  11  14
ATOM     14  C   UNL     1       6.248  -5.730  21.396  0.00  0.00    +0.190 C 
BRANCH  14  15
ATOM     15  O   UNL     1       7.567  -6.041  21.846  0.00  0.00    -0.392 OA
ATOM     16  H   UNL     1       7.644  -7.011  21.882  0.00  0.00    +0.210 HD
ENDBRANCH  14  15
ENDBRANCH  11  14
ENDBRANCH  10  11
ENDBRANCH   9  10
ENDBRANCH   3   9
ENDBRANCH   1   7
BRANCH   1  17
ATOM     17  C   UNL     1       9.495  -0.291  23.648  0.00  0.00    +0.081 A 
ATOM     18  C   UNL     1       9.288   0.199  24.953  0.00  0.00    +0.148 A 
ATOM     19  N   UNL     1       8.900   1.468  24.977  0.00  0.00    -0.172 NA
ATOM     20  N   UNL     1       8.999   1.886  23.689  0.00  0.00    -0.218 N 
ATOM     21  C   UNL     1       9.403   0.835  22.847  0.00  0.00    +0.131 A 
BRANCH  20  22
ATOM     22  C   UNL     1       8.668   3.236  23.377  0.00  0.00    +0.068 A 
ATOM     23  C   UNL     1       9.428   4.311  23.855  0.00  0.00    +0.030 A 
ATOM     24  C   UNL     1       9.068   5.620  23.522  0.00  0.00    +0.040 A 
ATOM     25  C   UNL     1       7.964   5.850  22.707  0.00  0.00    +0.124 A 
ATOM     26  F   UNL     1       7.633   7.107  22.386  0.00  0.00    -0.205 F 
ATOM     27  C   UNL     1       7.195   4.797  22.231  0.00  0.00    +0.040 A 
ATOM     28  C   UNL     1       7.535   3.489  22.579  0.00  0.00    +0.030 A 
ENDBRANCH  20  22
BRANCH  21  29
ATOM     29  N   UNL     1       9.555   0.925  21.497  0.00  0.00    -0.342 N 
ATOM     30  H   UNL     1       8.774   1.220  20.916  0.00  0.00    +0.144 HD
ATOM     31  H   UNL     1      10.118   0.203  21.036  0.00  0.00    +0.144 HD
ENDBRANCH  21  29
ENDBRANCH   1  17
TORSDOF 10
ENDMDL
MODEL 8
REMARK VINA RESULT:      -6.9      5.128      9.322
REMARK  Name = 
REMARK  10 active torsions:
REMARK  status: ('A' for Active; 'I' for Inactive)
REMARK    1  A    between atoms: C_2  and  O_3
REMARK    2  A    between atoms: C_2  and  C_4
REMARK    3  A    between atoms: C_2  and  C_6
REMARK    4  A    between atoms: C_4  and  O_5
REMARK    5  A    between atoms: C_6  and  O_7
REMARK    6  A    between atoms: O_7  and  C_8
REMARK    7  A    between atoms: C_10  and  C_14
REMARK    8  A    between atoms: C_14  and  C_16
REMARK    9  A    between atoms: C_17  and  N_18
REMARK   10  A    between atoms: N_19  and  C_22
REMARK                            x       y       z     vdW  Elec       q    Type
REMARK                         _______ _______ _______ _____ _____    ______ ____
ROOT
ATOM      1  C   UNL     1       6.098   0.456  24.238  0.00  0.00    +0.198 C 
ATOM      2  O   UNL     1       5.077   0.564  24.910  0.00  0.00    -0.286 OA
ENDROOT
BRANCH   1   7
ATOM      3  C   UNL     1       6.639  -3.299  24.334  0.00  0.00    +0.121 A 
ATOM      4  C   UNL     1       7.468  -3.470  23.218  0.00  0.00    +0.046 A 
ATOM      5  C   UNL     1       7.915  -2.373  22.488  0.00  0.00    +0.004 A 
ATOM      6  C   UNL     1       7.517  -1.095  22.856  0.00  0.00    +0.012 A 
ATOM      7  C   UNL     1       6.641  -0.907  23.937  0.00  0.00    +0.026 A 
ATOM      8  C   UNL     1       6.251  -2.008  24.711  0.00  0.00    +0.057 A 
BRANCH   3   9
ATOM      9  O   UNL     1       6.142  -4.327  25.097  0.00  0.00    -0.489 OA
BRANCH   9  10
ATOM     10  C   UNL     1       7.086  -5.357  25.406  0.00  0.00    +0.262 C 
BRANCH  10  11
ATOM     11  C   UNL     1       7.996  -4.961  26.566  0.00  0.00    +0.177 C 
BRANCH  11  12
ATOM     12  O   UNL     1       7.852  -5.944  27.603  0.00  0.00    -0.386 OA
ATOM     13  H   UNL     1       8.058  -5.515  28.453  0.00  0.00    +0.210 HD
ENDBRANCH  11  12
BRANCH  11  14
ATOM     14  C   UNL     1       9.461  -4.839  26.130  0.00  0.00    +0.190 C 
BRANCH  14  15
ATOM     15  O   UNL     1       9.803  -5.898  25.237  0.00  0.00    -0.392 OA
ATOM     16  H   UNL     1      10.432  -5.541  24.584  0.00  0.00    +0.210 HD
ENDBRANCH  14  15
ENDBRANCH  11  14
ENDBRANCH  10  11
ENDBRANCH   9  10
ENDBRANCH   3   9
ENDBRANCH   1   7
BRANCH   1  17
ATOM     17  C   UNL     1       6.858   1.600  23.749  0.00  0.00    +0.081 A 
ATOM     18  C   UNL     1       6.808   2.209  22.479  0.00  0.00    +0.148 A 
ATOM     19  N   UNL     1       7.798   3.068  22.274  0.00  0.00    -0.172 NA
ATOM     20  N   UNL     1       8.431   3.162  23.471  0.00  0.00    -0.218 N 
ATOM     21  C   UNL     1       7.852   2.298  24.417  0.00  0.00    +0.131 A 
BRANCH  20  22
ATOM     22  C   UNL     1       9.548   4.038  23.591  0.00  0.00    +0.068 A 
ATOM     23  C   UNL     1       9.403   5.360  24.030  0.00  0.00    +0.030 A 
ATOM     24  C   UNL     1      10.527   6.185  24.136  0.00  0.00    +0.040 A 
ATOM     25  C   UNL     1      11.787   5.686  23.818  0.00  0.00    +0.124 A 
ATOM     26  F   UNL     1      12.858   6.480  23.932  0.00  0.00    -0.205 F 
ATOM     27  C   UNL     1      11.947   4.379  23.375  0.00  0.00    +0.040 A 
ATOM     28  C   UNL     1      10.826   3.558  23.244  0.00  0.00    +0.030 A 
ENDBRANCH  20  22
BRANCH  21  29
ATOM     29  N   UNL     1       8.284   2.131  25.696  0.00  0.00    -0.342 N 
ATOM     30  H   UNL     1       9.178   1.681  25.877  0.00  0.00    +0.144 HD
ATOM     31  H   UNL     1       7.585   1.880  26.403  0.00  0.00    +0.144 HD
ENDBRANCH  21  29
ENDBRANCH   1  17
TORSDOF 10
ENDMDL
MODEL 9
REMARK VINA RESULT:      -6.9      4.605      9.191
REMARK  Name = 
REMARK  10 active torsions:
REMARK  status: ('A' for Active; 'I' for Inactive)
REMARK    1  A    between atoms: C_2  and  O_3
REMARK    2  A    between atoms: C_2  and  C_4
REMARK    3  A    between atoms: C_2  and  C_6
REMARK    4  A    between atoms: C_4  and  O_5
REMARK    5  A    between atoms: C_6  and  O_7
REMARK    6  A    between atoms: O_7  and  C_8
REMARK    7  A    between atoms: C_10  and  C_14
REMARK    8  A    between atoms: C_14  and  C_16
REMARK    9  A    between atoms: C_17  and  N_18
REMARK   10  A    between atoms: N_19  and  C_22
REMARK                            x       y       z     vdW  Elec       q    Type
REMARK                         _______ _______ _______ _____ _____    ______ ____
ROOT
ATOM      1  C   UNL     1       9.633  -2.236  23.744  0.00  0.00    +0.198 C 
ATOM      2  O   UNL     1      10.566  -2.980  23.460  0.00  0.00    -0.286 OA
ENDROOT
BRANCH   1   7
ATOM      3  C   UNL     1       6.151  -3.410  24.692  0.00  0.00    +0.121 A 
ATOM      4  C   UNL     1       6.401  -3.974  25.949  0.00  0.00    +0.046 A 
ATOM      5  C   UNL     1       7.667  -3.903  26.523  0.00  0.00    +0.004 A 
ATOM      6  C   UNL     1       8.700  -3.287  25.831  0.00  0.00    +0.012 A 
ATOM      7  C   UNL     1       8.484  -2.766  24.545  0.00  0.00    +0.026 A 
ATOM      8  C   UNL     1       7.192  -2.777  24.003  0.00  0.00    +0.057 A 
BRANCH   3   9
ATOM      9  O   UNL     1       4.937  -3.451  24.050  0.00  0.00    -0.489 OA
BRANCH   9  10
ATOM     10  C   UNL     1       4.982  -3.956  22.712  0.00  0.00    +0.262 C 
BRANCH  10  11
ATOM     11  C   UNL     1       5.282  -5.453  22.683  0.00  0.00    +0.177 C 
BRANCH  11  12
ATOM     12  O   UNL     1       4.058  -6.149  22.403  0.00  0.00    -0.386 OA
ATOM     13  H   UNL     1       3.620  -5.697  21.659  0.00  0.00    +0.210 HD
ENDBRANCH  11  12
BRANCH  11  14
ATOM     14  C   UNL     1       6.356  -5.801  21.645  0.00  0.00    +0.190 C 
BRANCH  14  15
ATOM     15  O   UNL     1       7.603  -6.066  22.288  0.00  0.00    -0.392 OA
ATOM     16  H   UNL     1       7.964  -5.213  22.591  0.00  0.00    +0.210 HD
ENDBRANCH  14  15
ENDBRANCH  11  14
ENDBRANCH  10  11
ENDBRANCH   9  10
ENDBRANCH   3   9
ENDBRANCH   1   7
BRANCH   1  17
ATOM     17  C   UNL     1       9.550  -0.851  23.293  0.00  0.00    +0.081 A 
ATOM     18  C   UNL     1       9.399  -0.363  21.979  0.00  0.00    +0.148 A 
ATOM     19  N   UNL     1       9.604   0.944  21.882  0.00  0.00    -0.172 NA
ATOM     20  N   UNL     1       9.739   1.371  23.163  0.00  0.00    -0.218 N 
ATOM     21  C   UNL     1       9.671   0.294  24.064  0.00  0.00    +0.131 A 
BRANCH  20  22
ATOM     22  C   UNL     1       9.955   2.758  23.406  0.00  0.00    +0.068 A 
ATOM     23  C   UNL     1       8.905   3.616  23.757  0.00  0.00    +0.030 A 
ATOM     24  C   UNL     1       9.162   4.970  23.990  0.00  0.00    +0.040 A 
ATOM     25  C   UNL     1      10.461   5.459  23.885  0.00  0.00    +0.124 A 
ATOM     26  F   UNL     1      10.699   6.755  24.119  0.00  0.00    -0.205 F 
ATOM     27  C   UNL     1      11.512   4.622  23.531  0.00  0.00    +0.040 A 
ATOM     28  C   UNL     1      11.259   3.274  23.275  0.00  0.00    +0.030 A 
ENDBRANCH  20  22
BRANCH  21  29
ATOM     29  N   UNL     1       9.810   0.389  25.414  0.00  0.00    -0.342 N 
ATOM     30  H   UNL     1       9.764   1.299  25.868  0.00  0.00    +0.144 HD
ATOM     31  H   UNL     1      10.500  -0.222  25.863  0.00  0.00    +0.144 HD
ENDBRANCH  21  29
ENDBRANCH   1  17
TORSDOF 10
ENDMDL
