MODEL 1
REMARK VINA RESULT:      -6.1      0.000      0.000
REMARK  Name = 
REMARK  5 active torsions:
REMARK  status: ('A' for Active; 'I' for Inactive)
REMARK    1  A    between atoms: O_1  and  C_2
REMARK    2  A    between atoms: C_2  and  C_4
REMARK    3  A    between atoms: C_4  and  C_6
REMARK    4  A    between atoms: C_7  and  C_8
REMARK    5  A    between atoms: C_13  and  O_14
REMARK                            x       y       z     vdW  Elec       q    Type
REMARK                         _______ _______ _______ _____ _____    ______ ____
ROOT
ATOM      1  C   UNL     1       8.904  -2.801  24.291  0.00  0.00    +0.059 C 
ATOM      2  C   UNL     1       9.978  -2.229  23.725  0.00  0.00    +0.015 C 
ENDROOT
BRANCH   2   3
ATOM      3  C   UNL     1      10.098  -0.784  23.452  0.00  0.00    +0.017 A 
ATOM      4  C   UNL     1       9.857  -0.275  22.164  0.00  0.00    +0.124 A 
ATOM      5  C   UNL     1       9.931   1.095  21.900  0.00  0.00    +0.046 A 
ATOM      6  C   UNL     1      10.235   1.983  22.931  0.00  0.00    +0.004 A 
ATOM      7  C   UNL     1      10.460   1.503  24.217  0.00  0.00    +0.001 A 
ATOM      8  C   UNL     1      10.386   0.132  24.477  0.00  0.00    +0.011 A 
BRANCH   4   9
ATOM      9  O   UNL     1       9.547  -1.138  21.146  0.00  0.00    -0.506 OA
ATOM     10  H   UNL     1       9.495  -2.040  21.504  0.00  0.00    +0.292 HD
ENDBRANCH   4   9
ENDBRANCH   2   3
BRANCH   1  11
ATOM     11  C   UNL     1       8.849  -4.267  24.503  0.00  0.00    +0.262 C 
ATOM     12  O   UNL     1       8.431  -5.085  23.691  0.00  0.00    -0.280 OA
BRANCH  11  13
ATOM     13  C   UNL     1       9.328  -4.794  25.858  0.00  0.00    +0.377 C 
ATOM     14  O   UNL     1       8.805  -4.515  26.918  0.00  0.00    -0.241 OA
BRANCH  13  15
ATOM     15  O   UNL     1      10.390  -5.608  25.693  0.00  0.00    -0.475 OA
ATOM     16  H   UNL     1      10.387  -5.951  24.768  0.00  0.00    +0.296 HD
ENDBRANCH  13  15
ENDBRANCH  11  13
ENDBRANCH   1  11
TORSDOF 5
ENDMDL
MODEL 2
REMARK VINA RESULT:      -5.8      1.328      1.838
REMARK  Name = 
REMARK  5 active torsions:
REMARK  status: ('A' for Active; 'I' for Inactive)
REMARK    1  A    between atoms: O_1  and  C_2
REMARK    2  A    between atoms: C_2  and  C_4
REMARK    3  A    between atoms: C_4  and  C_6
REMARK    4  A    between atoms: C_7  and  C_8
REMARK    5  A    between atoms: C_13  and  O_14
REMARK                            x       y       z     vdW  Elec       q    Type
REMARK                         _______ _______ _______ _____ _____    ______ ____
ROOT
ATOM      1  C   UNL     1       8.710  -2.902  24.067  0.00  0.00    +0.059 C 
ATOM      2  C   UNL     1       9.824  -2.161  23.966  0.00  0.00    +0.015 C 
ENDROOT
BRANCH   2   3
ATOM      3  C   UNL     1       9.839  -0.739  23.572  0.00  0.00    +0.017 A 
ATOM      4  C   UNL     1       9.888   0.274  24.545  0.00  0.00    +0.124 A 
ATOM      5  C   UNL     1       9.941   1.623  24.185  0.00  0.00    +0.046 A 
ATOM      6  C   UNL     1       9.959   1.980  22.837  0.00  0.00    +0.004 A 
ATOM      7  C   UNL     1       9.929   0.993  21.857  0.00  0.00    +0.001 A 
ATOM      8  C   UNL     1       9.876  -0.355  22.221  0.00  0.00    +0.011 A 
BRANCH   4   9
ATOM      9  O   UNL     1       9.880  -0.066  25.872  0.00  0.00    -0.506 OA
ATOM     10  H   UNL     1      10.696  -0.553  26.076  0.00  0.00    +0.292 HD
ENDBRANCH   4   9
ENDBRANCH   2   3
BRANCH   1  11
ATOM     11  C   UNL     1       8.783  -4.335  24.438  0.00  0.00    +0.262 C 
ATOM     12  O   UNL     1       8.437  -5.270  23.725  0.00  0.00    -0.280 OA
BRANCH  11  13
ATOM     13  C   UNL     1       9.308  -4.667  25.837  0.00  0.00    +0.377 C 
ATOM     14  O   UNL     1       8.833  -4.224  26.864  0.00  0.00    -0.241 OA
BRANCH  13  15
ATOM     15  O   UNL     1      10.350  -5.518  25.755  0.00  0.00    -0.475 OA
ATOM     16  H   UNL     1      11.101  -5.058  25.309  0.00  0.00    +0.296 HD
ENDBRANCH  13  15
ENDBRANCH  11  13
ENDBRANCH   1  11
TORSDOF 5
ENDMDL
MODEL 3
REMARK VINA RESULT:      -5.5      2.464      3.450
REMARK  Name = 
REMARK  5 active torsions:
REMARK  status: ('A' for Active; 'I' for Inactive)
REMARK    1  A    between atoms: O_1  and  C_2
REMARK    2  A    between atoms: C_2  and  C_4
REMARK    3  A    between atoms: C_4  and  C_6
REMARK    4  A    between atoms: C_7  and  C_8
REMARK    5  A    between atoms: C_13  and  O_14
REMARK                            x       y       z     vdW  Elec       q    Type
REMARK                         _______ _______ _______ _____ _____    ______ ____
ROOT
ATOM      1  C   UNL     1       7.110  -3.360  22.355  0.00  0.00    +0.059 C 
ATOM      2  C   UNL     1       8.170  -2.621  22.715  0.00  0.00    +0.015 C 
ENDROOT
BRANCH   2   3
ATOM      3  C   UNL     1       8.278  -1.166  22.492  0.00  0.00    +0.017 A 
ATOM      4  C   UNL     1       9.405  -0.620  21.854  0.00  0.00    +0.124 A 
ATOM      5  C   UNL     1       9.503   0.752  21.604  0.00  0.00    +0.046 A 
ATOM      6  C   UNL     1       8.462   1.600  21.978  0.00  0.00    +0.004 A 
ATOM      7  C   UNL     1       7.330   1.079  22.596  0.00  0.00    +0.001 A 
ATOM      8  C   UNL     1       7.235  -0.293  22.844  0.00  0.00    +0.011 A 
BRANCH   4   9
ATOM      9  O   UNL     1      10.430  -1.446  21.473  0.00  0.00    -0.506 OA
ATOM     10  H   UNL     1      10.555  -1.368  20.513  0.00  0.00    +0.292 HD
ENDBRANCH   4   9
ENDBRANCH   2   3
BRANCH   1  11
ATOM     11  C   UNL     1       7.092  -4.824  22.585  0.00  0.00    +0.262 C 
ATOM     12  O   UNL     1       7.662  -5.404  23.503  0.00  0.00    -0.280 OA
BRANCH  11  13
ATOM     13  C   UNL     1       6.320  -5.679  21.578  0.00  0.00    +0.377 C 
ATOM     14  O   UNL     1       5.969  -5.287  20.482  0.00  0.00    -0.241 OA
BRANCH  13  15
ATOM     15  O   UNL     1       6.104  -6.911  22.079  0.00  0.00    -0.475 OA
ATOM     16  H   UNL     1       6.851  -7.145  22.681  0.00  0.00    +0.296 HD
ENDBRANCH  13  15
ENDBRANCH  11  13
ENDBRANCH   1  11
TORSDOF 5
ENDMDL
MODEL 4
REMARK VINA RESULT:      -5.4      4.226      7.295
REMARK  Name = 
REMARK  5 active torsions:
REMARK  status: ('A' for Active; 'I' for Inactive)
REMARK    1  A    between atoms: O_1  and  C_2
REMARK    2  A    between atoms: C_2  and  C_4
REMARK    3  A    between atoms: C_4  and  C_6
REMARK    4  A    between atoms: C_7  and  C_8
REMARK    5  A    between atoms: C_13  and  O_14
REMARK                            x       y       z     vdW  Elec       q    Type
REMARK                         _______ _______ _______ _____ _____    ______ ____
ROOT
ATOM      1  C   UNL     1       9.966   4.159  23.796  0.00  0.00    +0.059 C 
ATOM      2  C   UNL     1      10.698   3.131  23.342  0.00  0.00    +0.015 C 
ENDROOT
BRANCH   2   3
ATOM      3  C   UNL     1      10.289   1.716  23.442  0.00  0.00    +0.017 A 
ATOM      4  C   UNL     1       9.685   1.065  22.353  0.00  0.00    +0.124 A 
ATOM      5  C   UNL     1       9.328  -0.284  22.422  0.00  0.00    +0.046 A 
ATOM      6  C   UNL     1       9.584  -1.010  23.584  0.00  0.00    +0.004 A 
ATOM      7  C   UNL     1      10.197  -0.390  24.668  0.00  0.00    +0.001 A 
ATOM      8  C   UNL     1      10.553   0.959  24.596  0.00  0.00    +0.011 A 
BRANCH   4   9
ATOM      9  O   UNL     1       9.438   1.767  21.202  0.00  0.00    -0.506 OA
ATOM     10  H   UNL     1       9.344   2.708  21.423  0.00  0.00    +0.292 HD
ENDBRANCH   4   9
ENDBRANCH   2   3
BRANCH   1  11
ATOM     11  C   UNL     1      10.463   5.551  23.686  0.00  0.00    +0.262 C 
ATOM     12  O   UNL     1       9.758   6.554  23.645  0.00  0.00    -0.280 OA
BRANCH  11  13
ATOM     13  C   UNL     1      11.978   5.745  23.589  0.00  0.00    +0.377 C 
ATOM     14  O   UNL     1      12.697   5.966  24.544  0.00  0.00    -0.241 OA
BRANCH  13  15
ATOM     15  O   UNL     1      12.384   5.624  22.310  0.00  0.00    -0.475 OA
ATOM     16  H   UNL     1      12.197   6.469  21.835  0.00  0.00    +0.296 HD
ENDBRANCH  13  15
ENDBRANCH  11  13
ENDBRANCH   1  11
TORSDOF 5
ENDMDL
MODEL 5
REMARK VINA RESULT:      -5.2      2.179      2.847
REMARK  Name = 
REMARK  5 active torsions:
REMARK  status: ('A' for Active; 'I' for Inactive)
REMARK    1  A    between atoms: O_1  and  C_2
REMARK    2  A    between atoms: C_2  and  C_4
REMARK    3  A    between atoms: C_4  and  C_6
REMARK    4  A    between atoms: C_7  and  C_8
REMARK    5  A    between atoms: C_13  and  O_14
REMARK                            x       y       z     vdW  Elec       q    Type
REMARK                         _______ _______ _______ _____ _____    ______ ____
ROOT
ATOM      1  C   UNL     1       7.574  -2.520  22.824  0.00  0.00    +0.059 C 
ATOM      2  C   UNL     1       8.486  -1.768  22.190  0.00  0.00    +0.015 C 
ENDROOT
BRANCH   2   3
ATOM      3  C   UNL     1       9.272  -0.699  22.837  0.00  0.00    +0.017 A 
ATOM      4  C   UNL     1       9.497   0.523  22.182  0.00  0.00    +0.124 A 
ATOM      5  C   UNL     1      10.207   1.557  22.798  0.00  0.00    +0.046 A 
ATOM      6  C   UNL     1      10.694   1.386  24.093  0.00  0.00    +0.004 A 
ATOM      7  C   UNL     1      10.469   0.190  24.767  0.00  0.00    +0.001 A 
ATOM      8  C   UNL     1       9.758  -0.841  24.147  0.00  0.00    +0.011 A 
BRANCH   4   9
ATOM      9  O   UNL     1       9.013   0.706  20.913  0.00  0.00    -0.506 OA
ATOM     10  H   UNL     1       8.079   0.440  20.891  0.00  0.00    +0.292 HD
ENDBRANCH   4   9
ENDBRANCH   2   3
BRANCH   1  11
ATOM     11  C   UNL     1       6.803  -3.553  22.094  0.00  0.00    +0.262 C 
ATOM     12  O   UNL     1       5.785  -3.349  21.441  0.00  0.00    -0.280 OA
BRANCH  11  13
ATOM     13  C   UNL     1       7.307  -4.996  22.186  0.00  0.00    +0.377 C 
ATOM     14  O   UNL     1       8.032  -5.406  23.072  0.00  0.00    -0.241 OA
BRANCH  13  15
ATOM     15  O   UNL     1       6.823  -5.727  21.163  0.00  0.00    -0.475 OA
ATOM     16  H   UNL     1       7.529  -5.822  20.479  0.00  0.00    +0.296 HD
ENDBRANCH  13  15
ENDBRANCH  11  13
ENDBRANCH   1  11
TORSDOF 5
ENDMDL
MODEL 6
REMARK VINA RESULT:      -5.0      2.510      3.225
REMARK  Name = 
REMARK  5 active torsions:
REMARK  status: ('A' for Active; 'I' for Inactive)
REMARK    1  A    between atoms: O_1  and  C_2
REMARK    2  A    between atoms: C_2  and  C_4
REMARK    3  A    between atoms: C_4  and  C_6
REMARK    4  A    between atoms: C_7  and  C_8
REMARK    5  A    between atoms: C_13  and  O_14
REMARK                            x       y       z     vdW  Elec       q    Type
REMARK                         _______ _______ _______ _____ _____    ______ ____
ROOT
ATOM      1  C   UNL     1       6.827  -3.242  22.919  0.00  0.00    +0.059 C 
ATOM      2  C   UNL     1       8.114  -2.946  22.687  0.00  0.00    +0.015 C 
ENDROOT
BRANCH   2   3
ATOM      3  C   UNL     1       8.869  -1.906  23.412  0.00  0.00    +0.017 A 
ATOM      4  C   UNL     1       9.889  -1.183  22.772  0.00  0.00    +0.124 A 
ATOM      5  C   UNL     1      10.586  -0.169  23.436  0.00  0.00    +0.046 A 
ATOM      6  C   UNL     1      10.260   0.146  24.754  0.00  0.00    +0.004 A 
ATOM      7  C   UNL     1       9.241  -0.546  25.402  0.00  0.00    +0.001 A 
ATOM      8  C   UNL     1       8.547  -1.558  24.734  0.00  0.00    +0.011 A 
BRANCH   4   9
ATOM      9  O   UNL     1      10.211  -1.478  21.473  0.00  0.00    -0.506 OA
ATOM     10  H   UNL     1      11.178  -1.490  21.385  0.00  0.00    +0.292 HD
ENDBRANCH   4   9
ENDBRANCH   2   3
BRANCH   1  11
ATOM     11  C   UNL     1       6.131  -4.281  22.124  0.00  0.00    +0.262 C 
ATOM     12  O   UNL     1       5.682  -4.126  20.994  0.00  0.00    -0.280 OA
BRANCH  11  13
ATOM     13  C   UNL     1       5.936  -5.649  22.783  0.00  0.00    +0.377 C 
ATOM     14  O   UNL     1       5.699  -5.807  23.964  0.00  0.00    -0.241 OA
BRANCH  13  15
ATOM     15  O   UNL     1       6.053  -6.630  21.866  0.00  0.00    -0.475 OA
ATOM     16  H   UNL     1       5.640  -7.451  22.225  0.00  0.00    +0.296 HD
ENDBRANCH  13  15
ENDBRANCH  11  13
ENDBRANCH   1  11
TORSDOF 5
ENDMDL
MODEL 7
REMARK VINA RESULT:      -5.0      1.847      2.395
REMARK  Name = 
REMARK  5 active torsions:
REMARK  status: ('A' for Active; 'I' for Inactive)
REMARK    1  A    between atoms: O_1  and  C_2
REMARK    2  A    between atoms: C_2  and  C_4
REMARK    3  A    between atoms: C_4  and  C_6
REMARK    4  A    between atoms: C_7  and  C_8
REMARK    5  A    between atoms: C_13  and  O_14
REMARK                            x       y       z     vdW  Elec       q    Type
REMARK                         _______ _______ _______ _____ _____    ______ ____
ROOT
ATOM      1  C   UNL     1       9.080  -2.572  24.328  0.00  0.00    +0.059 C 
ATOM      2  C   UNL     1       8.290  -1.488  24.338  0.00  0.00    +0.015 C 
ENDROOT
BRANCH   2   3
ATOM      3  C   UNL     1       8.374  -0.393  23.351  0.00  0.00    +0.017 A 
ATOM      4  C   UNL     1       7.256   0.413  23.078  0.00  0.00    +0.124 A 
ATOM      5  C   UNL     1       7.333   1.476  22.173  0.00  0.00    +0.046 A 
ATOM      6  C   UNL     1       8.540   1.758  21.536  0.00  0.00    +0.004 A 
ATOM      7  C   UNL     1       9.664   0.983  21.805  0.00  0.00    +0.001 A 
ATOM      8  C   UNL     1       9.583  -0.079  22.709  0.00  0.00    +0.011 A 
BRANCH   4   9
ATOM      9  O   UNL     1       6.067   0.151  23.706  0.00  0.00    -0.506 OA
ATOM     10  H   UNL     1       5.961   0.770  24.448  0.00  0.00    +0.292 HD
ENDBRANCH   4   9
ENDBRANCH   2   3
BRANCH   1  11
ATOM     11  C   UNL     1       8.953  -3.613  25.375  0.00  0.00    +0.262 C 
ATOM     12  O   UNL     1       8.590  -3.417  26.529  0.00  0.00    -0.280 OA
BRANCH  11  13
ATOM     13  C   UNL     1       9.333  -5.044  24.985  0.00  0.00    +0.377 C 
ATOM     14  O   UNL     1       8.871  -5.632  24.027  0.00  0.00    -0.241 OA
BRANCH  13  15
ATOM     15  O   UNL     1      10.248  -5.535  25.843  0.00  0.00    -0.475 OA
ATOM     16  H   UNL     1       9.779  -5.916  26.624  0.00  0.00    +0.296 HD
ENDBRANCH  13  15
ENDBRANCH  11  13
ENDBRANCH   1  11
TORSDOF 5
ENDMDL
MODEL 8
REMARK VINA RESULT:      -5.0      2.255      3.446
REMARK  Name = 
REMARK  5 active torsions:
REMARK  status: ('A' for Active; 'I' for Inactive)
REMARK    1  A    between atoms: O_1  and  C_2
REMARK    2  A    between atoms: C_2  and  C_4
REMARK    3  A    between atoms: C_4  and  C_6
REMARK    4  A    between atoms: C_7  and  C_8
REMARK    5  A    between atoms: C_13  and  O_14
REMARK                            x       y       z     vdW  Elec       q    Type
REMARK                         _______ _______ _______ _____ _____    ______ ____
ROOT
ATOM      1  C   UNL     1       7.749  -2.482  22.773  0.00  0.00    +0.059 C 
ATOM      2  C   UNL     1       9.005  -2.057  22.978  0.00  0.00    +0.015 C 
ENDROOT
BRANCH   2   3
ATOM      3  C   UNL     1       9.402  -0.636  23.019  0.00  0.00    +0.017 A 
ATOM      4  C   UNL     1       9.701  -0.010  24.241  0.00  0.00    +0.124 A 
ATOM      5  C   UNL     1      10.114   1.325  24.289  0.00  0.00    +0.046 A 
ATOM      6  C   UNL     1      10.249   2.051  23.107  0.00  0.00    +0.004 A 
ATOM      7  C   UNL     1       9.975   1.446  21.885  0.00  0.00    +0.001 A 
ATOM      8  C   UNL     1       9.561   0.111  21.840  0.00  0.00    +0.011 A 
BRANCH   4   9
ATOM      9  O   UNL     1       9.581  -0.718  25.407  0.00  0.00    -0.506 OA
ATOM     10  H   UNL     1       9.120  -0.168  26.062  0.00  0.00    +0.292 HD
ENDBRANCH   4   9
ENDBRANCH   2   3
BRANCH   1  11
ATOM     11  C   UNL     1       7.437  -3.929  22.715  0.00  0.00    +0.262 C 
ATOM     12  O   UNL     1       7.989  -4.801  23.377  0.00  0.00    -0.280 OA
BRANCH  11  13
ATOM     13  C   UNL     1       6.354  -4.370  21.727  0.00  0.00    +0.377 C 
ATOM     14  O   UNL     1       6.411  -5.388  21.066  0.00  0.00    -0.241 OA
BRANCH  13  15
ATOM     15  O   UNL     1       5.344  -3.478  21.712  0.00  0.00    -0.475 OA
ATOM     16  H   UNL     1       5.696  -2.594  21.976  0.00  0.00    +0.296 HD
ENDBRANCH  13  15
ENDBRANCH  11  13
ENDBRANCH   1  11
TORSDOF 5
ENDMDL
MODEL 9
REMARK VINA RESULT:      -4.9      4.215      7.186
REMARK  Name = 
REMARK  5 active torsions:
REMARK  status: ('A' for Active; 'I' for Inactive)
REMARK    1  A    between atoms: O_1  and  C_2
REMARK    2  A    between atoms: C_2  and  C_4
REMARK    3  A    between atoms: C_4  and  C_6
REMARK    4  A    between atoms: C_7  and  C_8
REMARK    5  A    between atoms: C_13  and  O_14
REMARK                            x       y       z     vdW  Elec       q    Type
REMARK                         _______ _______ _______ _____ _____    ______ ____
ROOT
ATOM      1  C   UNL     1       9.257   3.717  23.557  0.00  0.00    +0.059 C 
ATOM      2  C   UNL     1       9.826   2.621  24.082  0.00  0.00    +0.015 C 
ENDROOT
BRANCH   2   3
ATOM      3  C   UNL     1       9.856   1.304  23.415  0.00  0.00    +0.017 A 
ATOM      4  C   UNL     1      10.087   0.131  24.154  0.00  0.00    +0.124 A 
ATOM      5  C   UNL     1      10.082  -1.124  23.541  0.00  0.00    +0.046 A 
ATOM      6  C   UNL     1       9.829  -1.227  22.174  0.00  0.00    +0.004 A 
ATOM      7  C   UNL     1       9.581  -0.080  21.426  0.00  0.00    +0.001 A 
ATOM      8  C   UNL     1       9.588   1.174  22.043  0.00  0.00    +0.011 A 
BRANCH   4   9
ATOM      9  O   UNL     1      10.326   0.220  25.500  0.00  0.00    -0.506 OA
ATOM     10  H   UNL     1       9.483   0.370  25.959  0.00  0.00    +0.292 HD
ENDBRANCH   4   9
ENDBRANCH   2   3
BRANCH   1  11
ATOM     11  C   UNL     1       9.241   4.996  24.306  0.00  0.00    +0.262 C 
ATOM     12  O   UNL     1       8.350   5.362  25.064  0.00  0.00    -0.280 OA
BRANCH  11  13
ATOM     13  C   UNL     1      10.423   5.944  24.091  0.00  0.00    +0.377 C 
ATOM     14  O   UNL     1      10.799   6.757  24.912  0.00  0.00    -0.241 OA
BRANCH  13  15
ATOM     15  O   UNL     1      10.977   5.734  22.881  0.00  0.00    -0.475 OA
ATOM     16  H   UNL     1      10.262   5.729  22.200  0.00  0.00    +0.296 HD
ENDBRANCH  13  15
ENDBRANCH  11  13
ENDBRANCH   1  11
TORSDOF 5
ENDMDL
