MODEL 1
REMARK VINA RESULT:      -6.5      0.000      0.000
REMARK  Name = 
REMARK  1 active torsions:
REMARK  status: ('A' for Active; 'I' for Inactive)
REMARK    1  A    between atoms: C_3  and  C_12
REMARK                            x       y       z     vdW  Elec       q    Type
REMARK                         _______ _______ _______ _____ _____    ______ ____
ROOT
ATOM      1  O   UNL     1       9.936  -3.398  24.112  0.00  0.00    -0.291 OA
ATOM      2  C   UNL     1       8.795  -2.978  24.035  0.00  0.00    +0.179 C 
ATOM      3  C   UNL     1       7.673  -3.780  23.550  0.00  0.00    +0.029 A 
ATOM      4  C   UNL     1       6.496  -3.055  23.653  0.00  0.00    +0.029 A 
ATOM      5  C   UNL     1       5.281  -3.583  23.256  0.00  0.00    +0.012 A 
ATOM      6  C   UNL     1       5.280  -4.881  22.736  0.00  0.00    +0.001 A 
ATOM      7  C   UNL     1       6.477  -5.614  22.628  0.00  0.00    +0.001 A 
ATOM      8  C   UNL     1       6.777  -1.724  24.192  0.00  0.00    +0.179 C 
ATOM      9  O   UNL     1       5.913  -0.890  24.394  0.00  0.00    -0.291 OA
ATOM     10  C   UNL     1       7.694  -5.065  23.040  0.00  0.00    +0.012 A 
ATOM     11  C   UNL     1       8.275  -1.599  24.420  0.00  0.00    +0.161 C 
ENDROOT
BRANCH  11  12
ATOM     12  C   UNL     1       8.954  -0.500  23.630  0.00  0.00    -0.029 A 
ATOM     13  C   UNL     1       8.766  -0.444  22.239  0.00  0.00    +0.005 A 
ATOM     14  C   UNL     1       9.327   0.586  21.483  0.00  0.00    +0.000 A 
ATOM     15  C   UNL     1      10.078   1.580  22.105  0.00  0.00    +0.000 A 
ATOM     16  C   UNL     1      10.269   1.543  23.484  0.00  0.00    +0.000 A 
ATOM     17  C   UNL     1       9.709   0.513  24.243  0.00  0.00    +0.005 A 
ENDBRANCH  11  12
TORSDOF 1
ENDMDL
MODEL 2
REMARK VINA RESULT:      -6.4      1.140      5.617
REMARK  Name = 
REMARK  1 active torsions:
REMARK  status: ('A' for Active; 'I' for Inactive)
REMARK    1  A    between atoms: C_3  and  C_12
REMARK                            x       y       z     vdW  Elec       q    Type
REMARK                         _______ _______ _______ _____ _____    ______ ____
ROOT
ATOM      1  O   UNL     1       5.809  -1.154  24.176  0.00  0.00    -0.291 OA
ATOM      2  C   UNL     1       6.969  -1.376  23.875  0.00  0.00    +0.179 C 
ATOM      3  C   UNL     1       7.803  -0.429  23.137  0.00  0.00    +0.029 A 
ATOM      4  C   UNL     1       9.089  -0.931  23.014  0.00  0.00    +0.029 A 
ATOM      5  C   UNL     1      10.082  -0.232  22.351  0.00  0.00    +0.012 A 
ATOM      6  C   UNL     1       9.740   1.006  21.798  0.00  0.00    +0.001 A 
ATOM      7  C   UNL     1       8.432   1.512  21.919  0.00  0.00    +0.001 A 
ATOM      8  C   UNL     1       9.172  -2.249  23.645  0.00  0.00    +0.179 C 
ATOM      9  O   UNL     1      10.197  -2.904  23.689  0.00  0.00    -0.291 OA
ATOM     10  C   UNL     1       7.444   0.792  22.598  0.00  0.00    +0.012 A 
ATOM     11  C   UNL     1       7.799  -2.613  24.189  0.00  0.00    +0.161 C 
ENDROOT
BRANCH  11  12
ATOM     12  C   UNL     1       7.189  -3.867  23.599  0.00  0.00    -0.029 A 
ATOM     13  C   UNL     1       6.370  -4.673  24.407  0.00  0.00    +0.005 A 
ATOM     14  C   UNL     1       5.744  -5.805  23.884  0.00  0.00    +0.000 A 
ATOM     15  C   UNL     1       5.919  -6.146  22.545  0.00  0.00    +0.000 A 
ATOM     16  C   UNL     1       6.722  -5.353  21.729  0.00  0.00    +0.000 A 
ATOM     17  C   UNL     1       7.351  -4.221  22.250  0.00  0.00    +0.005 A 
ENDBRANCH  11  12
TORSDOF 1
ENDMDL
MODEL 3
REMARK VINA RESULT:      -6.3      1.865      2.910
REMARK  Name = 
REMARK  1 active torsions:
REMARK  status: ('A' for Active; 'I' for Inactive)
REMARK    1  A    between atoms: C_3  and  C_12
REMARK                            x       y       z     vdW  Elec       q    Type
REMARK                         _______ _______ _______ _____ _____    ______ ____
ROOT
ATOM      1  O   UNL     1       5.674  -3.394  21.480  0.00  0.00    -0.291 OA
ATOM      2  C   UNL     1       6.457  -3.620  22.386  0.00  0.00    +0.179 C 
ATOM      3  C   UNL     1       6.097  -4.362  23.593  0.00  0.00    +0.029 A 
ATOM      4  C   UNL     1       7.215  -4.521  24.398  0.00  0.00    +0.029 A 
ATOM      5  C   UNL     1       7.149  -5.187  25.609  0.00  0.00    +0.012 A 
ATOM      6  C   UNL     1       5.906  -5.691  26.001  0.00  0.00    +0.001 A 
ATOM      7  C   UNL     1       4.770  -5.524  25.185  0.00  0.00    +0.001 A 
ATOM      8  C   UNL     1       8.372  -3.875  23.777  0.00  0.00    +0.179 C 
ATOM      9  O   UNL     1       9.484  -3.878  24.273  0.00  0.00    -0.291 OA
ATOM     10  C   UNL     1       4.859  -4.853  23.962  0.00  0.00    +0.012 A 
ATOM     11  C   UNL     1       7.925  -3.227  22.475  0.00  0.00    +0.161 C 
ENDROOT
BRANCH  11  12
ATOM     12  C   UNL     1       8.113  -1.726  22.409  0.00  0.00    -0.029 A 
ATOM     13  C   UNL     1       9.177  -1.204  21.655  0.00  0.00    +0.005 A 
ATOM     14  C   UNL     1       9.349   0.175  21.523  0.00  0.00    +0.000 A 
ATOM     15  C   UNL     1       8.459   1.053  22.136  0.00  0.00    +0.000 A 
ATOM     16  C   UNL     1       7.395   0.551  22.882  0.00  0.00    +0.000 A 
ATOM     17  C   UNL     1       7.220  -0.828  23.017  0.00  0.00    +0.005 A 
ENDBRANCH  11  12
TORSDOF 1
ENDMDL
MODEL 4
REMARK VINA RESULT:      -6.2      1.464      5.571
REMARK  Name = 
REMARK  1 active torsions:
REMARK  status: ('A' for Active; 'I' for Inactive)
REMARK    1  A    between atoms: C_3  and  C_12
REMARK                            x       y       z     vdW  Elec       q    Type
REMARK                         _______ _______ _______ _____ _____    ______ ____
ROOT
ATOM      1  O   UNL     1       8.592  -1.142  26.166  0.00  0.00    -0.291 OA
ATOM      2  C   UNL     1       9.035  -1.002  25.039  0.00  0.00    +0.179 C 
ATOM      3  C   UNL     1       9.282   0.303  24.429  0.00  0.00    +0.029 A 
ATOM      4  C   UNL     1       9.856   0.136  23.178  0.00  0.00    +0.029 A 
ATOM      5  C   UNL     1      10.188   1.217  22.381  0.00  0.00    +0.012 A 
ATOM      6  C   UNL     1       9.917   2.495  22.881  0.00  0.00    +0.001 A 
ATOM      7  C   UNL     1       9.330   2.662  24.150  0.00  0.00    +0.001 A 
ATOM      8  C   UNL     1      10.000  -1.289  22.882  0.00  0.00    +0.179 C 
ATOM      9  O   UNL     1      10.490  -1.710  21.850  0.00  0.00    -0.291 OA
ATOM     10  C   UNL     1       9.007   1.557  24.942  0.00  0.00    +0.012 A 
ATOM     11  C   UNL     1       9.437  -2.087  24.049  0.00  0.00    +0.161 C 
ENDROOT
BRANCH  11  12
ATOM     12  C   UNL     1       8.275  -2.994  23.703  0.00  0.00    -0.029 A 
ATOM     13  C   UNL     1       7.184  -2.464  22.994  0.00  0.00    +0.005 A 
ATOM     14  C   UNL     1       6.121  -3.280  22.607  0.00  0.00    +0.000 A 
ATOM     15  C   UNL     1       6.133  -4.638  22.915  0.00  0.00    +0.000 A 
ATOM     16  C   UNL     1       7.210  -5.180  23.611  0.00  0.00    +0.000 A 
ATOM     17  C   UNL     1       8.276  -4.366  24.001  0.00  0.00    +0.005 A 
ENDBRANCH  11  12
TORSDOF 1
ENDMDL
MODEL 5
REMARK VINA RESULT:      -6.1      1.874      3.057
REMARK  Name = 
REMARK  1 active torsions:
REMARK  status: ('A' for Active; 'I' for Inactive)
REMARK    1  A    between atoms: C_3  and  C_12
REMARK                            x       y       z     vdW  Elec       q    Type
REMARK                         _______ _______ _______ _____ _____    ______ ____
ROOT
ATOM      1  O   UNL     1       6.247  -0.962  23.863  0.00  0.00    -0.291 OA
ATOM      2  C   UNL     1       7.285  -1.589  23.978  0.00  0.00    +0.179 C 
ATOM      3  C   UNL     1       7.487  -2.633  24.981  0.00  0.00    +0.029 A 
ATOM      4  C   UNL     1       8.734  -3.213  24.812  0.00  0.00    +0.029 A 
ATOM      5  C   UNL     1       9.181  -4.230  25.637  0.00  0.00    +0.012 A 
ATOM      6  C   UNL     1       8.327  -4.652  26.661  0.00  0.00    +0.001 A 
ATOM      7  C   UNL     1       7.062  -4.058  26.835  0.00  0.00    +0.001 A 
ATOM      8  C   UNL     1       9.436  -2.571  23.700  0.00  0.00    +0.179 C 
ATOM      9  O   UNL     1      10.549  -2.901  23.333  0.00  0.00    -0.291 OA
ATOM     10  C   UNL     1       6.627  -3.035  25.986  0.00  0.00    +0.012 A 
ATOM     11  C   UNL     1       8.552  -1.466  23.141  0.00  0.00    +0.161 C 
ENDROOT
BRANCH  11  12
ATOM     12  C   UNL     1       9.143  -0.074  23.215  0.00  0.00    -0.029 A 
ATOM     13  C   UNL     1       9.539   0.562  22.026  0.00  0.00    +0.005 A 
ATOM     14  C   UNL     1      10.035   1.866  22.046  0.00  0.00    +0.000 A 
ATOM     15  C   UNL     1      10.137   2.558  23.251  0.00  0.00    +0.000 A 
ATOM     16  C   UNL     1       9.742   1.943  24.437  0.00  0.00    +0.000 A 
ATOM     17  C   UNL     1       9.246   0.638  24.420  0.00  0.00    +0.005 A 
ENDBRANCH  11  12
TORSDOF 1
ENDMDL
MODEL 6
REMARK VINA RESULT:      -6.1      3.772      7.218
REMARK  Name = 
REMARK  1 active torsions:
REMARK  status: ('A' for Active; 'I' for Inactive)
REMARK    1  A    between atoms: C_3  and  C_12
REMARK                            x       y       z     vdW  Elec       q    Type
REMARK                         _______ _______ _______ _____ _____    ______ ____
ROOT
ATOM      1  O   UNL     1       7.946   2.185  25.453  0.00  0.00    -0.291 OA
ATOM      2  C   UNL     1       8.755   2.854  24.834  0.00  0.00    +0.179 C 
ATOM      3  C   UNL     1       8.557   4.268  24.520  0.00  0.00    +0.029 A 
ATOM      4  C   UNL     1       9.679   4.769  23.879  0.00  0.00    +0.029 A 
ATOM      5  C   UNL     1       9.752   6.087  23.466  0.00  0.00    +0.012 A 
ATOM      6  C   UNL     1       8.644   6.903  23.714  0.00  0.00    +0.001 A 
ATOM      7  C   UNL     1       7.503   6.392  24.361  0.00  0.00    +0.001 A 
ATOM      8  C   UNL     1      10.673   3.708  23.712  0.00  0.00    +0.179 C 
ATOM      9  O   UNL     1      11.758   3.886  23.188  0.00  0.00    -0.291 OA
ATOM     10  C   UNL     1       7.451   5.057  24.776  0.00  0.00    +0.012 A 
ATOM     11  C   UNL     1      10.105   2.417  24.281  0.00  0.00    +0.161 C 
ENDROOT
BRANCH  11  12
ATOM     12  C   UNL     1       9.966   1.285  23.284  0.00  0.00    -0.029 A 
ATOM     13  C   UNL     1      10.431   0.007  23.635  0.00  0.00    +0.005 A 
ATOM     14  C   UNL     1      10.270  -1.074  22.767  0.00  0.00    +0.000 A 
ATOM     15  C   UNL     1       9.637  -0.897  21.539  0.00  0.00    +0.000 A 
ATOM     16  C   UNL     1       9.165   0.363  21.180  0.00  0.00    +0.000 A 
ATOM     17  C   UNL     1       9.325   1.447  22.045  0.00  0.00    +0.005 A 
ENDBRANCH  11  12
TORSDOF 1
ENDMDL
MODEL 7
REMARK VINA RESULT:      -6.1      1.774      2.860
REMARK  Name = 
REMARK  1 active torsions:
REMARK  status: ('A' for Active; 'I' for Inactive)
REMARK    1  A    between atoms: C_3  and  C_12
REMARK                            x       y       z     vdW  Elec       q    Type
REMARK                         _______ _______ _______ _____ _____    ______ ____
ROOT
ATOM      1  O   UNL     1       6.413  -2.260  22.643  0.00  0.00    -0.291 OA
ATOM      2  C   UNL     1       7.160  -2.905  23.359  0.00  0.00    +0.179 C 
ATOM      3  C   UNL     1       6.688  -3.791  24.422  0.00  0.00    +0.029 A 
ATOM      4  C   UNL     1       7.765  -4.440  25.005  0.00  0.00    +0.029 A 
ATOM      5  C   UNL     1       7.596  -5.336  26.046  0.00  0.00    +0.012 A 
ATOM      6  C   UNL     1       6.292  -5.562  26.497  0.00  0.00    +0.001 A 
ATOM      7  C   UNL     1       5.200  -4.898  25.907  0.00  0.00    +0.001 A 
ATOM      8  C   UNL     1       9.011  -4.003  24.376  0.00  0.00    +0.179 C 
ATOM      9  O   UNL     1      10.106  -4.431  24.695  0.00  0.00    -0.291 OA
ATOM     10  C   UNL     1       5.391  -4.000  24.853  0.00  0.00    +0.012 A 
ATOM     11  C   UNL     1       8.681  -2.962  23.317  0.00  0.00    +0.161 C 
ENDROOT
BRANCH  11  12
ATOM     12  C   UNL     1       9.303  -1.600  23.543  0.00  0.00    -0.029 A 
ATOM     13  C   UNL     1       9.700  -0.839  22.431  0.00  0.00    +0.005 A 
ATOM     14  C   UNL     1      10.225   0.444  22.595  0.00  0.00    +0.000 A 
ATOM     15  C   UNL     1      10.354   0.989  23.870  0.00  0.00    +0.000 A 
ATOM     16  C   UNL     1       9.959   0.250  24.982  0.00  0.00    +0.000 A 
ATOM     17  C   UNL     1       9.434  -1.034  24.821  0.00  0.00    +0.005 A 
ENDBRANCH  11  12
TORSDOF 1
ENDMDL
MODEL 8
REMARK VINA RESULT:      -6.0      1.788      5.524
REMARK  Name = 
REMARK  1 active torsions:
REMARK  status: ('A' for Active; 'I' for Inactive)
REMARK    1  A    between atoms: C_3  and  C_12
REMARK                            x       y       z     vdW  Elec       q    Type
REMARK                         _______ _______ _______ _____ _____    ______ ____
ROOT
ATOM      1  O   UNL     1       7.810  -0.129  25.988  0.00  0.00    -0.291 OA
ATOM      2  C   UNL     1       8.421  -0.520  25.008  0.00  0.00    +0.179 C 
ATOM      3  C   UNL     1       8.456   0.206  23.741  0.00  0.00    +0.029 A 
ATOM      4  C   UNL     1       9.292  -0.446  22.848  0.00  0.00    +0.029 A 
ATOM      5  C   UNL     1       9.500   0.031  21.566  0.00  0.00    +0.012 A 
ATOM      6  C   UNL     1       8.829   1.200  21.195  0.00  0.00    +0.001 A 
ATOM      7  C   UNL     1       7.977   1.859  22.102  0.00  0.00    +0.001 A 
ATOM      8  C   UNL     1       9.839  -1.653  23.468  0.00  0.00    +0.179 C 
ATOM      9  O   UNL     1      10.613  -2.403  22.902  0.00  0.00    -0.291 OA
ATOM     10  C   UNL     1       7.784   1.364  23.395  0.00  0.00    +0.012 A 
ATOM     11  C   UNL     1       9.268  -1.778  24.873  0.00  0.00    +0.161 C 
ENDROOT
BRANCH  11  12
ATOM     12  C   UNL     1       8.458  -3.033  25.125  0.00  0.00    -0.029 A 
ATOM     13  C   UNL     1       8.628  -3.722  26.337  0.00  0.00    +0.005 A 
ATOM     14  C   UNL     1       7.860  -4.849  26.632  0.00  0.00    +0.000 A 
ATOM     15  C   UNL     1       6.906  -5.302  25.723  0.00  0.00    +0.000 A 
ATOM     16  C   UNL     1       6.721  -4.626  24.520  0.00  0.00    +0.000 A 
ATOM     17  C   UNL     1       7.488  -3.498  24.222  0.00  0.00    +0.005 A 
ENDBRANCH  11  12
TORSDOF 1
ENDMDL
MODEL 9
REMARK VINA RESULT:      -6.0      2.218      3.228
REMARK  Name = 
REMARK  1 active torsions:
REMARK  status: ('A' for Active; 'I' for Inactive)
REMARK    1  A    between atoms: C_3  and  C_12
REMARK                            x       y       z     vdW  Elec       q    Type
REMARK                         _______ _______ _______ _____ _____    ______ ____
ROOT
ATOM      1  O   UNL     1       7.488  -4.102  22.345  0.00  0.00    -0.291 OA
ATOM      2  C   UNL     1       7.689  -4.320  23.527  0.00  0.00    +0.179 C 
ATOM      3  C   UNL     1       6.718  -4.977  24.400  0.00  0.00    +0.029 A 
ATOM      4  C   UNL     1       7.263  -5.153  25.662  0.00  0.00    +0.029 A 
ATOM      5  C   UNL     1       6.548  -5.748  26.686  0.00  0.00    +0.012 A 
ATOM      6  C   UNL     1       5.243  -6.165  26.404  0.00  0.00    +0.001 A 
ATOM      7  C   UNL     1       4.689  -5.981  25.123  0.00  0.00    +0.001 A 
ATOM      8  C   UNL     1       8.618  -4.602  25.701  0.00  0.00    +0.179 C 
ATOM      9  O   UNL     1       9.325  -4.638  26.692  0.00  0.00    -0.291 OA
ATOM     10  C   UNL     1       5.431  -5.382  24.100  0.00  0.00    +0.012 A 
ATOM     11  C   UNL     1       8.937  -4.002  24.340  0.00  0.00    +0.161 C 
ENDROOT
BRANCH  11  12
ATOM     12  C   UNL     1       9.240  -2.519  24.350  0.00  0.00    -0.029 A 
ATOM     13  C   UNL     1       8.735  -1.726  25.394  0.00  0.00    +0.005 A 
ATOM     14  C   UNL     1       9.040  -0.366  25.469  0.00  0.00    +0.000 A 
ATOM     15  C   UNL     1       9.859   0.221  24.508  0.00  0.00    +0.000 A 
ATOM     16  C   UNL     1      10.373  -0.552  23.471  0.00  0.00    +0.000 A 
ATOM     17  C   UNL     1      10.069  -1.913  23.392  0.00  0.00    +0.005 A 
ENDBRANCH  11  12
TORSDOF 1
ENDMDL
