MODEL 1
REMARK VINA RESULT:      -6.0      0.000      0.000
REMARK  Name = 
REMARK  8 active torsions:
REMARK  status: ('A' for Active; 'I' for Inactive)
REMARK    1  A    between atoms: C_1  and  C_2
REMARK    2  A    between atoms: C_2  and  C_3
REMARK    3  A    between atoms: C_3  and  C_5
REMARK    4  A    between atoms: C_5  and  C_7
REMARK    5  A    between atoms: C_12  and  O_13
REMARK    6  A    between atoms: O_13  and  C_14
REMARK    7  A    between atoms: C_14  and  C_15
REMARK    8  A    between atoms: C_15  and  O_16
REMARK                            x       y       z     vdW  Elec       q    Type
REMARK                         _______ _______ _______ _____ _____    ______ ____
ROOT
ATOM      1  C   UNL     1       8.898  -3.080  24.307  0.00  0.00    +0.042 A 
ATOM      2  C   UNL     1       9.729  -2.396  23.413  0.00  0.00    +0.017 A 
ATOM      3  C   UNL     1      10.111  -1.078  23.663  0.00  0.00    +0.048 A 
ATOM      4  C   UNL     1       9.626  -0.388  24.781  0.00  0.00    +0.141 A 
ATOM      5  C   UNL     1       8.815  -1.070  25.708  0.00  0.00    +0.101 A 
ATOM      6 CL   UNL     1       8.325  -0.308  27.192  0.00  0.00    -0.078 Cl
ATOM      7  C   UNL     1       8.443  -2.418  25.466  0.00  0.00    +0.074 A 
ATOM      8 CL   UNL     1       7.479  -3.265  26.648  0.00  0.00    -0.081 Cl
ENDROOT
BRANCH   1   9
ATOM      9  C   UNL     1       8.439  -4.457  23.957  0.00  0.00    +0.190 C 
ATOM     10  O   UNL     1       9.035  -5.422  24.423  0.00  0.00    -0.287 OA
BRANCH   9  11
ATOM     11  C   UNL     1       7.199  -4.682  23.129  0.00  0.00    -0.007 C 
ATOM     12  C   UNL     1       6.130  -3.865  23.174  0.00  0.00    +0.016 C 
BRANCH  11  14
ATOM     13  C   UNL     1       6.235  -5.751  21.027  0.00  0.00    +0.009 C 
ATOM     14  C   UNL     1       7.264  -5.835  22.151  0.00  0.00    +0.035 C 
ENDBRANCH  11  14
ENDBRANCH   9  11
ENDBRANCH   1   9
BRANCH   4  15
ATOM     15  O   UNL     1      10.087   0.910  24.839  0.00  0.00    -0.479 OA
BRANCH  15  16
ATOM     16  C   UNL     1       9.394   1.879  24.048  0.00  0.00    +0.349 C 
BRANCH  16  17
ATOM     17  C   UNL     1      10.354   2.565  23.083  0.00  0.00    +0.343 C 
ATOM     18  O   UNL     1      11.209   3.370  23.427  0.00  0.00    -0.247 OA
BRANCH  17  19
ATOM     19  O   UNL     1      10.173   2.203  21.792  0.00  0.00    -0.478 OA
ATOM     20  H   UNL     1      10.979   1.760  21.451  0.00  0.00    +0.295 HD
ENDBRANCH  17  19
ENDBRANCH  16  17
ENDBRANCH  15  16
ENDBRANCH   4  15
TORSDOF 7
ENDMDL
MODEL 2
REMARK VINA RESULT:      -5.9      2.685      6.482
REMARK  Name = 
REMARK  8 active torsions:
REMARK  status: ('A' for Active; 'I' for Inactive)
REMARK    1  A    between atoms: C_1  and  C_2
REMARK    2  A    between atoms: C_2  and  C_3
REMARK    3  A    between atoms: C_3  and  C_5
REMARK    4  A    between atoms: C_5  and  C_7
REMARK    5  A    between atoms: C_12  and  O_13
REMARK    6  A    between atoms: O_13  and  C_14
REMARK    7  A    between atoms: C_14  and  C_15
REMARK    8  A    between atoms: C_15  and  O_16
REMARK                            x       y       z     vdW  Elec       q    Type
REMARK                         _______ _______ _______ _____ _____    ______ ____
ROOT
ATOM      1  C   UNL     1       9.326  -0.434  24.955  0.00  0.00    +0.042 A 
ATOM      2  C   UNL     1       8.491  -0.289  26.070  0.00  0.00    +0.017 A 
ATOM      3  C   UNL     1       7.563  -1.276  26.397  0.00  0.00    +0.048 A 
ATOM      4  C   UNL     1       7.401  -2.408  25.588  0.00  0.00    +0.141 A 
ATOM      5  C   UNL     1       8.254  -2.587  24.482  0.00  0.00    +0.101 A 
ATOM      6 CL   UNL     1       8.204  -4.052  23.546  0.00  0.00    -0.078 Cl
ATOM      7  C   UNL     1       9.214  -1.593  24.160  0.00  0.00    +0.074 A 
ATOM      8 CL   UNL     1      10.297  -1.852  22.817  0.00  0.00    -0.081 Cl
ENDROOT
BRANCH   1   9
ATOM      9  C   UNL     1      10.240   0.687  24.588  0.00  0.00    +0.190 C 
ATOM     10  O   UNL     1      11.430   0.607  24.877  0.00  0.00    -0.287 OA
BRANCH   9  11
ATOM     11  C   UNL     1       9.753   1.863  23.779  0.00  0.00    -0.007 C 
ATOM     12  C   UNL     1       9.231   2.970  24.338  0.00  0.00    +0.016 C 
BRANCH  11  14
ATOM     13  C   UNL     1       8.799   1.196  21.513  0.00  0.00    +0.009 C 
ATOM     14  C   UNL     1       9.983   1.771  22.286  0.00  0.00    +0.035 C 
ENDBRANCH  11  14
ENDBRANCH   9  11
ENDBRANCH   1   9
BRANCH   4  15
ATOM     15  O   UNL     1       6.416  -3.252  26.054  0.00  0.00    -0.479 OA
BRANCH  15  16
ATOM     16  C   UNL     1       6.727  -4.032  27.212  0.00  0.00    +0.349 C 
BRANCH  16  17
ATOM     17  C   UNL     1       7.024  -5.474  26.820  0.00  0.00    +0.343 C 
ATOM     18  O   UNL     1       6.164  -6.291  26.520  0.00  0.00    -0.247 OA
BRANCH  17  19
ATOM     19  O   UNL     1       8.342  -5.778  26.837  0.00  0.00    -0.478 OA
ATOM     20  H   UNL     1       8.748  -5.564  25.971  0.00  0.00    +0.295 HD
ENDBRANCH  17  19
ENDBRANCH  16  17
ENDBRANCH  15  16
ENDBRANCH   4  15
TORSDOF 7
ENDMDL
MODEL 3
REMARK VINA RESULT:      -5.9      3.295      6.871
REMARK  Name = 
REMARK  8 active torsions:
REMARK  status: ('A' for Active; 'I' for Inactive)
REMARK    1  A    between atoms: C_1  and  C_2
REMARK    2  A    between atoms: C_2  and  C_3
REMARK    3  A    between atoms: C_3  and  C_5
REMARK    4  A    between atoms: C_5  and  C_7
REMARK    5  A    between atoms: C_12  and  O_13
REMARK    6  A    between atoms: O_13  and  C_14
REMARK    7  A    between atoms: C_14  and  C_15
REMARK    8  A    between atoms: C_15  and  O_16
REMARK                            x       y       z     vdW  Elec       q    Type
REMARK                         _______ _______ _______ _____ _____    ______ ____
ROOT
ATOM      1  C   UNL     1       9.024  -3.196  24.254  0.00  0.00    +0.042 A 
ATOM      2  C   UNL     1       9.487  -3.718  25.468  0.00  0.00    +0.017 A 
ATOM      3  C   UNL     1       8.750  -4.681  26.155  0.00  0.00    +0.048 A 
ATOM      4  C   UNL     1       7.502  -5.107  25.681  0.00  0.00    +0.141 A 
ATOM      5  C   UNL     1       7.037  -4.618  24.445  0.00  0.00    +0.101 A 
ATOM      6 CL   UNL     1       5.576  -5.239  23.735  0.00  0.00    -0.078 Cl
ATOM      7  C   UNL     1       7.796  -3.653  23.734  0.00  0.00    +0.074 A 
ATOM      8 CL   UNL     1       7.230  -3.093  22.182  0.00  0.00    -0.081 Cl
ENDROOT
BRANCH   1   9
ATOM      9  C   UNL     1       9.797  -2.101  23.598  0.00  0.00    +0.190 C 
ATOM     10  O   UNL     1      10.618  -2.385  22.731  0.00  0.00    -0.287 OA
BRANCH   9  11
ATOM     11  C   UNL     1       9.516  -0.651  23.904  0.00  0.00    -0.007 C 
ATOM     12  C   UNL     1       9.975  -0.034  25.009  0.00  0.00    +0.016 C 
BRANCH  11  14
ATOM     13  C   UNL     1       9.673   0.883  21.876  0.00  0.00    +0.009 C 
ATOM     14  C   UNL     1       8.767   0.112  22.833  0.00  0.00    +0.035 C 
ENDBRANCH  11  14
ENDBRANCH   9  11
ENDBRANCH   1   9
BRANCH   4  15
ATOM     15  O   UNL     1       6.912  -6.036  26.511  0.00  0.00    -0.479 OA
BRANCH  15  16
ATOM     16  C   UNL     1       5.921  -5.553  27.421  0.00  0.00    +0.349 C 
BRANCH  16  17
ATOM     17  C   UNL     1       5.960  -6.344  28.723  0.00  0.00    +0.343 C 
ATOM     18  O   UNL     1       6.360  -5.889  29.786  0.00  0.00    -0.247 OA
BRANCH  17  19
ATOM     19  O   UNL     1       5.511  -7.614  28.597  0.00  0.00    -0.478 OA
ATOM     20  H   UNL     1       4.560  -7.612  28.360  0.00  0.00    +0.295 HD
ENDBRANCH  17  19
ENDBRANCH  16  17
ENDBRANCH  15  16
ENDBRANCH   4  15
TORSDOF 7
ENDMDL
MODEL 4
REMARK VINA RESULT:      -5.8      2.190      6.069
REMARK  Name = 
REMARK  8 active torsions:
REMARK  status: ('A' for Active; 'I' for Inactive)
REMARK    1  A    between atoms: C_1  and  C_2
REMARK    2  A    between atoms: C_2  and  C_3
REMARK    3  A    between atoms: C_3  and  C_5
REMARK    4  A    between atoms: C_5  and  C_7
REMARK    5  A    between atoms: C_12  and  O_13
REMARK    6  A    between atoms: O_13  and  C_14
REMARK    7  A    between atoms: C_14  and  C_15
REMARK    8  A    between atoms: C_15  and  O_16
REMARK                            x       y       z     vdW  Elec       q    Type
REMARK                         _______ _______ _______ _____ _____    ______ ____
ROOT
ATOM      1  C   UNL     1       9.492  -0.612  24.244  0.00  0.00    +0.042 A 
ATOM      2  C   UNL     1       9.889  -1.830  23.678  0.00  0.00    +0.017 A 
ATOM      3  C   UNL     1       9.094  -2.968  23.809  0.00  0.00    +0.048 A 
ATOM      4  C   UNL     1       7.911  -2.937  24.559  0.00  0.00    +0.141 A 
ATOM      5  C   UNL     1       7.481  -1.714  25.107  0.00  0.00    +0.101 A 
ATOM      6 CL   UNL     1       5.939  -1.589  25.904  0.00  0.00    -0.078 Cl
ATOM      7  C   UNL     1       8.277  -0.550  24.956  0.00  0.00    +0.074 A 
ATOM      8 CL   UNL     1       7.706   0.967  25.599  0.00  0.00    -0.081 Cl
ENDROOT
BRANCH   1   9
ATOM      9  C   UNL     1      10.415   0.558  24.159  0.00  0.00    +0.190 C 
ATOM     10  O   UNL     1      11.422   0.577  24.860  0.00  0.00    -0.287 OA
BRANCH   9  11
ATOM     11  C   UNL     1      10.191   1.661  23.156  0.00  0.00    -0.007 C 
ATOM     12  C   UNL     1      10.586   2.931  23.364  0.00  0.00    +0.016 C 
BRANCH  11  14
ATOM     13  C   UNL     1       8.159   1.747  21.621  0.00  0.00    +0.009 C 
ATOM     14  C   UNL     1       9.581   1.235  21.838  0.00  0.00    +0.035 C 
ENDBRANCH  11  14
ENDBRANCH   9  11
ENDBRANCH   1   9
BRANCH   4  15
ATOM     15  O   UNL     1       7.283  -4.163  24.601  0.00  0.00    -0.479 OA
BRANCH  15  16
ATOM     16  C   UNL     1       8.001  -5.238  25.213  0.00  0.00    +0.349 C 
BRANCH  16  17
ATOM     17  C   UNL     1       8.156  -4.993  26.709  0.00  0.00    +0.343 C 
ATOM     18  O   UNL     1       7.215  -4.891  27.485  0.00  0.00    -0.247 OA
BRANCH  17  19
ATOM     19  O   UNL     1       9.443  -4.892  27.110  0.00  0.00    -0.478 OA
ATOM     20  H   UNL     1      10.008  -4.609  26.360  0.00  0.00    +0.295 HD
ENDBRANCH  17  19
ENDBRANCH  16  17
ENDBRANCH  15  16
ENDBRANCH   4  15
TORSDOF 7
ENDMDL
MODEL 5
REMARK VINA RESULT:      -5.8      2.214      6.169
REMARK  Name = 
REMARK  8 active torsions:
REMARK  status: ('A' for Active; 'I' for Inactive)
REMARK    1  A    between atoms: C_1  and  C_2
REMARK    2  A    between atoms: C_2  and  C_3
REMARK    3  A    between atoms: C_3  and  C_5
REMARK    4  A    between atoms: C_5  and  C_7
REMARK    5  A    between atoms: C_12  and  O_13
REMARK    6  A    between atoms: O_13  and  C_14
REMARK    7  A    between atoms: C_14  and  C_15
REMARK    8  A    between atoms: C_15  and  O_16
REMARK                            x       y       z     vdW  Elec       q    Type
REMARK                         _______ _______ _______ _____ _____    ______ ____
ROOT
ATOM      1  C   UNL     1       9.272  -0.774  24.144  0.00  0.00    +0.042 A 
ATOM      2  C   UNL     1       9.805  -2.016  23.781  0.00  0.00    +0.017 A 
ATOM      3  C   UNL     1       9.003  -3.156  23.759  0.00  0.00    +0.048 A 
ATOM      4  C   UNL     1       7.661  -3.100  24.157  0.00  0.00    +0.141 A 
ATOM      5  C   UNL     1       7.099  -1.853  24.493  0.00  0.00    +0.101 A 
ATOM      6 CL   UNL     1       5.399  -1.705  24.832  0.00  0.00    -0.078 Cl
ATOM      7  C   UNL     1       7.909  -0.688  24.495  0.00  0.00    +0.074 A 
ATOM      8 CL   UNL     1       7.187   0.856  24.866  0.00  0.00    -0.081 Cl
ENDROOT
BRANCH   1   9
ATOM      9  C   UNL     1      10.185   0.403  24.243  0.00  0.00    +0.190 C 
ATOM     10  O   UNL     1      11.027   0.432  25.135  0.00  0.00    -0.287 OA
BRANCH   9  11
ATOM     11  C   UNL     1      10.162   1.501  23.210  0.00  0.00    -0.007 C 
ATOM     12  C   UNL     1      10.587   2.752  23.463  0.00  0.00    +0.016 C 
BRANCH  11  14
ATOM     13  C   UNL     1       8.344   1.596  21.428  0.00  0.00    +0.009 C 
ATOM     14  C   UNL     1       9.728   1.085  21.821  0.00  0.00    +0.035 C 
ENDBRANCH  11  14
ENDBRANCH   9  11
ENDBRANCH   1   9
BRANCH   4  15
ATOM     15  O   UNL     1       7.043  -4.330  24.100  0.00  0.00    -0.479 OA
BRANCH  15  16
ATOM     16  C   UNL     1       7.165  -5.059  22.875  0.00  0.00    +0.349 C 
BRANCH  16  17
ATOM     17  C   UNL     1       5.813  -5.167  22.181  0.00  0.00    +0.343 C 
ATOM     18  O   UNL     1       4.945  -4.307  22.238  0.00  0.00    -0.247 OA
BRANCH  17  19
ATOM     19  O   UNL     1       5.652  -6.317  21.487  0.00  0.00    -0.478 OA
ATOM     20  H   UNL     1       5.979  -6.205  20.569  0.00  0.00    +0.295 HD
ENDBRANCH  17  19
ENDBRANCH  16  17
ENDBRANCH  15  16
ENDBRANCH   4  15
TORSDOF 7
ENDMDL
MODEL 6
REMARK VINA RESULT:      -5.7      2.309      6.454
REMARK  Name = 
REMARK  8 active torsions:
REMARK  status: ('A' for Active; 'I' for Inactive)
REMARK    1  A    between atoms: C_1  and  C_2
REMARK    2  A    between atoms: C_2  and  C_3
REMARK    3  A    between atoms: C_3  and  C_5
REMARK    4  A    between atoms: C_5  and  C_7
REMARK    5  A    between atoms: C_12  and  O_13
REMARK    6  A    between atoms: O_13  and  C_14
REMARK    7  A    between atoms: C_14  and  C_15
REMARK    8  A    between atoms: C_15  and  O_16
REMARK                            x       y       z     vdW  Elec       q    Type
REMARK                         _______ _______ _______ _____ _____    ______ ____
ROOT
ATOM      1  C   UNL     1       8.037  -1.621  23.812  0.00  0.00    +0.042 A 
ATOM      2  C   UNL     1       7.663  -2.059  22.536  0.00  0.00    +0.017 A 
ATOM      3  C   UNL     1       7.435  -3.411  22.286  0.00  0.00    +0.048 A 
ATOM      4  C   UNL     1       7.632  -4.371  23.287  0.00  0.00    +0.141 A 
ATOM      5  C   UNL     1       7.976  -3.946  24.584  0.00  0.00    +0.101 A 
ATOM      6 CL   UNL     1       8.069  -5.083  25.898  0.00  0.00    -0.078 Cl
ATOM      7  C   UNL     1       8.187  -2.568  24.846  0.00  0.00    +0.074 A 
ATOM      8 CL   UNL     1       8.565  -2.053  26.469  0.00  0.00    -0.081 Cl
ENDROOT
BRANCH   1   9
ATOM      9  C   UNL     1       8.360  -0.178  24.014  0.00  0.00    +0.190 C 
ATOM     10  O   UNL     1       7.513   0.561  24.507  0.00  0.00    -0.287 OA
BRANCH   9  11
ATOM     11  C   UNL     1       9.737   0.364  23.724  0.00  0.00    -0.007 C 
ATOM     12  C   UNL     1      10.689   0.486  24.666  0.00  0.00    +0.016 C 
BRANCH  11  14
ATOM     13  C   UNL     1       8.878   1.364  21.544  0.00  0.00    +0.009 C 
ATOM     14  C   UNL     1      10.027   0.671  22.270  0.00  0.00    +0.035 C 
ENDBRANCH  11  14
ENDBRANCH   9  11
ENDBRANCH   1   9
BRANCH   4  15
ATOM     15  O   UNL     1       7.389  -5.653  22.842  0.00  0.00    -0.479 OA
BRANCH  15  16
ATOM     16  C   UNL     1       6.293  -5.828  21.939  0.00  0.00    +0.349 C 
BRANCH  16  17
ATOM     17  C   UNL     1       4.985  -5.966  22.709  0.00  0.00    +0.343 C 
ATOM     18  O   UNL     1       4.104  -5.117  22.715  0.00  0.00    -0.247 OA
BRANCH  17  19
ATOM     19  O   UNL     1       4.883  -7.125  23.399  0.00  0.00    -0.478 OA
ATOM     20  H   UNL     1       5.222  -7.869  22.858  0.00  0.00    +0.295 HD
ENDBRANCH  17  19
ENDBRANCH  16  17
ENDBRANCH  15  16
ENDBRANCH   4  15
TORSDOF 7
ENDMDL
MODEL 7
REMARK VINA RESULT:      -5.6      2.558      3.723
REMARK  Name = 
REMARK  8 active torsions:
REMARK  status: ('A' for Active; 'I' for Inactive)
REMARK    1  A    between atoms: C_1  and  C_2
REMARK    2  A    between atoms: C_2  and  C_3
REMARK    3  A    between atoms: C_3  and  C_5
REMARK    4  A    between atoms: C_5  and  C_7
REMARK    5  A    between atoms: C_12  and  O_13
REMARK    6  A    between atoms: O_13  and  C_14
REMARK    7  A    between atoms: C_14  and  C_15
REMARK    8  A    between atoms: C_15  and  O_16
REMARK                            x       y       z     vdW  Elec       q    Type
REMARK                         _______ _______ _______ _____ _____    ______ ____
ROOT
ATOM      1  C   UNL     1       9.608  -0.522  23.996  0.00  0.00    +0.042 A 
ATOM      2  C   UNL     1      10.734   0.176  24.451  0.00  0.00    +0.017 A 
ATOM      3  C   UNL     1      10.837   1.555  24.271  0.00  0.00    +0.048 A 
ATOM      4  C   UNL     1       9.849   2.266  23.579  0.00  0.00    +0.141 A 
ATOM      5  C   UNL     1       8.695   1.587  23.144  0.00  0.00    +0.101 A 
ATOM      6 CL   UNL     1       7.367   2.455  22.429  0.00  0.00    -0.078 Cl
ATOM      7  C   UNL     1       8.577   0.188  23.345  0.00  0.00    +0.074 A 
ATOM      8 CL   UNL     1       7.121  -0.630  22.845  0.00  0.00    -0.081 Cl
ENDROOT
BRANCH   1   9
ATOM      9  C   UNL     1       9.579  -2.008  24.127  0.00  0.00    +0.190 C 
ATOM     10  O   UNL     1      10.270  -2.688  23.374  0.00  0.00    -0.287 OA
BRANCH   9  11
ATOM     11  C   UNL     1       8.801  -2.682  25.229  0.00  0.00    -0.007 C 
ATOM     12  C   UNL     1       8.346  -2.025  26.311  0.00  0.00    +0.016 C 
BRANCH  11  14
ATOM     13  C   UNL     1       9.453  -5.111  25.636  0.00  0.00    +0.009 C 
ATOM     14  C   UNL     1       8.465  -4.140  24.997  0.00  0.00    +0.035 C 
ENDBRANCH  11  14
ENDBRANCH   9  11
ENDBRANCH   1   9
BRANCH   4  15
ATOM     15  O   UNL     1      10.143   3.609  23.474  0.00  0.00    -0.479 OA
BRANCH  15  16
ATOM     16  C   UNL     1      11.514   3.955  23.256  0.00  0.00    +0.349 C 
BRANCH  16  17
ATOM     17  C   UNL     1      11.771   5.400  23.668  0.00  0.00    +0.343 C 
ATOM     18  O   UNL     1      10.898   6.255  23.739  0.00  0.00    -0.247 OA
BRANCH  17  19
ATOM     19  O   UNL     1      13.068   5.660  23.948  0.00  0.00    -0.478 OA
ATOM     20  H   UNL     1      13.335   6.514  23.546  0.00  0.00    +0.295 HD
ENDBRANCH  17  19
ENDBRANCH  16  17
ENDBRANCH  15  16
ENDBRANCH   4  15
TORSDOF 7
ENDMDL
MODEL 8
REMARK VINA RESULT:      -5.6      1.431      1.759
REMARK  Name = 
REMARK  8 active torsions:
REMARK  status: ('A' for Active; 'I' for Inactive)
REMARK    1  A    between atoms: C_1  and  C_2
REMARK    2  A    between atoms: C_2  and  C_3
REMARK    3  A    between atoms: C_3  and  C_5
REMARK    4  A    between atoms: C_5  and  C_7
REMARK    5  A    between atoms: C_12  and  O_13
REMARK    6  A    between atoms: O_13  and  C_14
REMARK    7  A    between atoms: C_14  and  C_15
REMARK    8  A    between atoms: C_15  and  O_16
REMARK                            x       y       z     vdW  Elec       q    Type
REMARK                         _______ _______ _______ _____ _____    ______ ____
ROOT
ATOM      1  C   UNL     1       8.196  -3.632  25.135  0.00  0.00    +0.042 A 
ATOM      2  C   UNL     1       9.283  -3.476  24.266  0.00  0.00    +0.017 A 
ATOM      3  C   UNL     1       9.826  -2.214  24.026  0.00  0.00    +0.048 A 
ATOM      4  C   UNL     1       9.262  -1.067  24.598  0.00  0.00    +0.141 A 
ATOM      5  C   UNL     1       8.190  -1.208  25.500  0.00  0.00    +0.101 A 
ATOM      6 CL   UNL     1       7.564   0.167  26.362  0.00  0.00    -0.078 Cl
ATOM      7  C   UNL     1       7.650  -2.494  25.763  0.00  0.00    +0.074 A 
ATOM      8 CL   UNL     1       6.355  -2.658  26.919  0.00  0.00    -0.081 Cl
ENDROOT
BRANCH   1   9
ATOM      9  C   UNL     1       7.588  -4.986  25.294  0.00  0.00    +0.190 C 
ATOM     10  O   UNL     1       8.065  -5.763  26.115  0.00  0.00    -0.287 OA
BRANCH   9  11
ATOM     11  C   UNL     1       6.341  -5.377  24.542  0.00  0.00    -0.007 C 
ATOM     12  C   UNL     1       5.269  -5.930  25.140  0.00  0.00    +0.016 C 
BRANCH  11  14
ATOM     13  C   UNL     1       7.205  -5.896  22.203  0.00  0.00    +0.009 C 
ATOM     14  C   UNL     1       6.318  -5.011  23.074  0.00  0.00    +0.035 C 
ENDBRANCH  11  14
ENDBRANCH   9  11
ENDBRANCH   1   9
BRANCH   4  15
ATOM     15  O   UNL     1       9.914   0.086  24.217  0.00  0.00    -0.479 OA
BRANCH  15  16
ATOM     16  C   UNL     1       9.174   1.014  23.418  0.00  0.00    +0.349 C 
BRANCH  16  17
ATOM     17  C   UNL     1       9.666   0.987  21.976  0.00  0.00    +0.343 C 
ATOM     18  O   UNL     1       9.635  -0.007  21.262  0.00  0.00    -0.247 OA
BRANCH  17  19
ATOM     19  O   UNL     1      10.152   2.174  21.548  0.00  0.00    -0.478 OA
ATOM     20  H   UNL     1      10.986   2.037  21.050  0.00  0.00    +0.295 HD
ENDBRANCH  17  19
ENDBRANCH  16  17
ENDBRANCH  15  16
ENDBRANCH   4  15
TORSDOF 7
ENDMDL
MODEL 9
REMARK VINA RESULT:      -5.6      2.597      3.109
REMARK  Name = 
REMARK  8 active torsions:
REMARK  status: ('A' for Active; 'I' for Inactive)
REMARK    1  A    between atoms: C_1  and  C_2
REMARK    2  A    between atoms: C_2  and  C_3
REMARK    3  A    between atoms: C_3  and  C_5
REMARK    4  A    between atoms: C_5  and  C_7
REMARK    5  A    between atoms: C_12  and  O_13
REMARK    6  A    between atoms: O_13  and  C_14
REMARK    7  A    between atoms: C_14  and  C_15
REMARK    8  A    between atoms: C_15  and  O_16
REMARK                            x       y       z     vdW  Elec       q    Type
REMARK                         _______ _______ _______ _____ _____    ______ ____
ROOT
ATOM      1  C   UNL     1       7.741  -2.028  25.015  0.00  0.00    +0.042 A 
ATOM      2  C   UNL     1       8.467  -1.210  25.889  0.00  0.00    +0.017 A 
ATOM      3  C   UNL     1       9.466  -0.366  25.408  0.00  0.00    +0.048 A 
ATOM      4  C   UNL     1       9.811  -0.358  24.051  0.00  0.00    +0.141 A 
ATOM      5  C   UNL     1       9.069  -1.149  23.152  0.00  0.00    +0.101 A 
ATOM      6 CL   UNL     1       9.348  -1.049  21.438  0.00  0.00    -0.078 Cl
ATOM      7  C   UNL     1       8.037  -1.993  23.637  0.00  0.00    +0.074 A 
ATOM      8 CL   UNL     1       7.096  -2.930  22.506  0.00  0.00    -0.081 Cl
ENDROOT
BRANCH   1   9
ATOM      9  C   UNL     1       6.743  -2.984  25.581  0.00  0.00    +0.190 C 
ATOM     10  O   UNL     1       5.624  -2.575  25.873  0.00  0.00    -0.287 OA
BRANCH   9  11
ATOM     11  C   UNL     1       7.050  -4.455  25.704  0.00  0.00    -0.007 C 
ATOM     12  C   UNL     1       6.286  -5.410  25.144  0.00  0.00    +0.016 C 
BRANCH  11  14
ATOM     13  C   UNL     1       9.494  -5.133  25.470  0.00  0.00    +0.009 C 
ATOM     14  C   UNL     1       8.342  -4.798  26.413  0.00  0.00    +0.035 C 
ENDBRANCH  11  14
ENDBRANCH   9  11
ENDBRANCH   1   9
BRANCH   4  15
ATOM     15  O   UNL     1      10.841   0.515  23.774  0.00  0.00    -0.479 OA
BRANCH  15  16
ATOM     16  C   UNL     1      10.577   1.908  23.964  0.00  0.00    +0.349 C 
BRANCH  16  17
ATOM     17  C   UNL     1       9.709   2.446  22.832  0.00  0.00    +0.343 C 
ATOM     18  O   UNL     1       8.610   2.957  22.999  0.00  0.00    -0.247 OA
BRANCH  17  19
ATOM     19  O   UNL     1      10.267   2.304  21.609  0.00  0.00    -0.478 OA
ATOM     20  H   UNL     1       9.816   1.588  21.114  0.00  0.00    +0.295 HD
ENDBRANCH  17  19
ENDBRANCH  16  17
ENDBRANCH  15  16
ENDBRANCH   4  15
TORSDOF 7
ENDMDL
