MODEL 1
REMARK VINA RESULT:      -7.0      0.000      0.000
REMARK  Name = 
REMARK  5 active torsions:
REMARK  status: ('A' for Active; 'I' for Inactive)
REMARK    1  A    between atoms: C_2  and  C_3
REMARK    2  A    between atoms: N_11  and  N_12
REMARK    3  A    between atoms: C_13  and  C_15
REMARK    4  A    between atoms: C_20  and  S_22
REMARK    5  A    between atoms: S_22  and  N_23
REMARK                            x       y       z     vdW  Elec       q    Type
REMARK                         _______ _______ _______ _____ _____    ______ ____
ROOT
ATOM      1  N   UNL     1       8.146  -0.360  24.128  0.00  0.00    -0.230 N 
ATOM      2  H   UNL     1       7.621  -0.639  23.308  0.00  0.00    +0.173 HD
ATOM      3  C   UNL     1       8.262  -1.160  25.262  0.00  0.00    +0.260 C 
ATOM      4  O   UNL     1       9.081  -1.003  26.159  0.00  0.00    -0.269 OA
ENDROOT
BRANCH   1   7
ATOM      5  C   UNL     1       9.964   0.618  22.714  0.00  0.00    +0.096 C 
ATOM      6  C   UNL     1       9.247   0.115  21.461  0.00  0.00    +0.030 C 
ATOM      7  N   UNL     1       9.114   0.601  23.920  0.00  0.00    -0.247 N 
ATOM      8  C   UNL     1       8.842   1.933  24.273  0.00  0.00    +0.051 A 
ATOM      9  C   UNL     1       9.643   2.824  23.555  0.00  0.00    -0.023 A 
ATOM     10  C   UNL     1       9.660   4.181  23.833  0.00  0.00    +0.005 A 
ATOM     11  C   UNL     1       8.828   4.656  24.847  0.00  0.00    +0.000 A 
ATOM     12  C   UNL     1       7.985   3.776  25.543  0.00  0.00    +0.002 A 
ATOM     13  C   UNL     1       7.989   2.405  25.256  0.00  0.00    +0.025 A 
ATOM     14  C   UNL     1      10.450   2.083  22.538  0.00  0.00    +0.061 C 
ENDBRANCH   1   7
BRANCH   3  15
ATOM     15  C   UNL     1       7.374  -2.356  25.294  0.00  0.00    +0.040 A 
ATOM     16  C   UNL     1       6.704  -2.814  24.159  0.00  0.00    +0.043 A 
ATOM     17  C   UNL     1       6.026  -4.045  24.192  0.00  0.00    +0.124 A 
ATOM     18  C   UNL     1       5.979  -4.797  25.367  0.00  0.00    +0.067 A 
ATOM     19 CL   UNL     1       5.249  -6.357  25.491  0.00  0.00    -0.082 Cl
ATOM     20  C   UNL     1       6.575  -4.289  26.526  0.00  0.00    +0.023 A 
ATOM     21  C   UNL     1       7.270  -3.077  26.492  0.00  0.00    +0.014 A 
BRANCH  17  22
ATOM     22  S   UNL     1       5.306  -4.626  22.688  0.00  0.00    +0.057 S 
ATOM     23  O   UNL     1       3.882  -4.742  22.868  0.00  0.00    -0.153 OA
ATOM     24  O   UNL     1       6.108  -5.725  22.196  0.00  0.00    -0.153 OA
BRANCH  22  25
ATOM     25  N   UNL     1       5.593  -3.378  21.608  0.00  0.00    -0.203 NA
ATOM     26  H   UNL     1       5.361  -3.679  20.660  0.00  0.00    +0.144 HD
ATOM     27  H   UNL     1       6.538  -3.017  21.716  0.00  0.00    +0.144 HD
ENDBRANCH  22  25
ENDBRANCH  17  22
ENDBRANCH   3  15
TORSDOF 4
ENDMDL
MODEL 2
REMARK VINA RESULT:      -7.0      4.168      7.565
REMARK  Name = 
REMARK  5 active torsions:
REMARK  status: ('A' for Active; 'I' for Inactive)
REMARK    1  A    between atoms: C_2  and  C_3
REMARK    2  A    between atoms: N_11  and  N_12
REMARK    3  A    between atoms: C_13  and  C_15
REMARK    4  A    between atoms: C_20  and  S_22
REMARK    5  A    between atoms: S_22  and  N_23
REMARK                            x       y       z     vdW  Elec       q    Type
REMARK                         _______ _______ _______ _____ _____    ______ ____
ROOT
ATOM      1  N   UNL     1       8.477  -1.517  23.558  0.00  0.00    -0.230 N 
ATOM      2  H   UNL     1       8.035  -1.090  24.363  0.00  0.00    +0.173 HD
ATOM      3  C   UNL     1       9.340  -0.826  22.711  0.00  0.00    +0.260 C 
ATOM      4  O   UNL     1      10.097  -1.340  21.898  0.00  0.00    -0.269 OA
ENDROOT
BRANCH   1   7
ATOM      5  C   UNL     1       9.030  -3.625  24.789  0.00  0.00    +0.096 C 
ATOM      6  C   UNL     1       8.610  -2.957  26.100  0.00  0.00    +0.030 C 
ATOM      7  N   UNL     1       8.577  -2.893  23.590  0.00  0.00    -0.247 N 
ATOM      8  C   UNL     1       7.585  -3.665  22.965  0.00  0.00    +0.051 A 
ATOM      9  C   UNL     1       7.524  -4.952  23.507  0.00  0.00    -0.023 A 
ATOM     10  C   UNL     1       6.723  -5.941  22.957  0.00  0.00    +0.005 A 
ATOM     11  C   UNL     1       5.946  -5.616  21.846  0.00  0.00    +0.000 A 
ATOM     12  C   UNL     1       5.963  -4.314  21.324  0.00  0.00    +0.002 A 
ATOM     13  C   UNL     1       6.786  -3.330  21.885  0.00  0.00    +0.025 A 
ATOM     14  C   UNL     1       8.451  -5.061  24.674  0.00  0.00    +0.061 C 
ENDBRANCH   1   7
BRANCH   3  15
ATOM     15  C   UNL     1       9.396   0.648  22.920  0.00  0.00    +0.040 A 
ATOM     16  C   UNL     1       8.294   1.473  22.690  0.00  0.00    +0.043 A 
ATOM     17  C   UNL     1       8.336   2.824  23.073  0.00  0.00    +0.124 A 
ATOM     18  C   UNL     1       9.490   3.364  23.645  0.00  0.00    +0.067 A 
ATOM     19 CL   UNL     1       9.617   4.985  24.227  0.00  0.00    -0.082 Cl
ATOM     20  C   UNL     1      10.622   2.555  23.789  0.00  0.00    +0.023 A 
ATOM     21  C   UNL     1      10.577   1.204  23.430  0.00  0.00    +0.014 A 
BRANCH  17  22
ATOM     22  S   UNL     1       6.867   3.782  22.869  0.00  0.00    +0.057 S 
ATOM     23  O   UNL     1       6.536   4.400  24.127  0.00  0.00    -0.153 OA
ATOM     24  O   UNL     1       5.909   2.992  22.128  0.00  0.00    -0.153 OA
BRANCH  22  25
ATOM     25  N   UNL     1       7.331   4.990  21.804  0.00  0.00    -0.203 NA
ATOM     26  H   UNL     1       7.165   4.686  20.842  0.00  0.00    +0.144 HD
ATOM     27  H   UNL     1       8.285   5.290  21.992  0.00  0.00    +0.144 HD
ENDBRANCH  22  25
ENDBRANCH  17  22
ENDBRANCH   3  15
TORSDOF 4
ENDMDL
MODEL 3
REMARK VINA RESULT:      -7.0      2.047      3.093
REMARK  Name = 
REMARK  5 active torsions:
REMARK  status: ('A' for Active; 'I' for Inactive)
REMARK    1  A    between atoms: C_2  and  C_3
REMARK    2  A    between atoms: N_11  and  N_12
REMARK    3  A    between atoms: C_13  and  C_15
REMARK    4  A    between atoms: C_20  and  S_22
REMARK    5  A    between atoms: S_22  and  N_23
REMARK                            x       y       z     vdW  Elec       q    Type
REMARK                         _______ _______ _______ _____ _____    ______ ____
ROOT
ATOM      1  N   UNL     1       8.859   1.418  24.087  0.00  0.00    -0.230 N 
ATOM      2  H   UNL     1       9.209   1.140  24.997  0.00  0.00    +0.173 HD
ATOM      3  C   UNL     1       8.177   0.550  23.240  0.00  0.00    +0.260 C 
ATOM      4  O   UNL     1       7.511   0.885  22.268  0.00  0.00    -0.269 OA
ENDROOT
BRANCH   1   7
ATOM      5  C   UNL     1       7.587   3.511  24.599  0.00  0.00    +0.096 C 
ATOM      6  C   UNL     1       7.282   2.972  25.997  0.00  0.00    +0.030 C 
ATOM      7  N   UNL     1       8.664   2.772  23.911  0.00  0.00    -0.247 N 
ATOM      8  C   UNL     1       9.780   3.619  23.825  0.00  0.00    +0.051 A 
ATOM      9  C   UNL     1       9.451   4.932  24.172  0.00  0.00    -0.023 A 
ATOM     10  C   UNL     1      10.351   5.976  24.024  0.00  0.00    +0.005 A 
ATOM     11  C   UNL     1      11.624   5.683  23.536  0.00  0.00    +0.000 A 
ATOM     12  C   UNL     1      11.980   4.361  23.230  0.00  0.00    +0.002 A 
ATOM     13  C   UNL     1      11.055   3.320  23.375  0.00  0.00    +0.025 A 
ATOM     14  C   UNL     1       8.037   4.997  24.651  0.00  0.00    +0.061 C 
ENDBRANCH   1   7
BRANCH   3  15
ATOM     15  C   UNL     1       8.191  -0.883  23.646  0.00  0.00    +0.040 A 
ATOM     16  C   UNL     1       7.308  -1.818  23.103  0.00  0.00    +0.043 A 
ATOM     17  C   UNL     1       7.477  -3.186  23.378  0.00  0.00    +0.124 A 
ATOM     18  C   UNL     1       8.496  -3.618  24.228  0.00  0.00    +0.067 A 
ATOM     19 CL   UNL     1       8.841  -5.277  24.564  0.00  0.00    -0.082 Cl
ATOM     20  C   UNL     1       9.319  -2.670  24.842  0.00  0.00    +0.023 A 
ATOM     21  C   UNL     1       9.171  -1.309  24.554  0.00  0.00    +0.014 A 
BRANCH  17  22
ATOM     22  S   UNL     1       6.406  -4.326  22.560  0.00  0.00    +0.057 S 
ATOM     23  O   UNL     1       5.537  -4.932  23.535  0.00  0.00    -0.153 OA
ATOM     24  O   UNL     1       7.198  -5.117  21.643  0.00  0.00    -0.153 OA
BRANCH  22  25
ATOM     25  N   UNL     1       5.471  -3.347  21.572  0.00  0.00    -0.203 NA
ATOM     26  H   UNL     1       5.104  -2.560  22.111  0.00  0.00    +0.144 HD
ATOM     27  H   UNL     1       4.762  -3.893  21.088  0.00  0.00    +0.144 HD
ENDBRANCH  22  25
ENDBRANCH  17  22
ENDBRANCH   3  15
TORSDOF 4
ENDMDL
MODEL 4
REMARK VINA RESULT:      -6.9      2.213      2.586
REMARK  Name = 
REMARK  5 active torsions:
REMARK  status: ('A' for Active; 'I' for Inactive)
REMARK    1  A    between atoms: C_2  and  C_3
REMARK    2  A    between atoms: N_11  and  N_12
REMARK    3  A    between atoms: C_13  and  C_15
REMARK    4  A    between atoms: C_20  and  S_22
REMARK    5  A    between atoms: S_22  and  N_23
REMARK                            x       y       z     vdW  Elec       q    Type
REMARK                         _______ _______ _______ _____ _____    ______ ____
ROOT
ATOM      1  N   UNL     1       8.364  -0.934  23.862  0.00  0.00    -0.230 N 
ATOM      2  H   UNL     1       7.399  -0.804  23.580  0.00  0.00    +0.173 HD
ATOM      3  C   UNL     1       8.940  -2.189  24.037  0.00  0.00    +0.260 C 
ATOM      4  O   UNL     1      10.142  -2.413  24.113  0.00  0.00    -0.269 OA
ENDROOT
BRANCH   1   7
ATOM      5  C   UNL     1       9.908   0.299  22.325  0.00  0.00    +0.096 C 
ATOM      6  C   UNL     1       9.100  -0.204  21.127  0.00  0.00    +0.030 C 
ATOM      7  N   UNL     1       9.207   0.130  23.613  0.00  0.00    -0.247 N 
ATOM      8  C   UNL     1       8.856   1.406  24.081  0.00  0.00    +0.051 A 
ATOM      9  C   UNL     1       9.482   2.411  23.340  0.00  0.00    -0.023 A 
ATOM     10  C   UNL     1       9.404   3.746  23.705  0.00  0.00    +0.005 A 
ATOM     11  C   UNL     1       8.654   4.078  24.833  0.00  0.00    +0.000 A 
ATOM     12  C   UNL     1       7.982   3.081  25.557  0.00  0.00    +0.002 A 
ATOM     13  C   UNL     1       8.081   1.736  25.181  0.00  0.00    +0.025 A 
ATOM     14  C   UNL     1      10.232   1.812  22.195  0.00  0.00    +0.061 C 
ENDBRANCH   1   7
BRANCH   3  15
ATOM     15  C   UNL     1       7.991  -3.337  24.014  0.00  0.00    +0.040 A 
ATOM     16  C   UNL     1       7.417  -3.849  25.179  0.00  0.00    +0.043 A 
ATOM     17  C   UNL     1       6.392  -4.807  25.094  0.00  0.00    +0.124 A 
ATOM     18  C   UNL     1       5.971  -5.287  23.853  0.00  0.00    +0.067 A 
ATOM     19 CL   UNL     1       4.667  -6.398  23.634  0.00  0.00    -0.082 Cl
ATOM     20  C   UNL     1       6.613  -4.839  22.695  0.00  0.00    +0.023 A 
ATOM     21  C   UNL     1       7.617  -3.868  22.772  0.00  0.00    +0.014 A 
BRANCH  17  22
ATOM     22  S   UNL     1       5.622  -5.321  26.597  0.00  0.00    +0.057 S 
ATOM     23  O   UNL     1       5.717  -6.753  26.704  0.00  0.00    -0.153 OA
ATOM     24  O   UNL     1       4.359  -4.625  26.721  0.00  0.00    -0.153 OA
BRANCH  22  25
ATOM     25  N   UNL     1       6.593  -4.647  27.785  0.00  0.00    -0.203 NA
ATOM     26  H   UNL     1       7.571  -4.674  27.491  0.00  0.00    +0.144 HD
ATOM     27  H   UNL     1       6.412  -5.080  28.688  0.00  0.00    +0.144 HD
ENDBRANCH  22  25
ENDBRANCH  17  22
ENDBRANCH   3  15
TORSDOF 4
ENDMDL
MODEL 5
REMARK VINA RESULT:      -6.7      3.704      7.866
REMARK  Name = 
REMARK  5 active torsions:
REMARK  status: ('A' for Active; 'I' for Inactive)
REMARK    1  A    between atoms: C_2  and  C_3
REMARK    2  A    between atoms: N_11  and  N_12
REMARK    3  A    between atoms: C_13  and  C_15
REMARK    4  A    between atoms: C_20  and  S_22
REMARK    5  A    between atoms: S_22  and  N_23
REMARK                            x       y       z     vdW  Elec       q    Type
REMARK                         _______ _______ _______ _____ _____    ______ ____
ROOT
ATOM      1  N   UNL     1       6.496  -3.753  23.861  0.00  0.00    -0.230 N 
ATOM      2  H   UNL     1       5.853  -2.985  24.017  0.00  0.00    +0.173 HD
ATOM      3  C   UNL     1       7.800  -3.571  23.410  0.00  0.00    +0.260 C 
ATOM      4  O   UNL     1       8.690  -4.410  23.456  0.00  0.00    -0.269 OA
ENDROOT
BRANCH   1   7
ATOM      5  C   UNL     1       6.550  -5.105  25.967  0.00  0.00    +0.096 C 
ATOM      6  C   UNL     1       6.454  -3.817  26.785  0.00  0.00    +0.030 C 
ATOM      7  N   UNL     1       6.210  -4.919  24.542  0.00  0.00    -0.247 N 
ATOM      8  C   UNL     1       4.989  -5.569  24.303  0.00  0.00    +0.051 A 
ATOM      9  C   UNL     1       4.622  -6.377  25.382  0.00  0.00    -0.023 A 
ATOM     10  C   UNL     1       3.531  -7.230  25.320  0.00  0.00    +0.005 A 
ATOM     11  C   UNL     1       2.776  -7.249  24.148  0.00  0.00    +0.000 A 
ATOM     12  C   UNL     1       3.108  -6.407  23.076  0.00  0.00    +0.002 A 
ATOM     13  C   UNL     1       4.221  -5.560  23.151  0.00  0.00    +0.025 A 
ATOM     14  C   UNL     1       5.585  -6.194  26.510  0.00  0.00    +0.061 C 
ENDBRANCH   1   7
BRANCH   3  15
ATOM     15  C   UNL     1       8.128  -2.194  22.944  0.00  0.00    +0.040 A 
ATOM     16  C   UNL     1       7.335  -1.092  23.266  0.00  0.00    +0.043 A 
ATOM     17  C   UNL     1       7.779   0.206  22.961  0.00  0.00    +0.124 A 
ATOM     18  C   UNL     1       8.990   0.404  22.296  0.00  0.00    +0.067 A 
ATOM     19 CL   UNL     1       9.665   1.955  21.950  0.00  0.00    -0.082 Cl
ATOM     20  C   UNL     1       9.736  -0.709  21.894  0.00  0.00    +0.023 A 
ATOM     21  C   UNL     1       9.311  -2.001  22.215  0.00  0.00    +0.014 A 
BRANCH  17  22
ATOM     22  S   UNL     1       6.789   1.562  23.507  0.00  0.00    +0.057 S 
ATOM     23  O   UNL     1       6.312   2.284  22.357  0.00  0.00    -0.153 OA
ATOM     24  O   UNL     1       7.481   2.221  24.593  0.00  0.00    -0.153 OA
BRANCH  22  25
ATOM     25  N   UNL     1       5.474   0.819  24.234  0.00  0.00    -0.203 NA
ATOM     26  H   UNL     1       4.872   0.404  23.520  0.00  0.00    +0.144 HD
ATOM     27  H   UNL     1       4.999   1.462  24.864  0.00  0.00    +0.144 HD
ENDBRANCH  22  25
ENDBRANCH  17  22
ENDBRANCH   3  15
TORSDOF 4
ENDMDL
MODEL 6
REMARK VINA RESULT:      -6.6      3.088      3.615
REMARK  Name = 
REMARK  5 active torsions:
REMARK  status: ('A' for Active; 'I' for Inactive)
REMARK    1  A    between atoms: C_2  and  C_3
REMARK    2  A    between atoms: N_11  and  N_12
REMARK    3  A    between atoms: C_13  and  C_15
REMARK    4  A    between atoms: C_20  and  S_22
REMARK    5  A    between atoms: S_22  and  N_23
REMARK                            x       y       z     vdW  Elec       q    Type
REMARK                         _______ _______ _______ _____ _____    ______ ____
ROOT
ATOM      1  N   UNL     1       7.594  -1.860  24.436  0.00  0.00    -0.230 N 
ATOM      2  H   UNL     1       7.250  -2.278  23.580  0.00  0.00    +0.173 HD
ATOM      3  C   UNL     1       7.608  -2.531  25.656  0.00  0.00    +0.260 C 
ATOM      4  O   UNL     1       8.240  -2.188  26.646  0.00  0.00    -0.269 OA
ENDROOT
BRANCH   1   7
ATOM      5  C   UNL     1       9.924  -0.995  24.144  0.00  0.00    +0.096 C 
ATOM      6  C   UNL     1      10.301  -2.284  23.413  0.00  0.00    +0.030 C 
ATOM      7  N   UNL     1       8.467  -0.803  24.276  0.00  0.00    -0.247 N 
ATOM      8  C   UNL     1       8.098   0.270  23.449  0.00  0.00    +0.051 A 
ATOM      9  C   UNL     1       9.218   0.959  22.979  0.00  0.00    -0.023 A 
ATOM     10  C   UNL     1       9.104   2.141  22.264  0.00  0.00    +0.005 A 
ATOM     11  C   UNL     1       7.824   2.627  21.996  0.00  0.00    +0.000 A 
ATOM     12  C   UNL     1       6.692   1.918  22.423  0.00  0.00    +0.002 A 
ATOM     13  C   UNL     1       6.826   0.731  23.154  0.00  0.00    +0.025 A 
ATOM     14  C   UNL     1      10.468   0.257  23.401  0.00  0.00    +0.061 C 
ENDBRANCH   1   7
BRANCH   3  15
ATOM     15  C   UNL     1       6.870  -3.825  25.682  0.00  0.00    +0.040 A 
ATOM     16  C   UNL     1       6.539  -4.467  26.876  0.00  0.00    +0.043 A 
ATOM     17  C   UNL     1       5.688  -5.585  26.860  0.00  0.00    +0.124 A 
ATOM     18  C   UNL     1       5.201  -6.089  25.652  0.00  0.00    +0.067 A 
ATOM     19 CL   UNL     1       4.086  -7.401  25.527  0.00  0.00    -0.082 Cl
ATOM     20  C   UNL     1       5.610  -5.497  24.453  0.00  0.00    +0.023 A 
ATOM     21  C   UNL     1       6.438  -4.371  24.465  0.00  0.00    +0.014 A 
BRANCH  17  22
ATOM     22  S   UNL     1       5.208  -6.275  28.412  0.00  0.00    +0.057 S 
ATOM     23  O   UNL     1       5.756  -7.601  28.523  0.00  0.00    -0.153 OA
ATOM     24  O   UNL     1       3.800  -6.008  28.612  0.00  0.00    -0.153 OA
BRANCH  22  25
ATOM     25  N   UNL     1       5.984  -5.298  29.531  0.00  0.00    -0.203 NA
ATOM     26  H   UNL     1       6.234  -5.847  30.356  0.00  0.00    +0.144 HD
ATOM     27  H   UNL     1       5.431  -4.467  29.730  0.00  0.00    +0.144 HD
ENDBRANCH  22  25
ENDBRANCH  17  22
ENDBRANCH   3  15
TORSDOF 4
ENDMDL
MODEL 7
REMARK VINA RESULT:      -6.6      4.150      7.640
REMARK  Name = 
REMARK  5 active torsions:
REMARK  status: ('A' for Active; 'I' for Inactive)
REMARK    1  A    between atoms: C_2  and  C_3
REMARK    2  A    between atoms: N_11  and  N_12
REMARK    3  A    between atoms: C_13  and  C_15
REMARK    4  A    between atoms: C_20  and  S_22
REMARK    5  A    between atoms: S_22  and  N_23
REMARK                            x       y       z     vdW  Elec       q    Type
REMARK                         _______ _______ _______ _____ _____    ______ ____
ROOT
ATOM      1  N   UNL     1       8.031  -1.509  24.412  0.00  0.00    -0.230 N 
ATOM      2  H   UNL     1       7.239  -1.434  25.041  0.00  0.00    +0.173 HD
ATOM      3  C   UNL     1       8.965  -0.491  24.244  0.00  0.00    +0.260 C 
ATOM      4  O   UNL     1      10.063  -0.617  23.718  0.00  0.00    -0.269 OA
ENDROOT
BRANCH   1   7
ATOM      5  C   UNL     1       9.012  -3.713  25.081  0.00  0.00    +0.096 C 
ATOM      6  C   UNL     1       8.458  -3.520  26.493  0.00  0.00    +0.030 C 
ATOM      7  N   UNL     1       8.418  -2.795  24.090  0.00  0.00    -0.247 N 
ATOM      8  C   UNL     1       7.612  -3.555  23.228  0.00  0.00    +0.051 A 
ATOM      9  C   UNL     1       7.822  -4.924  23.410  0.00  0.00    -0.023 A 
ATOM     10  C   UNL     1       7.250  -5.871  22.575  0.00  0.00    +0.005 A 
ATOM     11  C   UNL     1       6.424  -5.425  21.544  0.00  0.00    +0.000 A 
ATOM     12  C   UNL     1       6.168  -4.055  21.381  0.00  0.00    +0.002 A 
ATOM     13  C   UNL     1       6.764  -3.112  22.227  0.00  0.00    +0.025 A 
ATOM     14  C   UNL     1       8.749  -5.152  24.561  0.00  0.00    +0.061 C 
ENDBRANCH   1   7
BRANCH   3  15
ATOM     15  C   UNL     1       8.608   0.813  24.868  0.00  0.00    +0.040 A 
ATOM     16  C   UNL     1       9.097   2.027  24.382  0.00  0.00    +0.043 A 
ATOM     17  C   UNL     1       8.592   3.239  24.884  0.00  0.00    +0.124 A 
ATOM     18  C   UNL     1       7.633   3.242  25.899  0.00  0.00    +0.067 A 
ATOM     19 CL   UNL     1       6.887   4.669  26.524  0.00  0.00    -0.082 Cl
ATOM     20  C   UNL     1       7.215   2.025  26.445  0.00  0.00    +0.023 A 
ATOM     21  C   UNL     1       7.697   0.816  25.934  0.00  0.00    +0.014 A 
BRANCH  17  22
ATOM     22  S   UNL     1       9.159   4.736  24.140  0.00  0.00    +0.057 S 
ATOM     23  O   UNL     1       9.612   5.629  25.175  0.00  0.00    -0.153 OA
ATOM     24  O   UNL     1       8.192   5.144  23.145  0.00  0.00    -0.153 OA
BRANCH  22  25
ATOM     25  N   UNL     1      10.496   4.251  23.254  0.00  0.00    -0.203 NA
ATOM     26  H   UNL     1      11.161   3.770  23.864  0.00  0.00    +0.144 HD
ATOM     27  H   UNL     1      10.890   5.033  22.736  0.00  0.00    +0.144 HD
ENDBRANCH  22  25
ENDBRANCH  17  22
ENDBRANCH   3  15
TORSDOF 4
ENDMDL
MODEL 8
REMARK VINA RESULT:      -6.6      2.535      3.109
REMARK  Name = 
REMARK  5 active torsions:
REMARK  status: ('A' for Active; 'I' for Inactive)
REMARK    1  A    between atoms: C_2  and  C_3
REMARK    2  A    between atoms: N_11  and  N_12
REMARK    3  A    between atoms: C_13  and  C_15
REMARK    4  A    between atoms: C_20  and  S_22
REMARK    5  A    between atoms: S_22  and  N_23
REMARK                            x       y       z     vdW  Elec       q    Type
REMARK                         _______ _______ _______ _____ _____    ______ ____
ROOT
ATOM      1  N   UNL     1       8.808   1.033  24.251  0.00  0.00    -0.230 N 
ATOM      2  H   UNL     1       8.117   0.964  23.513  0.00  0.00    +0.173 HD
ATOM      3  C   UNL     1       9.512  -0.066  24.735  0.00  0.00    +0.260 C 
ATOM      4  O   UNL     1      10.525  -0.012  25.421  0.00  0.00    -0.269 OA
ENDROOT
BRANCH   1   7
ATOM      5  C   UNL     1      10.395   2.829  23.529  0.00  0.00    +0.096 C 
ATOM      6  C   UNL     1      10.221   2.385  22.076  0.00  0.00    +0.030 C 
ATOM      7  N   UNL     1       9.365   2.283  24.434  0.00  0.00    -0.247 N 
ATOM      8  C   UNL     1       8.542   3.345  24.839  0.00  0.00    +0.051 A 
ATOM      9  C   UNL     1       9.090   4.579  24.481  0.00  0.00    -0.023 A 
ATOM     10  C   UNL     1       8.533   5.778  24.900  0.00  0.00    +0.005 A 
ATOM     11  C   UNL     1       7.379   5.729  25.681  0.00  0.00    +0.000 A 
ATOM     12  C   UNL     1       6.794   4.496  26.007  0.00  0.00    +0.002 A 
ATOM     13  C   UNL     1       7.376   3.295  25.584  0.00  0.00    +0.025 A 
ATOM     14  C   UNL     1      10.323   4.375  23.661  0.00  0.00    +0.061 C 
ENDBRANCH   1   7
BRANCH   3  15
ATOM     15  C   UNL     1       9.025  -1.394  24.268  0.00  0.00    +0.040 A 
ATOM     16  C   UNL     1       9.103  -2.536  25.066  0.00  0.00    +0.043 A 
ATOM     17  C   UNL     1       8.468  -3.722  24.658  0.00  0.00    +0.124 A 
ATOM     18  C   UNL     1       7.795  -3.783  23.436  0.00  0.00    +0.067 A 
ATOM     19 CL   UNL     1       6.914  -5.160  22.882  0.00  0.00    -0.082 Cl
ATOM     20  C   UNL     1       7.800  -2.663  22.600  0.00  0.00    +0.023 A 
ATOM     21  C   UNL     1       8.409  -1.473  23.011  0.00  0.00    +0.014 A 
BRANCH  17  22
ATOM     22  S   UNL     1       8.497  -5.093  25.770  0.00  0.00    +0.057 S 
ATOM     23  O   UNL     1       7.231  -5.776  25.700  0.00  0.00    -0.153 OA
ATOM     24  O   UNL     1       9.058  -4.647  27.027  0.00  0.00    -0.153 OA
BRANCH  22  25
ATOM     25  N   UNL     1       9.666  -6.101  25.120  0.00  0.00    -0.203 NA
ATOM     26  H   UNL     1       9.891  -6.846  25.783  0.00  0.00    +0.144 HD
ATOM     27  H   UNL     1      10.470  -5.564  24.803  0.00  0.00    +0.144 HD
ENDBRANCH  22  25
ENDBRANCH  17  22
ENDBRANCH   3  15
TORSDOF 4
ENDMDL
MODEL 9
REMARK VINA RESULT:      -6.4      2.869      4.216
REMARK  Name = 
REMARK  5 active torsions:
REMARK  status: ('A' for Active; 'I' for Inactive)
REMARK    1  A    between atoms: C_2  and  C_3
REMARK    2  A    between atoms: N_11  and  N_12
REMARK    3  A    between atoms: C_13  and  C_15
REMARK    4  A    between atoms: C_20  and  S_22
REMARK    5  A    between atoms: S_22  and  N_23
REMARK                            x       y       z     vdW  Elec       q    Type
REMARK                         _______ _______ _______ _____ _____    ______ ____
ROOT
ATOM      1  N   UNL     1       9.079   1.829  23.921  0.00  0.00    -0.230 N 
ATOM      2  H   UNL     1       8.989   1.479  24.868  0.00  0.00    +0.173 HD
ATOM      3  C   UNL     1       8.855   1.039  22.797  0.00  0.00    +0.260 C 
ATOM      4  O   UNL     1       8.689   1.458  21.658  0.00  0.00    -0.269 OA
ENDROOT
BRANCH   1   7
ATOM      5  C   UNL     1       7.902   3.977  24.435  0.00  0.00    +0.096 C 
ATOM      6  C   UNL     1       7.499   3.418  25.800  0.00  0.00    +0.030 C 
ATOM      7  N   UNL     1       8.968   3.197  23.776  0.00  0.00    -0.247 N 
ATOM      8  C   UNL     1      10.133   3.980  23.769  0.00  0.00    +0.051 A 
ATOM      9  C   UNL     1       9.861   5.300  24.139  0.00  0.00    -0.023 A 
ATOM     10  C   UNL     1      10.824   6.294  24.066  0.00  0.00    +0.005 A 
ATOM     11  C   UNL     1      12.101   5.942  23.631  0.00  0.00    +0.000 A 
ATOM     12  C   UNL     1      12.397   4.611  23.302  0.00  0.00    +0.002 A 
ATOM     13  C   UNL     1      11.409   3.621  23.371  0.00  0.00    +0.025 A 
ATOM     14  C   UNL     1       8.431   5.433  24.553  0.00  0.00    +0.061 C 
ENDBRANCH   1   7
BRANCH   3  15
ATOM     15  C   UNL     1       8.701  -0.419  23.060  0.00  0.00    +0.040 A 
ATOM     16  C   UNL     1       8.634  -0.937  24.355  0.00  0.00    +0.043 A 
ATOM     17  C   UNL     1       8.307  -2.289  24.554  0.00  0.00    +0.124 A 
ATOM     18  C   UNL     1       8.091  -3.135  23.465  0.00  0.00    +0.067 A 
ATOM     19 CL   UNL     1       7.602  -4.786  23.601  0.00  0.00    -0.082 Cl
ATOM     20  C   UNL     1       8.250  -2.632  22.170  0.00  0.00    +0.023 A 
ATOM     21  C   UNL     1       8.553  -1.282  21.966  0.00  0.00    +0.014 A 
BRANCH  17  22
ATOM     22  S   UNL     1       8.114  -2.850  26.217  0.00  0.00    +0.057 S 
ATOM     23  O   UNL     1       9.045  -3.922  26.458  0.00  0.00    -0.153 OA
ATOM     24  O   UNL     1       6.700  -2.988  26.489  0.00  0.00    -0.153 OA
BRANCH  22  25
ATOM     25  N   UNL     1       8.593  -1.532  27.134  0.00  0.00    -0.203 NA
ATOM     26  H   UNL     1       9.572  -1.636  27.406  0.00  0.00    +0.144 HD
ATOM     27  H   UNL     1       7.953  -1.381  27.911  0.00  0.00    +0.144 HD
ENDBRANCH  22  25
ENDBRANCH  17  22
ENDBRANCH   3  15
TORSDOF 4
ENDMDL
