MODEL 1
REMARK VINA RESULT:      -4.3      0.000      0.000
REMARK  Name = 
REMARK  0 active torsions:
REMARK  status: ('A' for Active; 'I' for Inactive)
REMARK                            x       y       z     vdW  Elec       q    Type
REMARK                         _______ _______ _______ _____ _____    ______ ____
ROOT
ATOM      1  I   UNL     1       9.379  -2.268  23.888  0.00  0.00    -0.037 I 
ATOM      2  C   UNL     1       8.609  -3.534  25.292  0.00  0.00    +0.094 A 
ATOM      3  C   UNL     1       9.300  -4.825  25.598  0.00  0.00    +0.267 A 
ATOM      4  O   UNL     1      10.340  -5.178  25.050  0.00  0.00    -0.267 OA
ATOM      5  N   UNL     1       8.701  -5.616  26.546  0.00  0.00    -0.274 N 
ATOM      6  H   UNL     1       9.152  -6.491  26.766  0.00  0.00    +0.173 HD
ATOM      7  C   UNL     1       7.562  -5.313  27.233  0.00  0.00    +0.327 A 
ATOM      8  O   UNL     1       7.086  -6.056  28.083  0.00  0.00    -0.247 OA
ATOM      9  N   UNL     1       6.984  -4.115  26.911  0.00  0.00    -0.313 N 
ATOM     10  H   UNL     1       6.136  -3.886  27.420  0.00  0.00    +0.170 HD
ATOM     11  C   UNL     1       7.488  -3.257  25.972  0.00  0.00    +0.107 A 
ENDROOT
TORSDOF 0
ENDMDL
MODEL 2
REMARK VINA RESULT:      -4.2      6.356      7.341
REMARK  Name = 
REMARK  0 active torsions:
REMARK  status: ('A' for Active; 'I' for Inactive)
REMARK                            x       y       z     vdW  Elec       q    Type
REMARK                         _______ _______ _______ _____ _____    ______ ____
ROOT
ATOM      1  I   UNL     1       8.735  -1.742  22.437  0.00  0.00    -0.037 I 
ATOM      2  C   UNL     1       9.558   0.103  22.724  0.00  0.00    +0.094 A 
ATOM      3  C   UNL     1      10.105   0.482  24.063  0.00  0.00    +0.267 A 
ATOM      4  O   UNL     1      10.104  -0.276  25.029  0.00  0.00    -0.267 OA
ATOM      5  N   UNL     1      10.625   1.748  24.163  0.00  0.00    -0.274 N 
ATOM      6  H   UNL     1      11.000   2.021  25.059  0.00  0.00    +0.173 HD
ATOM      7  C   UNL     1      10.702   2.660  23.151  0.00  0.00    +0.327 A 
ATOM      8  O   UNL     1      11.196   3.772  23.300  0.00  0.00    -0.247 OA
ATOM      9  N   UNL     1      10.190   2.250  21.951  0.00  0.00    -0.313 N 
ATOM     10  H   UNL     1      10.244   2.926  21.196  0.00  0.00    +0.170 HD
ATOM     11  C   UNL     1       9.635   1.015  21.744  0.00  0.00    +0.107 A 
ENDROOT
TORSDOF 0
ENDMDL
MODEL 3
REMARK VINA RESULT:      -4.2      2.543      3.640
REMARK  Name = 
REMARK  0 active torsions:
REMARK  status: ('A' for Active; 'I' for Inactive)
REMARK                            x       y       z     vdW  Elec       q    Type
REMARK                         _______ _______ _______ _____ _____    ______ ____
ROOT
ATOM      1  I   UNL     1       4.458  -5.731  26.430  0.00  0.00    -0.037 I 
ATOM      2  C   UNL     1       6.403  -5.425  25.894  0.00  0.00    +0.094 A 
ATOM      3  C   UNL     1       7.495  -5.578  26.905  0.00  0.00    +0.267 A 
ATOM      4  O   UNL     1       7.290  -5.899  28.072  0.00  0.00    -0.267 OA
ATOM      5  N   UNL     1       8.768  -5.337  26.455  0.00  0.00    -0.274 N 
ATOM      6  H   UNL     1       9.518  -5.436  27.122  0.00  0.00    +0.173 HD
ATOM      7  C   UNL     1       9.113  -5.000  25.178  0.00  0.00    +0.327 A 
ATOM      8  O   UNL     1      10.274  -4.816  24.834  0.00  0.00    -0.247 OA
ATOM      9  N   UNL     1       8.069  -4.883  24.301  0.00  0.00    -0.313 N 
ATOM     10  H   UNL     1       8.320  -4.632  23.350  0.00  0.00    +0.170 HD
ATOM     11  C   UNL     1       6.760  -5.086  24.647  0.00  0.00    +0.107 A 
ENDROOT
TORSDOF 0
ENDMDL
MODEL 4
REMARK VINA RESULT:      -4.0      2.014      2.027
REMARK  Name = 
REMARK  0 active torsions:
REMARK  status: ('A' for Active; 'I' for Inactive)
REMARK                            x       y       z     vdW  Elec       q    Type
REMARK                         _______ _______ _______ _____ _____    ______ ____
ROOT
ATOM      1  I   UNL     1       6.913  -4.892  22.357  0.00  0.00    -0.037 I 
ATOM      2  C   UNL     1       6.967  -5.247  24.367  0.00  0.00    +0.094 A 
ATOM      3  C   UNL     1       8.280  -5.374  25.072  0.00  0.00    +0.267 A 
ATOM      4  O   UNL     1       9.362  -5.262  24.505  0.00  0.00    -0.267 OA
ATOM      5  N   UNL     1       8.215  -5.626  26.420  0.00  0.00    -0.274 N 
ATOM      6  H   UNL     1       9.090  -5.715  26.913  0.00  0.00    +0.173 HD
ATOM      7  C   UNL     1       7.071  -5.744  27.155  0.00  0.00    +0.327 A 
ATOM      8  O   UNL     1       7.080  -5.953  28.362  0.00  0.00    -0.247 OA
ATOM      9  N   UNL     1       5.905  -5.611  26.451  0.00  0.00    -0.313 N 
ATOM     10  H   UNL     1       5.052  -5.698  26.993  0.00  0.00    +0.170 HD
ATOM     11  C   UNL     1       5.854  -5.373  25.104  0.00  0.00    +0.107 A 
ENDROOT
TORSDOF 0
ENDMDL
MODEL 5
REMARK VINA RESULT:      -4.0      4.583      4.993
REMARK  Name = 
REMARK  0 active torsions:
REMARK  status: ('A' for Active; 'I' for Inactive)
REMARK                            x       y       z     vdW  Elec       q    Type
REMARK                         _______ _______ _______ _____ _____    ______ ____
ROOT
ATOM      1  I   UNL     1       6.445  -5.223  26.156  0.00  0.00    -0.037 I 
ATOM      2  C   UNL     1       6.293  -5.379  24.126  0.00  0.00    +0.094 A 
ATOM      3  C   UNL     1       7.334  -4.765  23.245  0.00  0.00    +0.267 A 
ATOM      4  O   UNL     1       8.313  -4.165  23.679  0.00  0.00    -0.267 OA
ATOM      5  N   UNL     1       7.139  -4.910  21.895  0.00  0.00    -0.274 N 
ATOM      6  H   UNL     1       7.831  -4.503  21.284  0.00  0.00    +0.173 HD
ATOM      7  C   UNL     1       6.104  -5.577  21.305  0.00  0.00    +0.327 A 
ATOM      8  O   UNL     1       5.996  -5.687  20.090  0.00  0.00    -0.247 OA
ATOM      9  N   UNL     1       5.190  -6.120  22.167  0.00  0.00    -0.313 N 
ATOM     10  H   UNL     1       4.419  -6.617  21.733  0.00  0.00    +0.170 HD
ATOM     11  C   UNL     1       5.280  -6.023  23.529  0.00  0.00    +0.107 A 
ENDROOT
TORSDOF 0
ENDMDL
MODEL 6
REMARK VINA RESULT:      -4.0      4.862      5.794
REMARK  Name = 
REMARK  0 active torsions:
REMARK  status: ('A' for Active; 'I' for Inactive)
REMARK                            x       y       z     vdW  Elec       q    Type
REMARK                         _______ _______ _______ _____ _____    ______ ____
ROOT
ATOM      1  I   UNL     1       8.718  -3.375  24.763  0.00  0.00    -0.037 I 
ATOM      2  C   UNL     1       9.449  -1.489  24.486  0.00  0.00    +0.094 A 
ATOM      3  C   UNL     1      10.095  -1.116  23.190  0.00  0.00    +0.267 A 
ATOM      4  O   UNL     1      10.205  -1.892  22.246  0.00  0.00    -0.267 OA
ATOM      5  N   UNL     1      10.567   0.170  23.103  0.00  0.00    -0.274 N 
ATOM      6  H   UNL     1      11.006   0.440  22.236  0.00  0.00    +0.173 HD
ATOM      7  C   UNL     1      10.475   1.121  24.077  0.00  0.00    +0.327 A 
ATOM      8  O   UNL     1      10.903   2.260  23.931  0.00  0.00    -0.247 OA
ATOM      9  N   UNL     1       9.868   0.717  25.235  0.00  0.00    -0.313 N 
ATOM     10  H   UNL     1       9.798   1.422  25.962  0.00  0.00    +0.170 HD
ATOM     11  C   UNL     1       9.374  -0.543  25.434  0.00  0.00    +0.107 A 
ENDROOT
TORSDOF 0
ENDMDL
MODEL 7
REMARK VINA RESULT:      -3.8      5.546      6.369
REMARK  Name = 
REMARK  0 active torsions:
REMARK  status: ('A' for Active; 'I' for Inactive)
REMARK                            x       y       z     vdW  Elec       q    Type
REMARK                         _______ _______ _______ _____ _____    ______ ____
ROOT
ATOM      1  I   UNL     1       7.704   3.036  22.516  0.00  0.00    -0.037 I 
ATOM      2  C   UNL     1       8.725   1.268  22.542  0.00  0.00    +0.094 A 
ATOM      3  C   UNL     1       9.120   0.648  23.844  0.00  0.00    +0.267 A 
ATOM      4  O   UNL     1       8.848   1.142  24.934  0.00  0.00    -0.267 OA
ATOM      5  N   UNL     1       9.815  -0.532  23.760  0.00  0.00    -0.274 N 
ATOM      6  H   UNL     1      10.089  -0.967  24.628  0.00  0.00    +0.173 HD
ATOM      7  C   UNL     1      10.146  -1.182  22.607  0.00  0.00    +0.327 A 
ATOM      8  O   UNL     1      10.755  -2.246  22.600  0.00  0.00    -0.247 OA
ATOM      9  N   UNL     1       9.751  -0.565  21.452  0.00  0.00    -0.313 N 
ATOM     10  H   UNL     1       9.996  -1.045  20.592  0.00  0.00    +0.170 HD
ATOM     11  C   UNL     1       9.066   0.619  21.419  0.00  0.00    +0.107 A 
ENDROOT
TORSDOF 0
ENDMDL
MODEL 8
REMARK VINA RESULT:      -3.8      6.757      7.602
REMARK  Name = 
REMARK  0 active torsions:
REMARK  status: ('A' for Active; 'I' for Inactive)
REMARK                            x       y       z     vdW  Elec       q    Type
REMARK                         _______ _______ _______ _____ _____    ______ ____
ROOT
ATOM      1  I   UNL     1       7.898  -1.321  23.094  0.00  0.00    -0.037 I 
ATOM      2  C   UNL     1       9.058   0.358  23.139  0.00  0.00    +0.094 A 
ATOM      3  C   UNL     1       9.305   1.135  21.885  0.00  0.00    +0.267 A 
ATOM      4  O   UNL     1       8.828   0.825  20.797  0.00  0.00    -0.267 OA
ATOM      5  N   UNL     1      10.108   2.240  22.012  0.00  0.00    -0.274 N 
ATOM      6  H   UNL     1      10.286   2.777  21.177  0.00  0.00    +0.173 HD
ATOM      7  C   UNL     1      10.668   2.690  23.172  0.00  0.00    +0.327 A 
ATOM      8  O   UNL     1      11.363   3.697  23.223  0.00  0.00    -0.247 OA
ATOM      9  N   UNL     1      10.398   1.938  24.284  0.00  0.00    -0.313 N 
ATOM     10  H   UNL     1      10.813   2.269  25.149  0.00  0.00    +0.170 HD
ATOM     11  C   UNL     1       9.622   0.811  24.268  0.00  0.00    +0.107 A 
ENDROOT
TORSDOF 0
ENDMDL
MODEL 9
REMARK VINA RESULT:      -3.8      4.412      5.098
REMARK  Name = 
REMARK  0 active torsions:
REMARK  status: ('A' for Active; 'I' for Inactive)
REMARK                            x       y       z     vdW  Elec       q    Type
REMARK                         _______ _______ _______ _____ _____    ______ ____
ROOT
ATOM      1  I   UNL     1      10.030   2.423  23.244  0.00  0.00    -0.037 I 
ATOM      2  C   UNL     1       9.861   0.405  23.504  0.00  0.00    +0.094 A 
ATOM      3  C   UNL     1       9.638  -0.488  22.325  0.00  0.00    +0.267 A 
ATOM      4  O   UNL     1       9.560  -0.074  21.172  0.00  0.00    -0.267 OA
ATOM      5  N   UNL     1       9.523  -1.828  22.600  0.00  0.00    -0.274 N 
ATOM      6  H   UNL     1       9.373  -2.447  21.818  0.00  0.00    +0.173 HD
ATOM      7  C   UNL     1       9.619  -2.399  23.836  0.00  0.00    +0.327 A 
ATOM      8  O   UNL     1       9.524  -3.607  24.014  0.00  0.00    -0.247 OA
ATOM      9  N   UNL     1       9.829  -1.528  24.870  0.00  0.00    -0.313 N 
ATOM     10  H   UNL     1       9.901  -1.949  25.790  0.00  0.00    +0.170 HD
ATOM     11  C   UNL     1       9.945  -0.173  24.710  0.00  0.00    +0.107 A 
ENDROOT
TORSDOF 0
ENDMDL
