MODEL 1
REMARK VINA RESULT:      -7.2      0.000      0.000
REMARK  Name = 
REMARK  8 active torsions:
REMARK  status: ('A' for Active; 'I' for Inactive)
REMARK    1  A    between atoms: C_1  and  C_2
REMARK    2  A    between atoms: C_9  and  O_10
REMARK    3  A    between atoms: O_10  and  C_11
REMARK    4  A    between atoms: C_14  and  C_16
REMARK    5  A    between atoms: C_16  and  O_17
REMARK    6  A    between atoms: C_18  and  O_20
REMARK    7  A    between atoms: C_21  and  O_23
REMARK    8  A    between atoms: C_24  and  O_26
REMARK                            x       y       z     vdW  Elec       q    Type
REMARK                         _______ _______ _______ _____ _____    ______ ____
ROOT
ATOM      1  C   UNL     1       6.388  -4.874  23.499  0.00  0.00    +0.339 C 
ATOM      2  C   UNL     1       5.708  -6.198  23.109  0.00  0.00    +0.214 C 
ATOM      3  C   UNL     1       4.655  -6.438  24.229  0.00  0.00    +0.180 C 
ATOM      4  C   UNL     1       5.273  -6.408  25.647  0.00  0.00    +0.177 C 
ATOM      5  C   UNL     1       6.188  -5.191  25.825  0.00  0.00    +0.179 C 
ATOM      6  O   UNL     1       7.099  -5.093  24.726  0.00  0.00    -0.331 OA
ENDROOT
BRANCH   2   7
ATOM      7  O   UNL     1       5.085  -6.087  21.823  0.00  0.00    -0.383 OA
ATOM      8  H   UNL     1       4.657  -5.217  21.758  0.00  0.00    +0.210 HD
ENDBRANCH   2   7
BRANCH   3   9
ATOM      9  O   UNL     1       3.944  -7.663  24.029  0.00  0.00    -0.386 OA
ATOM     10  H   UNL     1       4.425  -8.139  23.321  0.00  0.00    +0.210 HD
ENDBRANCH   3   9
BRANCH   4  11
ATOM     11  O   UNL     1       4.208  -6.409  26.609  0.00  0.00    -0.386 OA
ATOM     12  H   UNL     1       3.550  -5.733  26.363  0.00  0.00    +0.210 HD
ENDBRANCH   4  11
BRANCH   1  13
ATOM     13  O   UNL     1       7.257  -4.281  22.524  0.00  0.00    -0.461 OA
BRANCH  13  19
ATOM     14  C   UNL     1       6.971   1.927  24.715  0.00  0.00    +0.045 C 
ATOM     15  C   UNL     1       8.105   1.008  24.384  0.00  0.00    -0.033 A 
ATOM     16  C   UNL     1       7.838  -0.302  23.774  0.00  0.00    +0.021 A 
ATOM     17  C   UNL     1       8.921  -1.139  23.549  0.00  0.00    +0.143 A 
ATOM     18  C   UNL     1       8.766  -2.424  23.050  0.00  0.00    +0.092 A 
ATOM     19  C   UNL     1       7.492  -2.950  22.819  0.00  0.00    +0.128 A 
ATOM     20  C   UNL     1       6.394  -2.104  22.950  0.00  0.00    +0.046 A 
ATOM     21  O   UNL     1      10.243  -0.772  23.847  0.00  0.00    -0.422 OA
ATOM     22  C   UNL     1      10.517   0.457  24.394  0.00  0.00    +0.337 A 
ATOM     23  O   UNL     1      11.652   0.811  24.678  0.00  0.00    -0.245 OA
ATOM     24  C   UNL     1       6.566  -0.787  23.423  0.00  0.00    +0.015 A 
ATOM     25  C   UNL     1       9.377   1.342  24.657  0.00  0.00    +0.096 A 
ENDBRANCH  13  19
ENDBRANCH   1  13
BRANCH   5  26
ATOM     26  C   UNL     1       7.019  -5.230  27.106  0.00  0.00    +0.190 C 
BRANCH  26  27
ATOM     27  O   UNL     1       8.231  -5.947  26.854  0.00  0.00    -0.392 OA
ATOM     28  H   UNL     1       8.909  -5.270  26.654  0.00  0.00    +0.210 HD
ENDBRANCH  26  27
ENDBRANCH   5  26
TORSDOF 7
ENDMDL
MODEL 2
REMARK VINA RESULT:      -7.2      2.536      6.941
REMARK  Name = 
REMARK  8 active torsions:
REMARK  status: ('A' for Active; 'I' for Inactive)
REMARK    1  A    between atoms: C_1  and  C_2
REMARK    2  A    between atoms: C_9  and  O_10
REMARK    3  A    between atoms: O_10  and  C_11
REMARK    4  A    between atoms: C_14  and  C_16
REMARK    5  A    between atoms: C_16  and  O_17
REMARK    6  A    between atoms: C_18  and  O_20
REMARK    7  A    between atoms: C_21  and  O_23
REMARK    8  A    between atoms: C_24  and  O_26
REMARK                            x       y       z     vdW  Elec       q    Type
REMARK                         _______ _______ _______ _____ _____    ______ ____
ROOT
ATOM      1  C   UNL     1       9.813  -1.689  23.854  0.00  0.00    +0.339 C 
ATOM      2  C   UNL     1       9.603  -1.090  22.451  0.00  0.00    +0.214 C 
ATOM      3  C   UNL     1       9.756   0.444  22.658  0.00  0.00    +0.180 C 
ATOM      4  C   UNL     1       8.816   0.996  23.756  0.00  0.00    +0.177 C 
ATOM      5  C   UNL     1       8.877   0.132  25.020  0.00  0.00    +0.179 C 
ATOM      6  O   UNL     1       8.727  -1.250  24.682  0.00  0.00    -0.331 OA
ENDROOT
BRANCH   2   7
ATOM      7  O   UNL     1      10.584  -1.593  21.535  0.00  0.00    -0.383 OA
ATOM      8  H   UNL     1      11.251  -0.903  21.382  0.00  0.00    +0.210 HD
ENDBRANCH   2   7
BRANCH   3   9
ATOM      9  O   UNL     1       9.557   1.161  21.436  0.00  0.00    -0.386 OA
ATOM     10  H   UNL     1      10.440   1.492  21.173  0.00  0.00    +0.210 HD
ENDBRANCH   3   9
BRANCH   4  11
ATOM     11  O   UNL     1       9.185   2.355  24.031  0.00  0.00    -0.386 OA
ATOM     12  H   UNL     1       8.379   2.896  24.129  0.00  0.00    +0.210 HD
ENDBRANCH   4  11
BRANCH   1  13
ATOM     13  O   UNL     1       9.952  -3.113  23.935  0.00  0.00    -0.461 OA
BRANCH  13  19
ATOM     14  C   UNL     1       4.558  -6.766  24.931  0.00  0.00    +0.045 C 
ATOM     15  C   UNL     1       5.525  -6.092  25.854  0.00  0.00    -0.033 A 
ATOM     16  C   UNL     1       6.574  -5.217  25.312  0.00  0.00    +0.021 A 
ATOM     17  C   UNL     1       7.482  -4.672  26.208  0.00  0.00    +0.143 A 
ATOM     18  C   UNL     1       8.554  -3.897  25.788  0.00  0.00    +0.092 A 
ATOM     19  C   UNL     1       8.796  -3.694  24.427  0.00  0.00    +0.128 A 
ATOM     20  C   UNL     1       7.853  -4.152  23.512  0.00  0.00    +0.046 A 
ATOM     21  O   UNL     1       7.415  -4.896  27.592  0.00  0.00    -0.422 OA
ATOM     22  C   UNL     1       6.429  -5.689  28.121  0.00  0.00    +0.337 A 
ATOM     23  O   UNL     1       6.343  -5.918  29.319  0.00  0.00    -0.245 OA
ATOM     24  C   UNL     1       6.747  -4.908  23.952  0.00  0.00    +0.015 A 
ATOM     25  C   UNL     1       5.476  -6.290  27.181  0.00  0.00    +0.096 A 
ENDBRANCH  13  19
ENDBRANCH   1  13
BRANCH   5  26
ATOM     26  C   UNL     1       7.800   0.472  26.049  0.00  0.00    +0.190 C 
BRANCH  26  27
ATOM     27  O   UNL     1       7.875   1.866  26.358  0.00  0.00    -0.392 OA
ATOM     28  H   UNL     1       8.271   1.923  27.251  0.00  0.00    +0.210 HD
ENDBRANCH  26  27
ENDBRANCH   5  26
TORSDOF 7
ENDMDL
MODEL 3
REMARK VINA RESULT:      -7.1      1.665      2.045
REMARK  Name = 
REMARK  8 active torsions:
REMARK  status: ('A' for Active; 'I' for Inactive)
REMARK    1  A    between atoms: C_1  and  C_2
REMARK    2  A    between atoms: C_9  and  O_10
REMARK    3  A    between atoms: O_10  and  C_11
REMARK    4  A    between atoms: C_14  and  C_16
REMARK    5  A    between atoms: C_16  and  O_17
REMARK    6  A    between atoms: C_18  and  O_20
REMARK    7  A    between atoms: C_21  and  O_23
REMARK    8  A    between atoms: C_24  and  O_26
REMARK                            x       y       z     vdW  Elec       q    Type
REMARK                         _______ _______ _______ _____ _____    ______ ____
ROOT
ATOM      1  C   UNL     1       7.434  -3.426  22.777  0.00  0.00    +0.339 C 
ATOM      2  C   UNL     1       6.498  -4.397  22.036  0.00  0.00    +0.214 C 
ATOM      3  C   UNL     1       5.626  -5.029  23.158  0.00  0.00    +0.180 C 
ATOM      4  C   UNL     1       6.472  -5.664  24.287  0.00  0.00    +0.177 C 
ATOM      5  C   UNL     1       7.584  -4.712  24.745  0.00  0.00    +0.179 C 
ATOM      6  O   UNL     1       8.299  -4.206  23.614  0.00  0.00    -0.331 OA
ENDROOT
BRANCH   2   7
ATOM      7  O   UNL     1       5.692  -3.694  21.082  0.00  0.00    -0.383 OA
ATOM      8  H   UNL     1       4.756  -3.804  21.323  0.00  0.00    +0.210 HD
ENDBRANCH   2   7
BRANCH   3   9
ATOM      9  O   UNL     1       4.709  -5.992  22.631  0.00  0.00    -0.386 OA
ATOM     10  H   UNL     1       4.477  -5.678  21.734  0.00  0.00    +0.210 HD
ENDBRANCH   3   9
BRANCH   4  11
ATOM     11  O   UNL     1       5.599  -6.011  25.371  0.00  0.00    -0.386 OA
ATOM     12  H   UNL     1       5.498  -5.244  25.964  0.00  0.00    +0.210 HD
ENDBRANCH   4  11
BRANCH   1  13
ATOM     13  O   UNL     1       8.207  -2.528  21.970  0.00  0.00    -0.461 OA
BRANCH  13  19
ATOM     14  C   UNL     1       7.344   2.843  25.689  0.00  0.00    +0.045 C 
ATOM     15  C   UNL     1       8.345   2.472  24.640  0.00  0.00    -0.033 A 
ATOM     16  C   UNL     1       8.187   1.226  23.878  0.00  0.00    +0.021 A 
ATOM     17  C   UNL     1       9.180   0.901  22.964  0.00  0.00    +0.143 A 
ATOM     18  C   UNL     1       9.162  -0.290  22.253  0.00  0.00    +0.092 A 
ATOM     19  C   UNL     1       8.169  -1.244  22.485  0.00  0.00    +0.128 A 
ATOM     20  C   UNL     1       7.113  -0.909  23.328  0.00  0.00    +0.046 A 
ATOM     21  O   UNL     1      10.291   1.723  22.723  0.00  0.00    -0.422 OA
ATOM     22  C   UNL     1      10.445   2.903  23.406  0.00  0.00    +0.337 A 
ATOM     23  O   UNL     1      11.404   3.641  23.233  0.00  0.00    -0.245 OA
ATOM     24  C   UNL     1       7.121   0.320  24.019  0.00  0.00    +0.015 A 
ATOM     25  C   UNL     1       9.413   3.247  24.391  0.00  0.00    +0.096 A 
ENDBRANCH  13  19
ENDBRANCH   1  13
BRANCH   5  26
ATOM     26  C   UNL     1       8.603  -5.363  25.678  0.00  0.00    +0.190 C 
BRANCH  26  27
ATOM     27  O   UNL     1       7.934  -5.806  26.863  0.00  0.00    -0.392 OA
ATOM     28  H   UNL     1       7.171  -6.337  26.559  0.00  0.00    +0.210 HD
ENDBRANCH  26  27
ENDBRANCH   5  26
TORSDOF 7
ENDMDL
MODEL 4
REMARK VINA RESULT:      -7.0      1.493      2.122
REMARK  Name = 
REMARK  8 active torsions:
REMARK  status: ('A' for Active; 'I' for Inactive)
REMARK    1  A    between atoms: C_1  and  C_2
REMARK    2  A    between atoms: C_9  and  O_10
REMARK    3  A    between atoms: O_10  and  C_11
REMARK    4  A    between atoms: C_14  and  C_16
REMARK    5  A    between atoms: C_16  and  O_17
REMARK    6  A    between atoms: C_18  and  O_20
REMARK    7  A    between atoms: C_21  and  O_23
REMARK    8  A    between atoms: C_24  and  O_26
REMARK                            x       y       z     vdW  Elec       q    Type
REMARK                         _______ _______ _______ _____ _____    ______ ____
ROOT
ATOM      1  C   UNL     1       6.529  -4.963  23.615  0.00  0.00    +0.339 C 
ATOM      2  C   UNL     1       5.756  -6.195  23.112  0.00  0.00    +0.214 C 
ATOM      3  C   UNL     1       4.592  -6.364  24.130  0.00  0.00    +0.180 C 
ATOM      4  C   UNL     1       5.085  -6.450  25.594  0.00  0.00    +0.177 C 
ATOM      5  C   UNL     1       6.099  -5.342  25.900  0.00  0.00    +0.179 C 
ATOM      6  O   UNL     1       7.106  -5.298  24.885  0.00  0.00    -0.331 OA
ENDROOT
BRANCH   2   7
ATOM      7  O   UNL     1       5.260  -5.974  21.785  0.00  0.00    -0.383 OA
ATOM      8  H   UNL     1       4.685  -6.718  21.539  0.00  0.00    +0.210 HD
ENDBRANCH   2   7
BRANCH   3   9
ATOM      9  O   UNL     1       3.782  -7.501  23.818  0.00  0.00    -0.386 OA
ATOM     10  H   UNL     1       3.544  -7.409  22.873  0.00  0.00    +0.210 HD
ENDBRANCH   3   9
BRANCH   4  11
ATOM     11  O   UNL     1       3.947  -6.375  26.464  0.00  0.00    -0.386 OA
ATOM     12  H   UNL     1       3.131  -6.465  25.938  0.00  0.00    +0.210 HD
ENDBRANCH   4  11
BRANCH   1  13
ATOM     13  O   UNL     1       7.533  -4.428  22.743  0.00  0.00    -0.461 OA
BRANCH  13  19
ATOM     14  C   UNL     1      10.789   1.072  24.345  0.00  0.00    +0.045 C 
ATOM     15  C   UNL     1       9.422   0.814  23.794  0.00  0.00    -0.033 A 
ATOM     16  C   UNL     1       8.926  -0.564  23.669  0.00  0.00    +0.021 A 
ATOM     17  C   UNL     1       7.678  -0.747  23.091  0.00  0.00    +0.143 A 
ATOM     18  C   UNL     1       7.154  -2.011  22.858  0.00  0.00    +0.092 A 
ATOM     19  C   UNL     1       7.904  -3.156  23.139  0.00  0.00    +0.128 A 
ATOM     20  C   UNL     1       9.120  -3.004  23.801  0.00  0.00    +0.046 A 
ATOM     21  O   UNL     1       6.873   0.319  22.660  0.00  0.00    -0.422 OA
ATOM     22  C   UNL     1       7.308   1.614  22.790  0.00  0.00    +0.337 A 
ATOM     23  O   UNL     1       6.643   2.570  22.416  0.00  0.00    -0.245 OA
ATOM     24  C   UNL     1       9.626  -1.716  24.066  0.00  0.00    +0.015 A 
ATOM     25  C   UNL     1       8.635   1.820  23.379  0.00  0.00    +0.096 A 
ENDBRANCH  13  19
ENDBRANCH   1  13
BRANCH   5  26
ATOM     26  C   UNL     1       6.808  -5.513  27.242  0.00  0.00    +0.190 C 
BRANCH  26  27
ATOM     27  O   UNL     1       8.175  -5.862  27.006  0.00  0.00    -0.392 OA
ATOM     28  H   UNL     1       8.621  -5.807  27.875  0.00  0.00    +0.210 HD
ENDBRANCH  26  27
ENDBRANCH   5  26
TORSDOF 7
ENDMDL
MODEL 5
REMARK VINA RESULT:      -7.0      1.974      2.685
REMARK  Name = 
REMARK  8 active torsions:
REMARK  status: ('A' for Active; 'I' for Inactive)
REMARK    1  A    between atoms: C_1  and  C_2
REMARK    2  A    between atoms: C_9  and  O_10
REMARK    3  A    between atoms: O_10  and  C_11
REMARK    4  A    between atoms: C_14  and  C_16
REMARK    5  A    between atoms: C_16  and  O_17
REMARK    6  A    between atoms: C_18  and  O_20
REMARK    7  A    between atoms: C_21  and  O_23
REMARK    8  A    between atoms: C_24  and  O_26
REMARK                            x       y       z     vdW  Elec       q    Type
REMARK                         _______ _______ _______ _____ _____    ______ ____
ROOT
ATOM      1  C   UNL     1       7.512  -3.480  22.665  0.00  0.00    +0.339 C 
ATOM      2  C   UNL     1       6.533  -4.463  21.999  0.00  0.00    +0.214 C 
ATOM      3  C   UNL     1       5.706  -5.047  23.179  0.00  0.00    +0.180 C 
ATOM      4  C   UNL     1       6.595  -5.656  24.289  0.00  0.00    +0.177 C 
ATOM      5  C   UNL     1       7.737  -4.705  24.665  0.00  0.00    +0.179 C 
ATOM      6  O   UNL     1       8.406  -4.244  23.487  0.00  0.00    -0.331 OA
ENDROOT
BRANCH   2   7
ATOM      7  O   UNL     1       5.692  -3.780  21.060  0.00  0.00    -0.383 OA
ATOM      8  H   UNL     1       4.881  -3.497  21.516  0.00  0.00    +0.210 HD
ENDBRANCH   2   7
BRANCH   3   9
ATOM      9  O   UNL     1       4.755  -6.015  22.727  0.00  0.00    -0.386 OA
ATOM     10  H   UNL     1       5.280  -6.769  22.390  0.00  0.00    +0.210 HD
ENDBRANCH   3   9
BRANCH   4  11
ATOM     11  O   UNL     1       5.769  -5.958  25.422  0.00  0.00    -0.386 OA
ATOM     12  H   UNL     1       5.596  -5.140  25.924  0.00  0.00    +0.210 HD
ENDBRANCH   4  11
BRANCH   1  13
ATOM     13  O   UNL     1       8.258  -2.619  21.795  0.00  0.00    -0.461 OA
BRANCH  13  19
ATOM     14  C   UNL     1      10.665   3.280  23.480  0.00  0.00    +0.045 C 
ATOM     15  C   UNL     1       9.535   2.447  24.000  0.00  0.00    -0.033 A 
ATOM     16  C   UNL     1       9.330   1.083  23.491  0.00  0.00    +0.021 A 
ATOM     17  C   UNL     1       8.228   0.382  23.960  0.00  0.00    +0.143 A 
ATOM     18  C   UNL     1       7.904  -0.881  23.484  0.00  0.00    +0.092 A 
ATOM     19  C   UNL     1       8.646  -1.466  22.455  0.00  0.00    +0.128 A 
ATOM     20  C   UNL     1       9.805  -0.826  22.028  0.00  0.00    +0.046 A 
ATOM     21  O   UNL     1       7.339   0.906  24.911  0.00  0.00    -0.422 OA
ATOM     22  C   UNL     1       7.527   2.168  25.418  0.00  0.00    +0.337 A 
ATOM     23  O   UNL     1       6.770   2.665  26.238  0.00  0.00    -0.245 OA
ATOM     24  C   UNL     1      10.147   0.441  22.545  0.00  0.00    +0.015 A 
ATOM     25  C   UNL     1       8.676   2.928  24.912  0.00  0.00    +0.096 A 
ENDBRANCH  13  19
ENDBRANCH   1  13
BRANCH   5  26
ATOM     26  C   UNL     1       8.790  -5.339  25.572  0.00  0.00    +0.190 C 
BRANCH  26  27
ATOM     27  O   UNL     1       8.151  -5.842  26.748  0.00  0.00    -0.392 OA
ATOM     28  H   UNL     1       7.189  -5.779  26.580  0.00  0.00    +0.210 HD
ENDBRANCH  26  27
ENDBRANCH   5  26
TORSDOF 7
ENDMDL
MODEL 6
REMARK VINA RESULT:      -7.0      2.040      7.360
REMARK  Name = 
REMARK  8 active torsions:
REMARK  status: ('A' for Active; 'I' for Inactive)
REMARK    1  A    between atoms: C_1  and  C_2
REMARK    2  A    between atoms: C_9  and  O_10
REMARK    3  A    between atoms: O_10  and  C_11
REMARK    4  A    between atoms: C_14  and  C_16
REMARK    5  A    between atoms: C_16  and  O_17
REMARK    6  A    between atoms: C_18  and  O_20
REMARK    7  A    between atoms: C_21  and  O_23
REMARK    8  A    between atoms: C_24  and  O_26
REMARK                            x       y       z     vdW  Elec       q    Type
REMARK                         _______ _______ _______ _____ _____    ______ ____
ROOT
ATOM      1  C   UNL     1       9.088  -1.411  24.532  0.00  0.00    +0.339 C 
ATOM      2  C   UNL     1       9.198  -0.334  25.626  0.00  0.00    +0.214 C 
ATOM      3  C   UNL     1       8.250   0.803  25.149  0.00  0.00    +0.180 C 
ATOM      4  C   UNL     1       8.571   1.287  23.715  0.00  0.00    +0.177 C 
ATOM      5  C   UNL     1       8.746   0.101  22.758  0.00  0.00    +0.179 C 
ATOM      6  O   UNL     1       9.636  -0.864  23.324  0.00  0.00    -0.331 OA
ENDROOT
BRANCH   2   7
ATOM      7  O   UNL     1       8.786  -0.859  26.895  0.00  0.00    -0.383 OA
ATOM      8  H   UNL     1       8.683  -1.823  26.815  0.00  0.00    +0.210 HD
ENDBRANCH   2   7
BRANCH   3   9
ATOM      9  O   UNL     1       8.260   1.910  26.054  0.00  0.00    -0.386 OA
ATOM     10  H   UNL     1       8.670   2.652  25.565  0.00  0.00    +0.210 HD
ENDBRANCH   3   9
BRANCH   4  11
ATOM     11  O   UNL     1       7.519   2.161  23.282  0.00  0.00    -0.386 OA
ATOM     12  H   UNL     1       6.851   2.237  23.988  0.00  0.00    +0.210 HD
ENDBRANCH   4  11
BRANCH   1  13
ATOM     13  O   UNL     1       9.685  -2.684  24.813  0.00  0.00    -0.461 OA
BRANCH  13  19
ATOM     14  C   UNL     1       5.078  -6.764  27.168  0.00  0.00    +0.045 C 
ATOM     15  C   UNL     1       5.332  -6.176  25.816  0.00  0.00    -0.033 A 
ATOM     16  C   UNL     1       6.549  -5.390  25.570  0.00  0.00    +0.021 A 
ATOM     17  C   UNL     1       6.700  -4.814  24.317  0.00  0.00    +0.143 A 
ATOM     18  C   UNL     1       7.775  -3.991  24.012  0.00  0.00    +0.092 A 
ATOM     19  C   UNL     1       8.716  -3.656  24.988  0.00  0.00    +0.128 A 
ATOM     20  C   UNL     1       8.639  -4.288  26.225  0.00  0.00    +0.046 A 
ATOM     21  O   UNL     1       5.765  -4.981  23.284  0.00  0.00    -0.422 OA
ATOM     22  C   UNL     1       4.634  -5.732  23.484  0.00  0.00    +0.337 A 
ATOM     23  O   UNL     1       3.790  -5.892  22.615  0.00  0.00    -0.245 OA
ATOM     24  C   UNL     1       7.563  -5.152  26.514  0.00  0.00    +0.015 A 
ATOM     25  C   UNL     1       4.452  -6.327  24.813  0.00  0.00    +0.096 A 
ENDBRANCH  13  19
ENDBRANCH   1  13
BRANCH   5  26
ATOM     26  C   UNL     1       9.303   0.493  21.391  0.00  0.00    +0.190 C 
BRANCH  26  27
ATOM     27  O   UNL     1       9.787   1.838  21.453  0.00  0.00    -0.392 OA
ATOM     28  H   UNL     1       9.903   2.126  20.525  0.00  0.00    +0.210 HD
ENDBRANCH  26  27
ENDBRANCH   5  26
TORSDOF 7
ENDMDL
MODEL 7
REMARK VINA RESULT:      -6.9      2.499      7.371
REMARK  Name = 
REMARK  8 active torsions:
REMARK  status: ('A' for Active; 'I' for Inactive)
REMARK    1  A    between atoms: C_1  and  C_2
REMARK    2  A    between atoms: C_9  and  O_10
REMARK    3  A    between atoms: O_10  and  C_11
REMARK    4  A    between atoms: C_14  and  C_16
REMARK    5  A    between atoms: C_16  and  O_17
REMARK    6  A    between atoms: C_18  and  O_20
REMARK    7  A    between atoms: C_21  and  O_23
REMARK    8  A    between atoms: C_24  and  O_26
REMARK                            x       y       z     vdW  Elec       q    Type
REMARK                         _______ _______ _______ _____ _____    ______ ____
ROOT
ATOM      1  C   UNL     1       7.022   0.687  23.705  0.00  0.00    +0.339 C 
ATOM      2  C   UNL     1       6.742   2.123  23.228  0.00  0.00    +0.214 C 
ATOM      3  C   UNL     1       7.844   2.402  22.166  0.00  0.00    +0.180 C 
ATOM      4  C   UNL     1       9.272   2.156  22.708  0.00  0.00    +0.177 C 
ATOM      5  C   UNL     1       9.360   0.813  23.442  0.00  0.00    +0.179 C 
ATOM      6  O   UNL     1       8.288   0.691  24.381  0.00  0.00    -0.331 OA
ENDROOT
BRANCH   2   7
ATOM      7  O   UNL     1       5.431   2.219  22.656  0.00  0.00    -0.383 OA
ATOM      8  H   UNL     1       5.515   2.490  21.726  0.00  0.00    +0.210 HD
ENDBRANCH   2   7
BRANCH   3   9
ATOM      9  O   UNL     1       7.742   3.727  21.637  0.00  0.00    -0.386 OA
ATOM     10  H   UNL     1       6.974   3.714  21.031  0.00  0.00    +0.210 HD
ENDBRANCH   3   9
BRANCH   4  11
ATOM     11  O   UNL     1      10.194   2.215  21.610  0.00  0.00    -0.386 OA
ATOM     12  H   UNL     1      11.024   1.769  21.860  0.00  0.00    +0.210 HD
ENDBRANCH   4  11
BRANCH   1  13
ATOM     13  O   UNL     1       6.024   0.072  24.530  0.00  0.00    -0.461 OA
BRANCH  13  19
ATOM     14  C   UNL     1       5.018  -6.421  25.031  0.00  0.00    +0.045 C 
ATOM     15  C   UNL     1       5.452  -5.535  23.907  0.00  0.00    -0.033 A 
ATOM     16  C   UNL     1       5.721  -4.110  24.151  0.00  0.00    +0.021 A 
ATOM     17  C   UNL     1       6.057  -3.323  23.059  0.00  0.00    +0.143 A 
ATOM     18  C   UNL     1       6.253  -1.954  23.173  0.00  0.00    +0.092 A 
ATOM     19  C   UNL     1       6.050  -1.304  24.393  0.00  0.00    +0.128 A 
ATOM     20  C   UNL     1       5.801  -2.079  25.522  0.00  0.00    +0.046 A 
ATOM     21  O   UNL     1       6.180  -3.836  21.759  0.00  0.00    -0.422 OA
ATOM     22  C   UNL     1       5.958  -5.168  21.513  0.00  0.00    +0.337 A 
ATOM     23  O   UNL     1       6.044  -5.652  20.393  0.00  0.00    -0.245 OA
ATOM     24  C   UNL     1       5.639  -3.475  25.402  0.00  0.00    +0.015 A 
ATOM     25  C   UNL     1       5.580  -6.006  22.656  0.00  0.00    +0.096 A 
ENDBRANCH  13  19
ENDBRANCH   1  13
BRANCH   5  26
ATOM     26  C   UNL     1      10.666   0.618  24.211  0.00  0.00    +0.190 C 
BRANCH  26  27
ATOM     27  O   UNL     1      10.364   0.366  25.586  0.00  0.00    -0.392 OA
ATOM     28  H   UNL     1       9.890   1.160  25.908  0.00  0.00    +0.210 HD
ENDBRANCH  26  27
ENDBRANCH   5  26
TORSDOF 7
ENDMDL
MODEL 8
REMARK VINA RESULT:      -6.9      2.546      7.339
REMARK  Name = 
REMARK  8 active torsions:
REMARK  status: ('A' for Active; 'I' for Inactive)
REMARK    1  A    between atoms: C_1  and  C_2
REMARK    2  A    between atoms: C_9  and  O_10
REMARK    3  A    between atoms: O_10  and  C_11
REMARK    4  A    between atoms: C_14  and  C_16
REMARK    5  A    between atoms: C_16  and  O_17
REMARK    6  A    between atoms: C_18  and  O_20
REMARK    7  A    between atoms: C_21  and  O_23
REMARK    8  A    between atoms: C_24  and  O_26
REMARK                            x       y       z     vdW  Elec       q    Type
REMARK                         _______ _______ _______ _____ _____    ______ ____
ROOT
ATOM      1  C   UNL     1       9.034   0.720  22.786  0.00  0.00    +0.339 C 
ATOM      2  C   UNL     1       9.050   2.070  22.047  0.00  0.00    +0.214 C 
ATOM      3  C   UNL     1       8.602   3.104  23.118  0.00  0.00    +0.180 C 
ATOM      4  C   UNL     1       7.255   2.733  23.782  0.00  0.00    +0.177 C 
ATOM      5  C   UNL     1       7.238   1.261  24.210  0.00  0.00    +0.179 C 
ATOM      6  O   UNL     1       7.673   0.427  23.133  0.00  0.00    -0.331 OA
ENDROOT
BRANCH   2   7
ATOM      7  O   UNL     1      10.364   2.362  21.556  0.00  0.00    -0.383 OA
ATOM      8  H   UNL     1      10.308   3.116  20.944  0.00  0.00    +0.210 HD
ENDBRANCH   2   7
BRANCH   3   9
ATOM      9  O   UNL     1       8.535   4.426  22.577  0.00  0.00    -0.386 OA
ATOM     10  H   UNL     1       9.443   4.641  22.281  0.00  0.00    +0.210 HD
ENDBRANCH   3   9
BRANCH   4  11
ATOM     11  O   UNL     1       7.041   3.607  24.899  0.00  0.00    -0.386 OA
ATOM     12  H   UNL     1       6.705   3.091  25.655  0.00  0.00    +0.210 HD
ENDBRANCH   4  11
BRANCH   1  13
ATOM     13  O   UNL     1       9.621  -0.398  22.106  0.00  0.00    -0.461 OA
BRANCH  13  19
ATOM     14  C   UNL     1       7.804  -5.369  26.031  0.00  0.00    +0.045 C 
ATOM     15  C   UNL     1       7.352  -4.912  24.680  0.00  0.00    -0.033 A 
ATOM     16  C   UNL     1       8.063  -3.824  23.993  0.00  0.00    +0.021 A 
ATOM     17  C   UNL     1       7.560  -3.397  22.772  0.00  0.00    +0.143 A 
ATOM     18  C   UNL     1       8.113  -2.327  22.083  0.00  0.00    +0.092 A 
ATOM     19  C   UNL     1       9.164  -1.592  22.635  0.00  0.00    +0.128 A 
ATOM     20  C   UNL     1       9.746  -2.051  23.813  0.00  0.00    +0.046 A 
ATOM     21  O   UNL     1       6.436  -3.980  22.166  0.00  0.00    -0.422 OA
ATOM     22  C   UNL     1       5.773  -5.014  22.778  0.00  0.00    +0.337 A 
ATOM     23  O   UNL     1       4.784  -5.540  22.289  0.00  0.00    -0.245 OA
ATOM     24  C   UNL     1       9.200  -3.162  24.487  0.00  0.00    +0.015 A 
ATOM     25  C   UNL     1       6.282  -5.459  24.080  0.00  0.00    +0.096 A 
ENDBRANCH  13  19
ENDBRANCH   1  13
BRANCH   5  26
ATOM     26  C   UNL     1       5.860   0.765  24.645  0.00  0.00    +0.190 C 
BRANCH  26  27
ATOM     27  O   UNL     1       4.859   1.621  24.088  0.00  0.00    -0.392 OA
ATOM     28  H   UNL     1       4.001   1.284  24.417  0.00  0.00    +0.210 HD
ENDBRANCH  26  27
ENDBRANCH   5  26
TORSDOF 7
ENDMDL
MODEL 9
REMARK VINA RESULT:      -6.8      2.085      6.735
REMARK  Name = 
REMARK  8 active torsions:
REMARK  status: ('A' for Active; 'I' for Inactive)
REMARK    1  A    between atoms: C_1  and  C_2
REMARK    2  A    between atoms: C_9  and  O_10
REMARK    3  A    between atoms: O_10  and  C_11
REMARK    4  A    between atoms: C_14  and  C_16
REMARK    5  A    between atoms: C_16  and  O_17
REMARK    6  A    between atoms: C_18  and  O_20
REMARK    7  A    between atoms: C_21  and  O_23
REMARK    8  A    between atoms: C_24  and  O_26
REMARK                            x       y       z     vdW  Elec       q    Type
REMARK                         _______ _______ _______ _____ _____    ______ ____
ROOT
ATOM      1  C   UNL     1       9.862  -1.976  24.075  0.00  0.00    +0.339 C 
ATOM      2  C   UNL     1       9.367  -1.308  22.780  0.00  0.00    +0.214 C 
ATOM      3  C   UNL     1       9.418   0.216  23.086  0.00  0.00    +0.180 C 
ATOM      4  C   UNL     1       8.634   0.597  24.364  0.00  0.00    +0.177 C 
ATOM      5  C   UNL     1       8.983  -0.341  25.525  0.00  0.00    +0.179 C 
ATOM      6  O   UNL     1       8.898  -1.705  25.103  0.00  0.00    -0.331 OA
ENDROOT
BRANCH   2   7
ATOM      7  O   UNL     1      10.218  -1.649  21.678  0.00  0.00    -0.383 OA
ATOM      8  H   UNL     1       9.824  -1.300  20.860  0.00  0.00    +0.210 HD
ENDBRANCH   2   7
BRANCH   3   9
ATOM      9  O   UNL     1       8.954   0.990  21.976  0.00  0.00    -0.386 OA
ATOM     10  H   UNL     1       9.170   1.921  22.189  0.00  0.00    +0.210 HD
ENDBRANCH   3   9
BRANCH   4  11
ATOM     11  O   UNL     1       8.924   1.964  24.687  0.00  0.00    -0.386 OA
ATOM     12  H   UNL     1       8.755   2.524  23.907  0.00  0.00    +0.210 HD
ENDBRANCH   4  11
BRANCH   1  13
ATOM     13  O   UNL     1      10.136  -3.382  24.015  0.00  0.00    -0.461 OA
BRANCH  13  19
ATOM     14  C   UNL     1       5.173  -6.367  27.158  0.00  0.00    +0.045 C 
ATOM     15  C   UNL     1       5.335  -5.837  25.768  0.00  0.00    -0.033 A 
ATOM     16  C   UNL     1       6.641  -5.336  25.317  0.00  0.00    +0.021 A 
ATOM     17  C   UNL     1       6.717  -4.796  24.041  0.00  0.00    +0.143 A 
ATOM     18  C   UNL     1       7.884  -4.228  23.552  0.00  0.00    +0.092 A 
ATOM     19  C   UNL     1       9.017  -4.118  24.362  0.00  0.00    +0.128 A 
ATOM     20  C   UNL     1       8.998  -4.730  25.612  0.00  0.00    +0.046 A 
ATOM     21  O   UNL     1       5.618  -4.743  23.170  0.00  0.00    -0.422 OA
ATOM     22  C   UNL     1       4.395  -5.228  23.562  0.00  0.00    +0.337 A 
ATOM     23  O   UNL     1       3.411  -5.189  22.838  0.00  0.00    -0.245 OA
ATOM     24  C   UNL     1       7.817  -5.337  26.086  0.00  0.00    +0.015 A 
ATOM     25  C   UNL     1       4.297  -5.781  24.917  0.00  0.00    +0.096 A 
ENDBRANCH  13  19
ENDBRANCH   1  13
BRANCH   5  26
ATOM     26  C   UNL     1       8.070  -0.180  26.739  0.00  0.00    +0.190 C 
BRANCH  26  27
ATOM     27  O   UNL     1       8.870  -0.168  27.925  0.00  0.00    -0.392 OA
ATOM     28  H   UNL     1       8.677   0.681  28.372  0.00  0.00    +0.210 HD
ENDBRANCH  26  27
ENDBRANCH   5  26
TORSDOF 7
ENDMDL
