MODEL 1
REMARK VINA RESULT:      -4.0      0.000      0.000
REMARK  Name = 
REMARK  13 active torsions:
REMARK  status: ('A' for Active; 'I' for Inactive)
REMARK    1  A    between atoms: C_1  and  C_2
REMARK    2  A    between atoms: C_2  and  CA_3
REMARK    3  A    between atoms: CA_3  and  C_5
REMARK    4  A    between atoms: CA_3  and  N_7
REMARK    5  A    between atoms: C_5  and  O_6
REMARK    6  A    between atoms: N_7  and  C_8
REMARK    7  A    between atoms: C_8  and  C_9
REMARK    8  A    between atoms: C_9  and  N_10
REMARK    9  A    between atoms: N_10  and  CA_11
REMARK   10  A    between atoms: CA_11  and  C_13
REMARK   11  A    between atoms: CA_11  and  C_15
REMARK   12  A    between atoms: C_13  and  C_14
REMARK   13  A    between atoms: C_15  and  O_16
REMARK                            x       y       z     vdW  Elec       q    Type
REMARK                         _______ _______ _______ _____ _____    ______ ____
ROOT
ATOM      1  C   UNL     1       6.746  -1.068  23.207  0.00  0.00    +0.096 C 
ENDROOT
BRANCH   1   2
ATOM      2  N   UNL     1       8.090  -1.214  23.781  0.00  0.00    -0.310 NA
ATOM      3  H   UNL     1       8.018  -1.164  24.797  0.00  0.00    +0.122 HD
BRANCH   2   4
ATOM      4  CA  UNL     1       9.045  -0.181  23.318  0.00  0.00    +0.079 C 
BRANCH   4   6
ATOM      5  C   UNL     1      11.067   0.822  24.561  0.00  0.00    +0.005 C 
ATOM      6  C   UNL     1       9.581   0.500  24.600  0.00  0.00    +0.017 C 
ENDBRANCH   4   6
BRANCH   4   7
ATOM      7  C   UNL     1      10.173  -0.728  22.403  0.00  0.00    +0.174 C 
BRANCH   7   8
ATOM      8  O   UNL     1       9.820  -1.912  21.695  0.00  0.00    -0.393 OA
ATOM      9  H   UNL     1      10.536  -2.557  21.809  0.00  0.00    +0.209 HD
ENDBRANCH   7   8
ENDBRANCH   4   7
ENDBRANCH   2   4
ENDBRANCH   1   2
BRANCH   1  10
ATOM     10  C   UNL     1       6.212  -2.437  22.726  0.00  0.00    +0.096 C 
BRANCH  10  11
ATOM     11  N   UNL     1       7.317  -3.357  22.411  0.00  0.00    -0.310 NA
ATOM     12  H   UNL     1       8.172  -2.933  22.786  0.00  0.00    +0.122 HD
BRANCH  11  13
ATOM     13  CA  UNL     1       7.167  -4.680  23.059  0.00  0.00    +0.079 C 
BRANCH  13  14
ATOM     14  C   UNL     1       7.215  -5.881  22.089  0.00  0.00    +0.017 C 
ATOM     15  C   UNL     1       6.243  -5.798  20.917  0.00  0.00    +0.005 C 
ENDBRANCH  13  14
BRANCH  13  16
ATOM     16  C   UNL     1       8.244  -4.831  24.158  0.00  0.00    +0.174 C 
BRANCH  16  17
ATOM     17  O   UNL     1       9.308  -3.900  23.951  0.00  0.00    -0.393 OA
ATOM     18  H   UNL     1       9.135  -3.486  23.087  0.00  0.00    +0.209 HD
ENDBRANCH  16  17
ENDBRANCH  13  16
ENDBRANCH  11  13
ENDBRANCH  10  11
ENDBRANCH   1  10
TORSDOF 11
ENDMDL
MODEL 2
REMARK VINA RESULT:      -3.9      0.794      5.345
REMARK  Name = 
REMARK  13 active torsions:
REMARK  status: ('A' for Active; 'I' for Inactive)
REMARK    1  A    between atoms: C_1  and  C_2
REMARK    2  A    between atoms: C_2  and  CA_3
REMARK    3  A    between atoms: CA_3  and  C_5
REMARK    4  A    between atoms: CA_3  and  N_7
REMARK    5  A    between atoms: C_5  and  O_6
REMARK    6  A    between atoms: N_7  and  C_8
REMARK    7  A    between atoms: C_8  and  C_9
REMARK    8  A    between atoms: C_9  and  N_10
REMARK    9  A    between atoms: N_10  and  CA_11
REMARK   10  A    between atoms: CA_11  and  C_13
REMARK   11  A    between atoms: CA_11  and  C_15
REMARK   12  A    between atoms: C_13  and  C_14
REMARK   13  A    between atoms: C_15  and  O_16
REMARK                            x       y       z     vdW  Elec       q    Type
REMARK                         _______ _______ _______ _____ _____    ______ ____
ROOT
ATOM      1  C   UNL     1       6.794  -2.299  22.963  0.00  0.00    +0.096 C 
ENDROOT
BRANCH   1   2
ATOM      2  N   UNL     1       7.762  -3.347  22.612  0.00  0.00    -0.310 NA
ATOM      3  H   UNL     1       7.773  -3.454  21.598  0.00  0.00    +0.122 HD
BRANCH   2   4
ATOM      4  CA  UNL     1       7.462  -4.659  23.228  0.00  0.00    +0.079 C 
BRANCH   4   6
ATOM      5  C   UNL     1       6.064  -5.830  21.407  0.00  0.00    +0.005 C 
ATOM      6  C   UNL     1       7.428  -5.674  22.061  0.00  0.00    +0.017 C 
ENDBRANCH   4   6
BRANCH   4   7
ATOM      7  C   UNL     1       8.444  -5.065  24.360  0.00  0.00    +0.174 C 
BRANCH   7   8
ATOM      8  O   UNL     1       9.588  -4.223  24.462  0.00  0.00    -0.393 OA
ATOM      9  H   UNL     1       9.292  -3.302  24.393  0.00  0.00    +0.209 HD
ENDBRANCH   7   8
ENDBRANCH   4   7
ENDBRANCH   2   4
ENDBRANCH   1   2
BRANCH   1  10
ATOM     10  C   UNL     1       7.451  -1.243  23.881  0.00  0.00    +0.096 C 
BRANCH  10  11
ATOM     11  N   UNL     1       7.720   0.005  23.149  0.00  0.00    -0.310 NA
ATOM     12  H   UNL     1       7.420   0.776  23.755  0.00  0.00    +0.122 HD
BRANCH  11  13
ATOM     13  CA  UNL     1       9.160   0.208  22.867  0.00  0.00    +0.079 C 
BRANCH  13  14
ATOM     14  C   UNL     1      10.115  -0.467  23.876  0.00  0.00    +0.017 C 
ATOM     15  C   UNL     1      10.772   0.483  24.870  0.00  0.00    +0.005 C 
ENDBRANCH  13  14
BRANCH  13  16
ATOM     16  C   UNL     1       9.467  -0.272  21.429  0.00  0.00    +0.174 C 
BRANCH  16  17
ATOM     17  O   UNL     1      10.072  -1.566  21.449  0.00  0.00    -0.393 OA
ATOM     18  H   UNL     1      10.968  -1.436  21.804  0.00  0.00    +0.209 HD
ENDBRANCH  16  17
ENDBRANCH  13  16
ENDBRANCH  11  13
ENDBRANCH  10  11
ENDBRANCH   1  10
TORSDOF 11
ENDMDL
MODEL 3
REMARK VINA RESULT:      -3.9      2.441      2.985
REMARK  Name = 
REMARK  13 active torsions:
REMARK  status: ('A' for Active; 'I' for Inactive)
REMARK    1  A    between atoms: C_1  and  C_2
REMARK    2  A    between atoms: C_2  and  CA_3
REMARK    3  A    between atoms: CA_3  and  C_5
REMARK    4  A    between atoms: CA_3  and  N_7
REMARK    5  A    between atoms: C_5  and  O_6
REMARK    6  A    between atoms: N_7  and  C_8
REMARK    7  A    between atoms: C_8  and  C_9
REMARK    8  A    between atoms: C_9  and  N_10
REMARK    9  A    between atoms: N_10  and  CA_11
REMARK   10  A    between atoms: CA_11  and  C_13
REMARK   11  A    between atoms: CA_11  and  C_15
REMARK   12  A    between atoms: C_13  and  C_14
REMARK   13  A    between atoms: C_15  and  O_16
REMARK                            x       y       z     vdW  Elec       q    Type
REMARK                         _______ _______ _______ _____ _____    ______ ____
ROOT
ATOM      1  C   UNL     1       8.955  -1.960  22.490  0.00  0.00    +0.096 C 
ENDROOT
BRANCH   1   2
ATOM      2  N   UNL     1       9.656  -1.061  21.562  0.00  0.00    -0.310 NA
ATOM      3  H   UNL     1      10.652  -1.079  21.781  0.00  0.00    +0.122 HD
BRANCH   2   4
ATOM      4  CA  UNL     1       9.178   0.338  21.622  0.00  0.00    +0.079 C 
BRANCH   4   6
ATOM      5  C   UNL     1       7.409   1.471  23.115  0.00  0.00    +0.005 C 
ATOM      6  C   UNL     1       7.764   0.274  22.247  0.00  0.00    +0.017 C 
ENDBRANCH   4   6
BRANCH   4   7
ATOM      7  C   UNL     1      10.133   1.301  22.379  0.00  0.00    +0.174 C 
BRANCH   7   8
ATOM      8  O   UNL     1      10.465   2.477  21.648  0.00  0.00    -0.393 OA
ATOM      9  H   UNL     1       9.808   2.590  20.943  0.00  0.00    +0.209 HD
ENDBRANCH   7   8
ENDBRANCH   4   7
ENDBRANCH   2   4
ENDBRANCH   1   2
BRANCH   1  10
ATOM     10  C   UNL     1       9.847  -2.273  23.714  0.00  0.00    +0.096 C 
BRANCH  10  11
ATOM     11  N   UNL     1       9.700  -3.675  24.135  0.00  0.00    -0.310 NA
ATOM     12  H   UNL     1      10.591  -3.952  24.560  0.00  0.00    +0.122 HD
BRANCH  11  13
ATOM     13  CA  UNL     1       8.651  -3.862  25.163  0.00  0.00    +0.079 C 
BRANCH  13  14
ATOM     14  C   UNL     1       7.349  -4.512  24.643  0.00  0.00    +0.017 C 
ATOM     15  C   UNL     1       7.482  -5.233  23.307  0.00  0.00    +0.005 C 
ENDBRANCH  13  14
BRANCH  13  16
ATOM     16  C   UNL     1       9.233  -4.683  26.337  0.00  0.00    +0.174 C 
BRANCH  16  17
ATOM     17  O   UNL     1      10.250  -5.572  25.873  0.00  0.00    -0.393 OA
ATOM     18  H   UNL     1       9.901  -5.976  25.060  0.00  0.00    +0.209 HD
ENDBRANCH  16  17
ENDBRANCH  13  16
ENDBRANCH  11  13
ENDBRANCH  10  11
ENDBRANCH   1  10
TORSDOF 11
ENDMDL
MODEL 4
REMARK VINA RESULT:      -3.9      4.122      5.990
REMARK  Name = 
REMARK  13 active torsions:
REMARK  status: ('A' for Active; 'I' for Inactive)
REMARK    1  A    between atoms: C_1  and  C_2
REMARK    2  A    between atoms: C_2  and  CA_3
REMARK    3  A    between atoms: CA_3  and  C_5
REMARK    4  A    between atoms: CA_3  and  N_7
REMARK    5  A    between atoms: C_5  and  O_6
REMARK    6  A    between atoms: N_7  and  C_8
REMARK    7  A    between atoms: C_8  and  C_9
REMARK    8  A    between atoms: C_9  and  N_10
REMARK    9  A    between atoms: N_10  and  CA_11
REMARK   10  A    between atoms: CA_11  and  C_13
REMARK   11  A    between atoms: CA_11  and  C_15
REMARK   12  A    between atoms: C_13  and  C_14
REMARK   13  A    between atoms: C_15  and  O_16
REMARK                            x       y       z     vdW  Elec       q    Type
REMARK                         _______ _______ _______ _____ _____    ______ ____
ROOT
ATOM      1  C   UNL     1       8.480   3.397  24.832  0.00  0.00    +0.096 C 
ENDROOT
BRANCH   1   2
ATOM      2  N   UNL     1       8.869   4.122  23.614  0.00  0.00    -0.310 NA
ATOM      3  H   UNL     1       9.490   3.528  23.066  0.00  0.00    +0.122 HD
BRANCH   2   4
ATOM      4  CA  UNL     1       9.553   5.407  23.885  0.00  0.00    +0.079 C 
BRANCH   4   6
ATOM      5  C   UNL     1       9.927   6.984  25.888  0.00  0.00    +0.005 C 
ATOM      6  C   UNL     1       9.154   5.800  25.327  0.00  0.00    +0.017 C 
ENDBRANCH   4   6
BRANCH   4   7
ATOM      7  C   UNL     1      11.091   5.362  23.671  0.00  0.00    +0.174 C 
BRANCH   7   8
ATOM      8  O   UNL     1      11.543   4.206  22.973  0.00  0.00    -0.393 OA
ATOM      9  H   UNL     1      12.456   4.366  22.685  0.00  0.00    +0.209 HD
ENDBRANCH   7   8
ENDBRANCH   4   7
ENDBRANCH   2   4
ENDBRANCH   1   2
BRANCH   1  10
ATOM     10  C   UNL     1       8.915   1.916  24.740  0.00  0.00    +0.096 C 
BRANCH  10  11
ATOM     11  N   UNL     1      10.302   1.797  24.265  0.00  0.00    -0.310 NA
ATOM     12  H   UNL     1      10.886   1.630  25.091  0.00  0.00    +0.122 HD
BRANCH  11  13
ATOM     13  CA  UNL     1      10.502   0.648  23.352  0.00  0.00    +0.079 C 
BRANCH  13  14
ATOM     14  C   UNL     1      10.045  -0.713  23.921  0.00  0.00    +0.017 C 
ATOM     15  C   UNL     1       9.878  -1.817  22.883  0.00  0.00    +0.005 C 
ENDBRANCH  13  14
BRANCH  13  16
ATOM     16  C   UNL     1       9.791   0.939  22.010  0.00  0.00    +0.174 C 
BRANCH  16  17
ATOM     17  O   UNL     1      10.144   2.235  21.523  0.00  0.00    -0.393 OA
ATOM     18  H   UNL     1      10.215   2.804  22.309  0.00  0.00    +0.209 HD
ENDBRANCH  16  17
ENDBRANCH  13  16
ENDBRANCH  11  13
ENDBRANCH  10  11
ENDBRANCH   1  10
TORSDOF 11
ENDMDL
MODEL 5
REMARK VINA RESULT:      -3.9      2.229      2.785
REMARK  Name = 
REMARK  13 active torsions:
REMARK  status: ('A' for Active; 'I' for Inactive)
REMARK    1  A    between atoms: C_1  and  C_2
REMARK    2  A    between atoms: C_2  and  CA_3
REMARK    3  A    between atoms: CA_3  and  C_5
REMARK    4  A    between atoms: CA_3  and  N_7
REMARK    5  A    between atoms: C_5  and  O_6
REMARK    6  A    between atoms: N_7  and  C_8
REMARK    7  A    between atoms: C_8  and  C_9
REMARK    8  A    between atoms: C_9  and  N_10
REMARK    9  A    between atoms: N_10  and  CA_11
REMARK   10  A    between atoms: CA_11  and  C_13
REMARK   11  A    between atoms: CA_11  and  C_15
REMARK   12  A    between atoms: C_13  and  C_14
REMARK   13  A    between atoms: C_15  and  O_16
REMARK                            x       y       z     vdW  Elec       q    Type
REMARK                         _______ _______ _______ _____ _____    ______ ____
ROOT
ATOM      1  C   UNL     1       9.186  -2.368  23.275  0.00  0.00    +0.096 C 
ENDROOT
BRANCH   1   2
ATOM      2  N   UNL     1      10.399  -1.665  22.832  0.00  0.00    -0.310 NA
ATOM      3  H   UNL     1      11.172  -1.936  23.440  0.00  0.00    +0.122 HD
BRANCH   2   4
ATOM      4  CA  UNL     1      10.268  -0.191  22.853  0.00  0.00    +0.079 C 
BRANCH   4   6
ATOM      5  C   UNL     1       8.771   1.517  21.636  0.00  0.00    +0.005 C 
ATOM      6  C   UNL     1       9.494   0.181  21.566  0.00  0.00    +0.017 C 
ENDBRANCH   4   6
BRANCH   4   7
ATOM      7  C   UNL     1       9.606   0.366  24.143  0.00  0.00    +0.174 C 
BRANCH   7   8
ATOM      8  O   UNL     1      10.489   0.444  25.258  0.00  0.00    -0.393 OA
ATOM      9  H   UNL     1      10.269  -0.277  25.868  0.00  0.00    +0.209 HD
ENDBRANCH   7   8
ENDBRANCH   4   7
ENDBRANCH   2   4
ENDBRANCH   1   2
BRANCH   1  10
ATOM     10  C   UNL     1       9.510  -3.309  24.459  0.00  0.00    +0.096 C 
BRANCH  10  11
ATOM     11  N   UNL     1       8.886  -4.629  24.275  0.00  0.00    -0.310 NA
ATOM     12  H   UNL     1       9.343  -5.268  24.934  0.00  0.00    +0.122 HD
BRANCH  11  13
ATOM     13  CA  UNL     1       7.440  -4.633  24.596  0.00  0.00    +0.079 C 
BRANCH  13  14
ATOM     14  C   UNL     1       6.545  -5.292  23.524  0.00  0.00    +0.017 C 
ATOM     15  C   UNL     1       7.287  -5.806  22.296  0.00  0.00    +0.005 C 
ENDBRANCH  13  14
BRANCH  13  16
ATOM     16  C   UNL     1       7.229  -5.313  25.969  0.00  0.00    +0.174 C 
BRANCH  16  17
ATOM     17  O   UNL     1       8.443  -5.909  26.427  0.00  0.00    -0.393 OA
ATOM     18  H   UNL     1       8.204  -6.432  27.212  0.00  0.00    +0.209 HD
ENDBRANCH  16  17
ENDBRANCH  13  16
ENDBRANCH  11  13
ENDBRANCH  10  11
ENDBRANCH   1  10
TORSDOF 11
ENDMDL
MODEL 6
REMARK VINA RESULT:      -3.9      1.753      2.156
REMARK  Name = 
REMARK  13 active torsions:
REMARK  status: ('A' for Active; 'I' for Inactive)
REMARK    1  A    between atoms: C_1  and  C_2
REMARK    2  A    between atoms: C_2  and  CA_3
REMARK    3  A    between atoms: CA_3  and  C_5
REMARK    4  A    between atoms: CA_3  and  N_7
REMARK    5  A    between atoms: C_5  and  O_6
REMARK    6  A    between atoms: N_7  and  C_8
REMARK    7  A    between atoms: C_8  and  C_9
REMARK    8  A    between atoms: C_9  and  N_10
REMARK    9  A    between atoms: N_10  and  CA_11
REMARK   10  A    between atoms: CA_11  and  C_13
REMARK   11  A    between atoms: CA_11  and  C_15
REMARK   12  A    between atoms: C_13  and  C_14
REMARK   13  A    between atoms: C_15  and  O_16
REMARK                            x       y       z     vdW  Elec       q    Type
REMARK                         _______ _______ _______ _____ _____    ______ ____
ROOT
ATOM      1  C   UNL     1       8.119  -0.741  24.451  0.00  0.00    +0.096 C 
ENDROOT
BRANCH   1   2
ATOM      2  N   UNL     1       9.057   0.126  23.724  0.00  0.00    -0.310 NA
ATOM      3  H   UNL     1       8.981   1.072  24.097  0.00  0.00    +0.122 HD
BRANCH   2   4
ATOM      4  CA  UNL     1       8.816   0.165  22.265  0.00  0.00    +0.079 C 
BRANCH   4   6
ATOM      5  C   UNL     1      10.344   2.167  22.807  0.00  0.00    +0.005 C 
ATOM      6  C   UNL     1       9.503   1.455  21.759  0.00  0.00    +0.017 C 
ENDBRANCH   4   6
BRANCH   4   7
ATOM      7  C   UNL     1       9.285  -1.109  21.511  0.00  0.00    +0.174 C 
BRANCH   7   8
ATOM      8  O   UNL     1      10.510  -1.649  21.998  0.00  0.00    -0.393 OA
ATOM      9  H   UNL     1      10.815  -2.320  21.367  0.00  0.00    +0.209 HD
ENDBRANCH   7   8
ENDBRANCH   4   7
ENDBRANCH   2   4
ENDBRANCH   1   2
BRANCH   1  10
ATOM     10  C   UNL     1       8.889  -1.752  25.332  0.00  0.00    +0.096 C 
BRANCH  10  11
ATOM     11  N   UNL     1       9.334  -2.913  24.545  0.00  0.00    -0.310 NA
ATOM     12  H   UNL     1      10.142  -3.312  25.035  0.00  0.00    +0.122 HD
BRANCH  11  13
ATOM     13  CA  UNL     1       8.308  -3.978  24.460  0.00  0.00    +0.079 C 
BRANCH  13  14
ATOM     14  C   UNL     1       7.663  -4.141  23.066  0.00  0.00    +0.017 C 
ATOM     15  C   UNL     1       7.381  -5.581  22.655  0.00  0.00    +0.005 C 
ENDBRANCH  13  14
BRANCH  13  16
ATOM     16  C   UNL     1       8.927  -5.316  24.928  0.00  0.00    +0.174 C 
BRANCH  16  17
ATOM     17  O   UNL     1      10.352  -5.223  24.971  0.00  0.00    -0.393 OA
ATOM     18  H   UNL     1      10.685  -6.086  24.672  0.00  0.00    +0.209 HD
ENDBRANCH  16  17
ENDBRANCH  13  16
ENDBRANCH  11  13
ENDBRANCH  10  11
ENDBRANCH   1  10
TORSDOF 11
ENDMDL
MODEL 7
REMARK VINA RESULT:      -3.9      4.806      6.541
REMARK  Name = 
REMARK  13 active torsions:
REMARK  status: ('A' for Active; 'I' for Inactive)
REMARK    1  A    between atoms: C_1  and  C_2
REMARK    2  A    between atoms: C_2  and  CA_3
REMARK    3  A    between atoms: CA_3  and  C_5
REMARK    4  A    between atoms: CA_3  and  N_7
REMARK    5  A    between atoms: C_5  and  O_6
REMARK    6  A    between atoms: N_7  and  C_8
REMARK    7  A    between atoms: C_8  and  C_9
REMARK    8  A    between atoms: C_9  and  N_10
REMARK    9  A    between atoms: N_10  and  CA_11
REMARK   10  A    between atoms: CA_11  and  C_13
REMARK   11  A    between atoms: CA_11  and  C_15
REMARK   12  A    between atoms: C_13  and  C_14
REMARK   13  A    between atoms: C_15  and  O_16
REMARK                            x       y       z     vdW  Elec       q    Type
REMARK                         _______ _______ _______ _____ _____    ______ ____
ROOT
ATOM      1  C   UNL     1       7.106   3.385  22.301  0.00  0.00    +0.096 C 
ENDROOT
BRANCH   1   2
ATOM      2  N   UNL     1       8.110   4.455  22.211  0.00  0.00    -0.310 NA
ATOM      3  H   UNL     1       8.962   4.141  22.676  0.00  0.00    +0.122 HD
BRANCH   2   4
ATOM      4  CA  UNL     1       7.672   5.728  22.825  0.00  0.00    +0.079 C 
BRANCH   4   6
ATOM      5  C   UNL     1       9.866   5.443  24.145  0.00  0.00    +0.005 C 
ATOM      6  C   UNL     1       8.955   6.391  23.381  0.00  0.00    +0.017 C 
ENDBRANCH   4   6
BRANCH   4   7
ATOM      7  C   UNL     1       6.878   6.654  21.863  0.00  0.00    +0.174 C 
BRANCH   7   8
ATOM      8  O   UNL     1       5.470   6.447  21.895  0.00  0.00    -0.393 OA
ATOM      9  H   UNL     1       5.198   6.085  21.036  0.00  0.00    +0.209 HD
ENDBRANCH   7   8
ENDBRANCH   4   7
ENDBRANCH   2   4
ENDBRANCH   1   2
BRANCH   1  10
ATOM     10  C   UNL     1       7.688   2.054  21.773  0.00  0.00    +0.096 C 
BRANCH  10  11
ATOM     11  N   UNL     1       9.112   2.194  21.431  0.00  0.00    -0.310 NA
ATOM     12  H   UNL     1       9.389   3.146  21.694  0.00  0.00    +0.122 HD
BRANCH  11  13
ATOM     13  CA  UNL     1       9.981   1.264  22.188  0.00  0.00    +0.079 C 
BRANCH  13  14
ATOM     14  C   UNL     1      10.340   1.736  23.615  0.00  0.00    +0.017 C 
ATOM     15  C   UNL     1      10.918   0.655  24.521  0.00  0.00    +0.005 C 
ENDBRANCH  13  14
BRANCH  13  16
ATOM     16  C   UNL     1       9.312  -0.130  22.233  0.00  0.00    +0.174 C 
BRANCH  16  17
ATOM     17  O   UNL     1       9.787  -0.950  21.164  0.00  0.00    -0.393 OA
ATOM     18  H   UNL     1       9.048  -1.023  20.535  0.00  0.00    +0.209 HD
ENDBRANCH  16  17
ENDBRANCH  13  16
ENDBRANCH  11  13
ENDBRANCH  10  11
ENDBRANCH   1  10
TORSDOF 11
ENDMDL
MODEL 8
REMARK VINA RESULT:      -3.8      2.397      3.642
REMARK  Name = 
REMARK  13 active torsions:
REMARK  status: ('A' for Active; 'I' for Inactive)
REMARK    1  A    between atoms: C_1  and  C_2
REMARK    2  A    between atoms: C_2  and  CA_3
REMARK    3  A    between atoms: CA_3  and  C_5
REMARK    4  A    between atoms: CA_3  and  N_7
REMARK    5  A    between atoms: C_5  and  O_6
REMARK    6  A    between atoms: N_7  and  C_8
REMARK    7  A    between atoms: C_8  and  C_9
REMARK    8  A    between atoms: C_9  and  N_10
REMARK    9  A    between atoms: N_10  and  CA_11
REMARK   10  A    between atoms: CA_11  and  C_13
REMARK   11  A    between atoms: CA_11  and  C_15
REMARK   12  A    between atoms: C_13  and  C_14
REMARK   13  A    between atoms: C_15  and  O_16
REMARK                            x       y       z     vdW  Elec       q    Type
REMARK                         _______ _______ _______ _____ _____    ______ ____
ROOT
ATOM      1  C   UNL     1      10.590   0.382  24.903  0.00  0.00    +0.096 C 
ENDROOT
BRANCH   1   2
ATOM      2  N   UNL     1      10.492   1.557  24.026  0.00  0.00    -0.310 NA
ATOM      3  H   UNL     1      10.992   2.331  24.462  0.00  0.00    +0.122 HD
BRANCH   2   4
ATOM      4  CA  UNL     1       9.098   1.978  23.758  0.00  0.00    +0.079 C 
BRANCH   4   6
ATOM      5  C   UNL     1       9.447   4.516  24.035  0.00  0.00    +0.005 C 
ATOM      6  C   UNL     1       8.866   3.239  24.623  0.00  0.00    +0.017 C 
ENDBRANCH   4   6
BRANCH   4   7
ATOM      7  C   UNL     1       8.784   2.206  22.255  0.00  0.00    +0.174 C 
BRANCH   7   8
ATOM      8  O   UNL     1       9.870   1.899  21.385  0.00  0.00    -0.393 OA
ATOM      9  H   UNL     1       9.818   2.491  20.618  0.00  0.00    +0.209 HD
ENDBRANCH   7   8
ENDBRANCH   4   7
ENDBRANCH   2   4
ENDBRANCH   1   2
BRANCH   1  10
ATOM     10  C   UNL     1       9.396  -0.572  24.665  0.00  0.00    +0.096 C 
BRANCH  10  11
ATOM     11  N   UNL     1       9.856  -1.905  24.247  0.00  0.00    -0.310 NA
ATOM     12  H   UNL     1       9.771  -2.518  25.065  0.00  0.00    +0.122 HD
BRANCH  11  13
ATOM     13  CA  UNL     1       9.020  -2.494  23.175  0.00  0.00    +0.079 C 
BRANCH  13  14
ATOM     14  C   UNL     1       7.628  -2.978  23.638  0.00  0.00    +0.017 C 
ATOM     15  C   UNL     1       7.650  -4.106  24.663  0.00  0.00    +0.005 C 
ENDBRANCH  13  14
BRANCH  13  16
ATOM     16  C   UNL     1       8.881  -1.471  22.024  0.00  0.00    +0.174 C 
BRANCH  16  17
ATOM     17  O   UNL     1      10.120  -1.323  21.329  0.00  0.00    -0.393 OA
ATOM     18  H   UNL     1      10.439  -2.226  21.158  0.00  0.00    +0.209 HD
ENDBRANCH  16  17
ENDBRANCH  13  16
ENDBRANCH  11  13
ENDBRANCH  10  11
ENDBRANCH   1  10
TORSDOF 11
ENDMDL
MODEL 9
REMARK VINA RESULT:      -3.7      2.419      5.210
REMARK  Name = 
REMARK  13 active torsions:
REMARK  status: ('A' for Active; 'I' for Inactive)
REMARK    1  A    between atoms: C_1  and  C_2
REMARK    2  A    between atoms: C_2  and  CA_3
REMARK    3  A    between atoms: CA_3  and  C_5
REMARK    4  A    between atoms: CA_3  and  N_7
REMARK    5  A    between atoms: C_5  and  O_6
REMARK    6  A    between atoms: N_7  and  C_8
REMARK    7  A    between atoms: C_8  and  C_9
REMARK    8  A    between atoms: C_9  and  N_10
REMARK    9  A    between atoms: N_10  and  CA_11
REMARK   10  A    between atoms: CA_11  and  C_13
REMARK   11  A    between atoms: CA_11  and  C_15
REMARK   12  A    between atoms: C_13  and  C_14
REMARK   13  A    between atoms: C_15  and  O_16
REMARK                            x       y       z     vdW  Elec       q    Type
REMARK                         _______ _______ _______ _____ _____    ______ ____
ROOT
ATOM      1  C   UNL     1       8.332  -3.155  23.184  0.00  0.00    +0.096 C 
ENDROOT
BRANCH   1   2
ATOM      2  N   UNL     1       9.303  -3.266  24.282  0.00  0.00    -0.310 NA
ATOM      3  H   UNL     1      10.027  -3.930  24.010  0.00  0.00    +0.122 HD
BRANCH   2   4
ATOM      4  CA  UNL     1       8.702  -3.709  25.559  0.00  0.00    +0.079 C 
BRANCH   4   6
ATOM      5  C   UNL     1       6.737  -5.350  25.860  0.00  0.00    +0.005 C 
ATOM      6  C   UNL     1       7.229  -4.053  25.234  0.00  0.00    +0.017 C 
ENDBRANCH   4   6
BRANCH   4   7
ATOM      7  C   UNL     1       9.462  -4.877  26.244  0.00  0.00    +0.174 C 
BRANCH   7   8
ATOM      8  O   UNL     1      10.351  -5.574  25.378  0.00  0.00    -0.393 OA
ATOM      9  H   UNL     1      11.235  -5.562  25.779  0.00  0.00    +0.209 HD
ENDBRANCH   7   8
ENDBRANCH   4   7
ENDBRANCH   2   4
ENDBRANCH   1   2
BRANCH   1  10
ATOM     10  C   UNL     1       8.744  -2.026  22.211  0.00  0.00    +0.096 C 
BRANCH  10  11
ATOM     11  N   UNL     1      10.065  -1.480  22.558  0.00  0.00    -0.310 NA
ATOM     12  H   UNL     1      10.702  -1.736  21.796  0.00  0.00    +0.122 HD
BRANCH  11  13
ATOM     13  CA  UNL     1      10.071  -0.002  22.653  0.00  0.00    +0.079 C 
BRANCH  13  14
ATOM     14  C   UNL     1       9.388   0.722  21.472  0.00  0.00    +0.017 C 
ATOM     15  C   UNL     1       8.442   1.848  21.871  0.00  0.00    +0.005 C 
ENDBRANCH  13  14
BRANCH  13  16
ATOM     16  C   UNL     1       9.425   0.421  23.993  0.00  0.00    +0.174 C 
BRANCH  16  17
ATOM     17  O   UNL     1       9.967  -0.336  25.075  0.00  0.00    -0.393 OA
ATOM     18  H   UNL     1      10.622   0.242  25.504  0.00  0.00    +0.209 HD
ENDBRANCH  16  17
ENDBRANCH  13  16
ENDBRANCH  11  13
ENDBRANCH  10  11
ENDBRANCH   1  10
TORSDOF 11
ENDMDL
