MODEL 1
REMARK VINA RESULT:      -6.4      0.000      0.000
REMARK  Name = 
REMARK  20 active torsions:
REMARK  status: ('A' for Active; 'I' for Inactive)
REMARK    1  A    between atoms: C_1  and  C_2
REMARK    2  A    between atoms: C_2  and  O_4
REMARK    3  A    between atoms: C_2  and  N_5
REMARK    4  A    between atoms: N_5  and  C_6
REMARK    5  A    between atoms: C_8  and  O_10
REMARK    6  A    between atoms: C_12  and  C_14
REMARK    7  A    between atoms: C_14  and  O_15
REMARK    8  A    between atoms: C_16  and  O_18
REMARK    9  A    between atoms: C_19  and  O_21
REMARK   10  A    between atoms: O_21  and  C_22
REMARK   11  A    between atoms: C_25  and  C_27
REMARK   12  A    between atoms: C_27  and  O_28
REMARK   13  A    between atoms: C_29  and  O_31
REMARK   14  A    between atoms: C_32  and  O_34
REMARK   15  A    between atoms: C_35  and  O_37
REMARK   16  A    between atoms: O_37  and  C_38
REMARK   17  A    between atoms: C_41  and  C_43
REMARK   18  A    between atoms: C_44  and  O_46
REMARK   19  A    between atoms: C_47  and  O_49
REMARK   20  A    between atoms: C_50  and  O_52
REMARK                            x       y       z     vdW  Elec       q    Type
REMARK                         _______ _______ _______ _____ _____    ______ ____
ROOT
ATOM      1  C   UNL     1       6.232  -3.444  26.807  0.00  0.00    +0.283 C 
ATOM      2  C   UNL     1       6.908  -4.822  27.232  0.00  0.00    +0.208 C 
ATOM      3  C   UNL     1       5.883  -5.772  27.924  0.00  0.00    +0.179 C 
ATOM      4  C   UNL     1       4.908  -5.061  28.870  0.00  0.00    +0.177 C 
ATOM      5  C   UNL     1       4.285  -3.897  28.104  0.00  0.00    +0.178 C 
ATOM      6  O   UNL     1       5.323  -2.961  27.805  0.00  0.00    -0.341 OA
ENDROOT
BRANCH   4   7
ATOM      7  O   UNL     1       5.620  -4.656  30.043  0.00  0.00    -0.386 OA
ATOM      8  H   UNL     1       5.470  -5.294  30.759  0.00  0.00    +0.210 HD
ENDBRANCH   4   7
BRANCH   3   9
ATOM      9  O   UNL     1       6.538  -6.855  28.612  0.00  0.00    -0.386 OA
ATOM     10  H   UNL     1       5.860  -7.365  29.091  0.00  0.00    +0.210 HD
ENDBRANCH   3   9
BRANCH   5  11
ATOM     11  C   UNL     1       3.181  -3.207  28.911  0.00  0.00    +0.190 C 
BRANCH  11  12
ATOM     12  O   UNL     1       3.731  -2.175  29.723  0.00  0.00    -0.392 OA
ATOM     13  H   UNL     1       3.794  -1.376  29.167  0.00  0.00    +0.210 HD
ENDBRANCH  11  12
ENDBRANCH   5  11
BRANCH   2  14
ATOM     14  O   UNL     1       7.391  -5.492  26.029  0.00  0.00    -0.338 OA
BRANCH  14  15
ATOM     15  C   UNL     1       6.819  -5.022  24.787  0.00  0.00    +0.282 C 
ATOM     16  C   UNL     1       7.974  -4.765  23.757  0.00  0.00    +0.201 C 
ATOM     17  C   UNL     1       7.442  -4.562  22.326  0.00  0.00    +0.179 C 
ATOM     18  C   UNL     1       6.438  -5.671  21.988  0.00  0.00    +0.174 C 
ATOM     19  C   UNL     1       5.309  -5.733  23.025  0.00  0.00    +0.149 C 
ATOM     20  C   UNL     1       4.320  -4.561  22.983  0.00  0.00    +0.041 C 
ATOM     21  O   UNL     1       5.844  -5.960  24.331  0.00  0.00    -0.343 OA
BRANCH  18  22
ATOM     22  O   UNL     1       5.936  -5.503  20.662  0.00  0.00    -0.387 OA
ATOM     23  H   UNL     1       6.633  -5.833  20.062  0.00  0.00    +0.210 HD
ENDBRANCH  18  22
BRANCH  17  24
ATOM     24  O   UNL     1       6.852  -3.280  22.072  0.00  0.00    -0.386 OA
ATOM     25  H   UNL     1       6.260  -3.028  22.801  0.00  0.00    +0.210 HD
ENDBRANCH  17  24
BRANCH  16  26
ATOM     26  O   UNL     1       8.905  -5.862  23.734  0.00  0.00    -0.384 OA
ATOM     27  H   UNL     1       9.579  -5.671  23.058  0.00  0.00    +0.210 HD
ENDBRANCH  16  26
ENDBRANCH  14  15
ENDBRANCH   2  14
BRANCH   1  28
ATOM     28  O   UNL     1       7.206  -2.382  26.557  0.00  0.00    -0.341 OA
BRANCH  28  30
ATOM     29  C   UNL     1       8.378  -1.173  24.716  0.00  0.00    +0.144 C 
ATOM     30  C   UNL     1       7.001  -1.672  25.298  0.00  0.00    +0.174 C 
ATOM     31  C   UNL     1       6.040  -0.461  25.389  0.00  0.00    +0.176 C 
ATOM     32  C   UNL     1       6.632   0.743  26.134  0.00  0.00    +0.178 C 
ATOM     33  O   UNL     1       7.937   1.094  25.654  0.00  0.00    -0.342 OA
ATOM     34  C   UNL     1       8.881   0.027  25.571  0.00  0.00    +0.267 C 
BRANCH  34  35
ATOM     35  O   UNL     1       9.355  -0.362  26.864  0.00  0.00    -0.366 OA
ATOM     36  H   UNL     1       8.994   0.252  27.514  0.00  0.00    +0.213 HD
ENDBRANCH  34  35
BRANCH  31  37
ATOM     37  O   UNL     1       5.678  -0.033  24.057  0.00  0.00    -0.387 OA
ATOM     38  H   UNL     1       6.502   0.298  23.637  0.00  0.00    +0.210 HD
ENDBRANCH  31  37
BRANCH  29  39
ATOM     39  N   UNL     1       8.234  -0.836  23.262  0.00  0.00    -0.282 NA
ATOM     40  H   UNL     1       7.690  -1.573  22.807  0.00  0.00    +0.125 HD
BRANCH  39  42
ATOM     41  C   UNL     1       9.468   0.547  21.653  0.00  0.00    +0.055 C 
ATOM     42  C   UNL     1       9.474  -0.719  22.511  0.00  0.00    +0.180 C 
BRANCH  42  43
ATOM     43  O   UNL     1       9.592  -1.815  21.638  0.00  0.00    -0.378 OA
ATOM     44  H   UNL     1      10.094  -1.515  20.866  0.00  0.00    +0.211 HD
ENDBRANCH  42  43
ENDBRANCH  39  42
ENDBRANCH  29  39
BRANCH  32  45
ATOM     45  C   UNL     1       6.623   0.625  27.662  0.00  0.00    +0.190 C 
BRANCH  45  46
ATOM     46  O   UNL     1       5.521  -0.197  28.058  0.00  0.00    -0.392 OA
ATOM     47  H   UNL     1       5.676  -0.405  29.002  0.00  0.00    +0.210 HD
ENDBRANCH  45  46
ENDBRANCH  32  45
ENDBRANCH  28  30
ENDBRANCH   1  28
TORSDOF 18
ENDMDL
MODEL 2
REMARK VINA RESULT:      -6.3      2.703      6.013
REMARK  Name = 
REMARK  20 active torsions:
REMARK  status: ('A' for Active; 'I' for Inactive)
REMARK    1  A    between atoms: C_1  and  C_2
REMARK    2  A    between atoms: C_2  and  O_4
REMARK    3  A    between atoms: C_2  and  N_5
REMARK    4  A    between atoms: N_5  and  C_6
REMARK    5  A    between atoms: C_8  and  O_10
REMARK    6  A    between atoms: C_12  and  C_14
REMARK    7  A    between atoms: C_14  and  O_15
REMARK    8  A    between atoms: C_16  and  O_18
REMARK    9  A    between atoms: C_19  and  O_21
REMARK   10  A    between atoms: O_21  and  C_22
REMARK   11  A    between atoms: C_25  and  C_27
REMARK   12  A    between atoms: C_27  and  O_28
REMARK   13  A    between atoms: C_29  and  O_31
REMARK   14  A    between atoms: C_32  and  O_34
REMARK   15  A    between atoms: C_35  and  O_37
REMARK   16  A    between atoms: O_37  and  C_38
REMARK   17  A    between atoms: C_41  and  C_43
REMARK   18  A    between atoms: C_44  and  O_46
REMARK   19  A    between atoms: C_47  and  O_49
REMARK   20  A    between atoms: C_50  and  O_52
REMARK                            x       y       z     vdW  Elec       q    Type
REMARK                         _______ _______ _______ _____ _____    ______ ____
ROOT
ATOM      1  C   UNL     1       9.358   0.776  24.752  0.00  0.00    +0.283 C 
ATOM      2  C   UNL     1       9.088  -0.166  23.495  0.00  0.00    +0.208 C 
ATOM      3  C   UNL     1      10.023   0.195  22.300  0.00  0.00    +0.179 C 
ATOM      4  C   UNL     1      10.245   1.700  22.109  0.00  0.00    +0.177 C 
ATOM      5  C   UNL     1      10.674   2.279  23.454  0.00  0.00    +0.178 C 
ATOM      6  O   UNL     1       9.580   2.137  24.364  0.00  0.00    -0.341 OA
ENDROOT
BRANCH   4   7
ATOM      7  O   UNL     1       9.040   2.280  21.597  0.00  0.00    -0.386 OA
ATOM      8  H   UNL     1       8.443   2.503  22.328  0.00  0.00    +0.210 HD
ENDBRANCH   4   7
BRANCH   3   9
ATOM      9  O   UNL     1       9.567  -0.397  21.068  0.00  0.00    -0.386 OA
ATOM     10  H   UNL     1       8.598  -0.299  21.024  0.00  0.00    +0.210 HD
ENDBRANCH   3   9
BRANCH   5  11
ATOM     11  C   UNL     1      11.068   3.755  23.342  0.00  0.00    +0.190 C 
BRANCH  11  12
ATOM     12  O   UNL     1       9.922   4.555  23.067  0.00  0.00    -0.392 OA
ATOM     13  H   UNL     1       9.171   4.152  23.540  0.00  0.00    +0.210 HD
ENDBRANCH  11  12
ENDBRANCH   5  11
BRANCH   2  14
ATOM     14  O   UNL     1       9.373  -1.545  23.880  0.00  0.00    -0.338 OA
BRANCH  14  15
ATOM     15  C   UNL     1       8.410  -2.525  23.427  0.00  0.00    +0.282 C 
ATOM     16  C   UNL     1       8.609  -3.851  24.241  0.00  0.00    +0.201 C 
ATOM     17  C   UNL     1       7.441  -4.834  24.045  0.00  0.00    +0.179 C 
ATOM     18  C   UNL     1       6.110  -4.094  24.231  0.00  0.00    +0.174 C 
ATOM     19  C   UNL     1       6.014  -2.882  23.295  0.00  0.00    +0.149 C 
ATOM     20  C   UNL     1       5.839  -3.217  21.809  0.00  0.00    +0.041 C 
ATOM     21  O   UNL     1       7.095  -1.979  23.537  0.00  0.00    -0.343 OA
BRANCH  18  22
ATOM     22  O   UNL     1       5.012  -4.990  24.058  0.00  0.00    -0.387 OA
ATOM     23  H   UNL     1       4.682  -4.846  23.149  0.00  0.00    +0.210 HD
ENDBRANCH  18  22
BRANCH  17  24
ATOM     24  O   UNL     1       7.435  -5.534  22.794  0.00  0.00    -0.386 OA
ATOM     25  H   UNL     1       8.160  -6.181  22.764  0.00  0.00    +0.210 HD
ENDBRANCH  17  24
BRANCH  16  26
ATOM     26  O   UNL     1       8.737  -3.584  25.649  0.00  0.00    -0.384 OA
ATOM     27  H   UNL     1       8.773  -2.619  25.770  0.00  0.00    +0.210 HD
ENDBRANCH  16  26
ENDBRANCH  14  15
ENDBRANCH   2  14
BRANCH   1  28
ATOM     28  O   UNL     1       8.256   0.773  25.715  0.00  0.00    -0.341 OA
BRANCH  28  30
ATOM     29  C   UNL     1       6.854   2.788  26.162  0.00  0.00    +0.144 C 
ATOM     30  C   UNL     1       7.077   1.509  25.269  0.00  0.00    +0.174 C 
ATOM     31  C   UNL     1       5.767   0.683  25.259  0.00  0.00    +0.176 C 
ATOM     32  C   UNL     1       5.220   0.376  26.660  0.00  0.00    +0.178 C 
ATOM     33  O   UNL     1       5.142   1.547  27.484  0.00  0.00    -0.342 OA
ATOM     34  C   UNL     1       6.326   2.341  27.557  0.00  0.00    +0.267 C 
BRANCH  34  35
ATOM     35  O   UNL     1       7.329   1.720  28.366  0.00  0.00    -0.366 OA
ATOM     36  H   UNL     1       8.036   1.413  27.786  0.00  0.00    +0.213 HD
ENDBRANCH  34  35
BRANCH  31  37
ATOM     37  O   UNL     1       4.750   1.401  24.526  0.00  0.00    -0.387 OA
ATOM     38  H   UNL     1       4.238   0.728  24.027  0.00  0.00    +0.210 HD
ENDBRANCH  31  37
BRANCH  29  39
ATOM     39  N   UNL     1       5.936   3.749  25.469  0.00  0.00    -0.282 NA
ATOM     40  H   UNL     1       5.327   3.225  24.837  0.00  0.00    +0.125 HD
BRANCH  39  42
ATOM     41  C   UNL     1       6.400   4.479  23.172  0.00  0.00    +0.055 C 
ATOM     42  C   UNL     1       6.581   4.773  24.662  0.00  0.00    +0.180 C 
BRANCH  42  43
ATOM     43  O   UNL     1       7.963   4.766  24.924  0.00  0.00    -0.378 OA
ATOM     44  H   UNL     1       8.328   3.966  24.518  0.00  0.00    +0.211 HD
ENDBRANCH  42  43
ENDBRANCH  39  42
ENDBRANCH  29  39
BRANCH  32  45
ATOM     45  C   UNL     1       5.932  -0.765  27.396  0.00  0.00    +0.190 C 
BRANCH  45  46
ATOM     46  O   UNL     1       6.712  -1.508  26.455  0.00  0.00    -0.392 OA
ATOM     47  H   UNL     1       7.432  -0.904  26.179  0.00  0.00    +0.210 HD
ENDBRANCH  45  46
ENDBRANCH  32  45
ENDBRANCH  28  30
ENDBRANCH   1  28
TORSDOF 18
ENDMDL
MODEL 3
REMARK VINA RESULT:      -6.1      2.550      6.661
REMARK  Name = 
REMARK  20 active torsions:
REMARK  status: ('A' for Active; 'I' for Inactive)
REMARK    1  A    between atoms: C_1  and  C_2
REMARK    2  A    between atoms: C_2  and  O_4
REMARK    3  A    between atoms: C_2  and  N_5
REMARK    4  A    between atoms: N_5  and  C_6
REMARK    5  A    between atoms: C_8  and  O_10
REMARK    6  A    between atoms: C_12  and  C_14
REMARK    7  A    between atoms: C_14  and  O_15
REMARK    8  A    between atoms: C_16  and  O_18
REMARK    9  A    between atoms: C_19  and  O_21
REMARK   10  A    between atoms: O_21  and  C_22
REMARK   11  A    between atoms: C_25  and  C_27
REMARK   12  A    between atoms: C_27  and  O_28
REMARK   13  A    between atoms: C_29  and  O_31
REMARK   14  A    between atoms: C_32  and  O_34
REMARK   15  A    between atoms: C_35  and  O_37
REMARK   16  A    between atoms: O_37  and  C_38
REMARK   17  A    between atoms: C_41  and  C_43
REMARK   18  A    between atoms: C_44  and  O_46
REMARK   19  A    between atoms: C_47  and  O_49
REMARK   20  A    between atoms: C_50  and  O_52
REMARK                            x       y       z     vdW  Elec       q    Type
REMARK                         _______ _______ _______ _____ _____    ______ ____
ROOT
ATOM      1  C   UNL     1       5.937  -0.840  25.444  0.00  0.00    +0.283 C 
ATOM      2  C   UNL     1       6.135   0.735  25.572  0.00  0.00    +0.208 C 
ATOM      3  C   UNL     1       5.409   1.302  26.831  0.00  0.00    +0.179 C 
ATOM      4  C   UNL     1       4.041   0.667  27.106  0.00  0.00    +0.177 C 
ATOM      5  C   UNL     1       4.225  -0.848  27.102  0.00  0.00    +0.178 C 
ATOM      6  O   UNL     1       4.602  -1.243  25.780  0.00  0.00    -0.341 OA
ENDROOT
BRANCH   4   7
ATOM      7  O   UNL     1       3.113   1.131  26.121  0.00  0.00    -0.386 OA
ATOM      8  H   UNL     1       3.452   1.937  25.699  0.00  0.00    +0.210 HD
ENDBRANCH   4   7
BRANCH   3   9
ATOM      9  O   UNL     1       5.285   2.737  26.775  0.00  0.00    -0.386 OA
ATOM     10  H   UNL     1       4.814   2.969  25.954  0.00  0.00    +0.210 HD
ENDBRANCH   3   9
BRANCH   5  11
ATOM     11  C   UNL     1       2.946  -1.581  27.516  0.00  0.00    +0.190 C 
BRANCH  11  12
ATOM     12  O   UNL     1       2.016  -1.605  26.438  0.00  0.00    -0.392 OA
ATOM     13  H   UNL     1       2.512  -1.853  25.637  0.00  0.00    +0.210 HD
ENDBRANCH  11  12
ENDBRANCH   5  11
BRANCH   2  14
ATOM     14  O   UNL     1       7.560   1.013  25.719  0.00  0.00    -0.338 OA
BRANCH  14  15
ATOM     15  C   UNL     1       8.167   1.731  24.620  0.00  0.00    +0.282 C 
ATOM     16  C   UNL     1       7.930   3.269  24.821  0.00  0.00    +0.201 C 
ATOM     17  C   UNL     1       8.797   4.118  23.875  0.00  0.00    +0.179 C 
ATOM     18  C   UNL     1      10.248   3.623  23.923  0.00  0.00    +0.174 C 
ATOM     19  C   UNL     1      10.334   2.125  23.603  0.00  0.00    +0.149 C 
ATOM     20  C   UNL     1      10.054   1.754  22.141  0.00  0.00    +0.041 C 
ATOM     21  O   UNL     1       9.545   1.372  24.527  0.00  0.00    -0.343 OA
BRANCH  18  22
ATOM     22  O   UNL     1      11.071   4.402  23.054  0.00  0.00    -0.387 OA
ATOM     23  H   UNL     1      10.541   5.185  22.804  0.00  0.00    +0.210 HD
ENDBRANCH  18  22
BRANCH  17  24
ATOM     24  O   UNL     1       8.347   4.168  22.514  0.00  0.00    -0.386 OA
ATOM     25  H   UNL     1       8.073   5.071  22.280  0.00  0.00    +0.210 HD
ENDBRANCH  17  24
BRANCH  16  26
ATOM     26  O   UNL     1       8.221   3.668  26.172  0.00  0.00    -0.384 OA
ATOM     27  H   UNL     1       7.520   3.315  26.748  0.00  0.00    +0.210 HD
ENDBRANCH  16  26
ENDBRANCH  14  15
ENDBRANCH   2  14
BRANCH   1  28
ATOM     28  O   UNL     1       6.215  -1.344  24.100  0.00  0.00    -0.341 OA
BRANCH  28  30
ATOM     29  C   UNL     1       7.236  -3.346  25.186  0.00  0.00    +0.144 C 
ATOM     30  C   UNL     1       6.326  -2.798  24.022  0.00  0.00    +0.174 C 
ATOM     31  C   UNL     1       6.877  -3.332  22.676  0.00  0.00    +0.176 C 
ATOM     32  C   UNL     1       8.375  -3.066  22.473  0.00  0.00    +0.178 C 
ATOM     33  O   UNL     1       9.159  -3.471  23.605  0.00  0.00    -0.342 OA
ATOM     34  C   UNL     1       8.719  -2.991  24.875  0.00  0.00    +0.267 C 
BRANCH  34  35
ATOM     35  O   UNL     1       9.013  -1.601  25.045  0.00  0.00    -0.366 OA
ATOM     36  H   UNL     1       8.207  -1.100  24.876  0.00  0.00    +0.213 HD
ENDBRANCH  34  35
BRANCH  31  37
ATOM     37  O   UNL     1       6.658  -4.758  22.598  0.00  0.00    -0.387 OA
ATOM     38  H   UNL     1       6.011  -4.901  21.872  0.00  0.00    +0.210 HD
ENDBRANCH  31  37
BRANCH  29  39
ATOM     39  N   UNL     1       7.011  -4.816  25.369  0.00  0.00    -0.282 NA
ATOM     40  H   UNL     1       6.221  -5.103  24.789  0.00  0.00    +0.125 HD
BRANCH  39  42
ATOM     41  C   UNL     1       6.124  -4.090  27.540  0.00  0.00    +0.055 C 
ATOM     42  C   UNL     1       6.702  -5.247  26.724  0.00  0.00    +0.180 C 
BRANCH  42  43
ATOM     43  O   UNL     1       7.888  -5.656  27.361  0.00  0.00    -0.378 OA
ATOM     44  H   UNL     1       8.575  -5.014  27.129  0.00  0.00    +0.211 HD
ENDBRANCH  42  43
ENDBRANCH  39  42
ENDBRANCH  29  39
BRANCH  32  45
ATOM     45  C   UNL     1       8.725  -1.636  22.047  0.00  0.00    +0.190 C 
BRANCH  45  46
ATOM     46  O   UNL     1      10.027  -1.635  21.453  0.00  0.00    -0.392 OA
ATOM     47  H   UNL     1      10.516  -2.358  21.896  0.00  0.00    +0.210 HD
ENDBRANCH  45  46
ENDBRANCH  32  45
ENDBRANCH  28  30
ENDBRANCH   1  28
TORSDOF 18
ENDMDL
MODEL 4
REMARK VINA RESULT:      -6.0      2.605      5.175
REMARK  Name = 
REMARK  20 active torsions:
REMARK  status: ('A' for Active; 'I' for Inactive)
REMARK    1  A    between atoms: C_1  and  C_2
REMARK    2  A    between atoms: C_2  and  O_4
REMARK    3  A    between atoms: C_2  and  N_5
REMARK    4  A    between atoms: N_5  and  C_6
REMARK    5  A    between atoms: C_8  and  O_10
REMARK    6  A    between atoms: C_12  and  C_14
REMARK    7  A    between atoms: C_14  and  O_15
REMARK    8  A    between atoms: C_16  and  O_18
REMARK    9  A    between atoms: C_19  and  O_21
REMARK   10  A    between atoms: O_21  and  C_22
REMARK   11  A    between atoms: C_25  and  C_27
REMARK   12  A    between atoms: C_27  and  O_28
REMARK   13  A    between atoms: C_29  and  O_31
REMARK   14  A    between atoms: C_32  and  O_34
REMARK   15  A    between atoms: C_35  and  O_37
REMARK   16  A    between atoms: O_37  and  C_38
REMARK   17  A    between atoms: C_41  and  C_43
REMARK   18  A    between atoms: C_44  and  O_46
REMARK   19  A    between atoms: C_47  and  O_49
REMARK   20  A    between atoms: C_50  and  O_52
REMARK                            x       y       z     vdW  Elec       q    Type
REMARK                         _______ _______ _______ _____ _____    ______ ____
ROOT
ATOM      1  C   UNL     1       6.677  -2.316  26.039  0.00  0.00    +0.283 C 
ATOM      2  C   UNL     1       8.006  -2.420  25.167  0.00  0.00    +0.208 C 
ATOM      3  C   UNL     1       8.416  -3.905  24.923  0.00  0.00    +0.179 C 
ATOM      4  C   UNL     1       8.210  -4.820  26.136  0.00  0.00    +0.177 C 
ATOM      5  C   UNL     1       6.778  -4.624  26.627  0.00  0.00    +0.178 C 
ATOM      6  O   UNL     1       6.655  -3.280  27.100  0.00  0.00    -0.341 OA
ENDROOT
BRANCH   4   7
ATOM      7  O   UNL     1       9.199  -4.504  27.121  0.00  0.00    -0.386 OA
ATOM      8  H   UNL     1       8.843  -4.663  28.011  0.00  0.00    +0.210 HD
ENDBRANCH   4   7
BRANCH   3   9
ATOM      9  O   UNL     1       9.771  -4.014  24.447  0.00  0.00    -0.386 OA
ATOM     10  H   UNL     1       9.836  -3.533  23.601  0.00  0.00    +0.210 HD
ENDBRANCH   3   9
BRANCH   5  11
ATOM     11  C   UNL     1       6.418  -5.603  27.747  0.00  0.00    +0.190 C 
BRANCH  11  12
ATOM     12  O   UNL     1       7.558  -6.367  28.125  0.00  0.00    -0.392 OA
ATOM     13  H   UNL     1       7.250  -7.275  28.299  0.00  0.00    +0.210 HD
ENDBRANCH  11  12
ENDBRANCH   5  11
BRANCH   2  14
ATOM     14  O   UNL     1       7.755  -1.809  23.865  0.00  0.00    -0.338 OA
BRANCH  14  15
ATOM     15  C   UNL     1       8.612  -0.694  23.529  0.00  0.00    +0.282 C 
ATOM     16  C   UNL     1       7.984   0.088  22.323  0.00  0.00    +0.201 C 
ATOM     17  C   UNL     1       8.660   1.453  22.101  0.00  0.00    +0.179 C 
ATOM     18  C   UNL     1       8.767   2.198  23.437  0.00  0.00    +0.174 C 
ATOM     19  C   UNL     1       9.498   1.351  24.488  0.00  0.00    +0.149 C 
ATOM     20  C   UNL     1      11.002   1.171  24.249  0.00  0.00    +0.041 C 
ATOM     21  O   UNL     1       8.816   0.111  24.690  0.00  0.00    -0.343 OA
BRANCH  18  22
ATOM     22  O   UNL     1       9.388   3.470  23.252  0.00  0.00    -0.387 OA
ATOM     23  H   UNL     1       9.123   3.777  22.363  0.00  0.00    +0.210 HD
ENDBRANCH  18  22
BRANCH  17  24
ATOM     24  O   UNL     1       9.947   1.401  21.471  0.00  0.00    -0.386 OA
ATOM     25  H   UNL     1      10.334   0.513  21.563  0.00  0.00    +0.210 HD
ENDBRANCH  17  24
BRANCH  16  26
ATOM     26  O   UNL     1       6.577   0.315  22.526  0.00  0.00    -0.384 OA
ATOM     27  H   UNL     1       6.471   0.837  23.340  0.00  0.00    +0.210 HD
ENDBRANCH  16  26
ENDBRANCH  14  15
ENDBRANCH   2  14
BRANCH   1  28
ATOM     28  O   UNL     1       6.493  -0.998  26.647  0.00  0.00    -0.341 OA
BRANCH  28  30
ATOM     29  C   UNL     1       5.716   1.050  25.453  0.00  0.00    +0.144 C 
ATOM     30  C   UNL     1       5.307  -0.289  26.177  0.00  0.00    +0.174 C 
ATOM     31  C   UNL     1       4.275   0.047  27.282  0.00  0.00    +0.176 C 
ATOM     32  C   UNL     1       4.734   1.157  28.238  0.00  0.00    +0.178 C 
ATOM     33  O   UNL     1       5.210   2.316  27.540  0.00  0.00    -0.342 OA
ATOM     34  C   UNL     1       6.183   2.079  26.524  0.00  0.00    +0.267 C 
BRANCH  34  35
ATOM     35  O   UNL     1       7.464   1.769  27.081  0.00  0.00    -0.366 OA
ATOM     36  H   UNL     1       8.055   1.523  26.359  0.00  0.00    +0.213 HD
ENDBRANCH  34  35
BRANCH  31  37
ATOM     37  O   UNL     1       3.034   0.463  26.672  0.00  0.00    -0.387 OA
ATOM     38  H   UNL     1       2.608   1.085  27.302  0.00  0.00    +0.210 HD
ENDBRANCH  31  37
BRANCH  29  39
ATOM     39  N   UNL     1       4.579   1.553  24.615  0.00  0.00    -0.282 NA
ATOM     40  H   UNL     1       4.419   0.896  23.849  0.00  0.00    +0.125 HD
BRANCH  39  42
ATOM     41  C   UNL     1       3.525   3.726  24.176  0.00  0.00    +0.055 C 
ATOM     42  C   UNL     1       4.772   2.858  24.001  0.00  0.00    +0.180 C 
BRANCH  42  43
ATOM     43  O   UNL     1       4.976   2.693  22.619  0.00  0.00    -0.378 OA
ATOM     44  H   UNL     1       4.126   2.849  22.182  0.00  0.00    +0.211 HD
ENDBRANCH  42  43
ENDBRANCH  39  42
ENDBRANCH  29  39
BRANCH  32  45
ATOM     45  C   UNL     1       5.735   0.713  29.310  0.00  0.00    +0.190 C 
BRANCH  45  46
ATOM     46  O   UNL     1       6.305   1.874  29.922  0.00  0.00    -0.392 OA
ATOM     47  H   UNL     1       5.564   2.316  30.384  0.00  0.00    +0.210 HD
ENDBRANCH  45  46
ENDBRANCH  32  45
ENDBRANCH  28  30
ENDBRANCH   1  28
TORSDOF 18
ENDMDL
MODEL 5
REMARK VINA RESULT:      -5.9      2.614      5.016
REMARK  Name = 
REMARK  20 active torsions:
REMARK  status: ('A' for Active; 'I' for Inactive)
REMARK    1  A    between atoms: C_1  and  C_2
REMARK    2  A    between atoms: C_2  and  O_4
REMARK    3  A    between atoms: C_2  and  N_5
REMARK    4  A    between atoms: N_5  and  C_6
REMARK    5  A    between atoms: C_8  and  O_10
REMARK    6  A    between atoms: C_12  and  C_14
REMARK    7  A    between atoms: C_14  and  O_15
REMARK    8  A    between atoms: C_16  and  O_18
REMARK    9  A    between atoms: C_19  and  O_21
REMARK   10  A    between atoms: O_21  and  C_22
REMARK   11  A    between atoms: C_25  and  C_27
REMARK   12  A    between atoms: C_27  and  O_28
REMARK   13  A    between atoms: C_29  and  O_31
REMARK   14  A    between atoms: C_32  and  O_34
REMARK   15  A    between atoms: C_35  and  O_37
REMARK   16  A    between atoms: O_37  and  C_38
REMARK   17  A    between atoms: C_41  and  C_43
REMARK   18  A    between atoms: C_44  and  O_46
REMARK   19  A    between atoms: C_47  and  O_49
REMARK   20  A    between atoms: C_50  and  O_52
REMARK                            x       y       z     vdW  Elec       q    Type
REMARK                         _______ _______ _______ _____ _____    ______ ____
ROOT
ATOM      1  C   UNL     1       5.892   0.573  24.473  0.00  0.00    +0.283 C 
ATOM      2  C   UNL     1       5.862  -0.703  25.426  0.00  0.00    +0.208 C 
ATOM      3  C   UNL     1       4.800  -0.545  26.558  0.00  0.00    +0.179 C 
ATOM      4  C   UNL     1       4.717   0.868  27.148  0.00  0.00    +0.177 C 
ATOM      5  C   UNL     1       4.565   1.847  25.987  0.00  0.00    +0.178 C 
ATOM      6  O   UNL     1       5.763   1.797  25.208  0.00  0.00    -0.341 OA
ENDROOT
BRANCH   4   7
ATOM      7  O   UNL     1       5.885   1.103  27.942  0.00  0.00    -0.386 OA
ATOM      8  H   UNL     1       6.430   1.794  27.534  0.00  0.00    +0.210 HD
ENDBRANCH   4   7
BRANCH   3   9
ATOM      9  O   UNL     1       4.994  -1.509  27.611  0.00  0.00    -0.386 OA
ATOM     10  H   UNL     1       5.760  -2.064  27.377  0.00  0.00    +0.210 HD
ENDBRANCH   3   9
BRANCH   5  11
ATOM     11  C   UNL     1       4.322   3.279  26.473  0.00  0.00    +0.190 C 
BRANCH  11  12
ATOM     12  O   UNL     1       5.551   3.997  26.536  0.00  0.00    -0.392 OA
ATOM     13  H   UNL     1       5.794   4.066  27.478  0.00  0.00    +0.210 HD
ENDBRANCH  11  12
ENDBRANCH   5  11
BRANCH   2  14
ATOM     14  O   UNL     1       5.491  -1.868  24.630  0.00  0.00    -0.338 OA
BRANCH  14  15
ATOM     15  C   UNL     1       6.360  -3.015  24.770  0.00  0.00    +0.282 C 
ATOM     16  C   UNL     1       7.081  -3.280  23.402  0.00  0.00    +0.201 C 
ATOM     17  C   UNL     1       8.244  -4.278  23.542  0.00  0.00    +0.179 C 
ATOM     18  C   UNL     1       9.127  -3.877  24.729  0.00  0.00    +0.174 C 
ATOM     19  C   UNL     1       8.303  -3.759  26.019  0.00  0.00    +0.149 C 
ATOM     20  C   UNL     1       7.801  -5.089  26.596  0.00  0.00    +0.041 C 
ATOM     21  O   UNL     1       7.259  -2.796  25.857  0.00  0.00    -0.343 OA
BRANCH  18  22
ATOM     22  O   UNL     1      10.216  -4.789  24.874  0.00  0.00    -0.387 OA
ATOM     23  H   UNL     1       9.902  -5.646  24.524  0.00  0.00    +0.210 HD
ENDBRANCH  18  22
BRANCH  17  24
ATOM     24  O   UNL     1       7.855  -5.653  23.669  0.00  0.00    -0.386 OA
ATOM     25  H   UNL     1       8.428  -6.110  24.309  0.00  0.00    +0.210 HD
ENDBRANCH  17  24
BRANCH  16  26
ATOM     26  O   UNL     1       7.604  -2.061  22.844  0.00  0.00    -0.384 OA
ATOM     27  H   UNL     1       8.538  -2.212  22.615  0.00  0.00    +0.210 HD
ENDBRANCH  16  26
ENDBRANCH  14  15
ENDBRANCH   2  14
BRANCH   1  28
ATOM     28  O   UNL     1       7.121   0.669  23.685  0.00  0.00    -0.341 OA
BRANCH  28  30
ATOM     29  C   UNL     1       8.038   2.483  22.238  0.00  0.00    +0.144 C 
ATOM     30  C   UNL     1       7.738   1.992  23.705  0.00  0.00    +0.174 C 
ATOM     31  C   UNL     1       9.047   2.081  24.530  0.00  0.00    +0.176 C 
ATOM     32  C   UNL     1      10.242   1.379  23.870  0.00  0.00    +0.178 C 
ATOM     33  O   UNL     1      10.411   1.764  22.498  0.00  0.00    -0.342 OA
ATOM     34  C   UNL     1       9.248   1.680  21.676  0.00  0.00    +0.267 C 
BRANCH  34  35
ATOM     35  O   UNL     1       8.923   0.324  21.356  0.00  0.00    -0.366 OA
ATOM     36  H   UNL     1       8.833  -0.166  22.182  0.00  0.00    +0.213 HD
ENDBRANCH  34  35
BRANCH  31  37
ATOM     37  O   UNL     1       9.395   3.468  24.731  0.00  0.00    -0.387 OA
ATOM     38  H   UNL     1      10.361   3.540  24.570  0.00  0.00    +0.210 HD
ENDBRANCH  31  37
BRANCH  29  39
ATOM     39  N   UNL     1       8.262   3.965  22.225  0.00  0.00    -0.282 NA
ATOM     40  H   UNL     1       8.925   4.204  22.966  0.00  0.00    +0.125 HD
BRANCH  39  42
ATOM     41  C   UNL     1       7.275   6.181  21.849  0.00  0.00    +0.055 C 
ATOM     42  C   UNL     1       7.084   4.788  22.450  0.00  0.00    +0.180 C 
BRANCH  42  43
ATOM     43  O   UNL     1       6.892   4.952  23.834  0.00  0.00    -0.378 OA
ATOM     44  H   UNL     1       6.303   4.242  24.129  0.00  0.00    +0.211 HD
ENDBRANCH  42  43
ENDBRANCH  39  42
ENDBRANCH  29  39
BRANCH  32  45
ATOM     45  C   UNL     1      10.256  -0.147  24.016  0.00  0.00    +0.190 C 
BRANCH  45  46
ATOM     46  O   UNL     1       9.334  -0.523  25.044  0.00  0.00    -0.392 OA
ATOM     47  H   UNL     1       9.760  -1.268  25.515  0.00  0.00    +0.210 HD
ENDBRANCH  45  46
ENDBRANCH  32  45
ENDBRANCH  28  30
ENDBRANCH   1  28
TORSDOF 18
ENDMDL
MODEL 6
REMARK VINA RESULT:      -5.8      2.285      6.034
REMARK  Name = 
REMARK  20 active torsions:
REMARK  status: ('A' for Active; 'I' for Inactive)
REMARK    1  A    between atoms: C_1  and  C_2
REMARK    2  A    between atoms: C_2  and  O_4
REMARK    3  A    between atoms: C_2  and  N_5
REMARK    4  A    between atoms: N_5  and  C_6
REMARK    5  A    between atoms: C_8  and  O_10
REMARK    6  A    between atoms: C_12  and  C_14
REMARK    7  A    between atoms: C_14  and  O_15
REMARK    8  A    between atoms: C_16  and  O_18
REMARK    9  A    between atoms: C_19  and  O_21
REMARK   10  A    between atoms: O_21  and  C_22
REMARK   11  A    between atoms: C_25  and  C_27
REMARK   12  A    between atoms: C_27  and  O_28
REMARK   13  A    between atoms: C_29  and  O_31
REMARK   14  A    between atoms: C_32  and  O_34
REMARK   15  A    between atoms: C_35  and  O_37
REMARK   16  A    between atoms: O_37  and  C_38
REMARK   17  A    between atoms: C_41  and  C_43
REMARK   18  A    between atoms: C_44  and  O_46
REMARK   19  A    between atoms: C_47  and  O_49
REMARK   20  A    between atoms: C_50  and  O_52
REMARK                            x       y       z     vdW  Elec       q    Type
REMARK                         _______ _______ _______ _____ _____    ______ ____
ROOT
ATOM      1  C   UNL     1       6.524  -2.130  26.361  0.00  0.00    +0.283 C 
ATOM      2  C   UNL     1       6.625  -0.549  26.186  0.00  0.00    +0.208 C 
ATOM      3  C   UNL     1       5.724   0.199  27.215  0.00  0.00    +0.179 C 
ATOM      4  C   UNL     1       4.366  -0.470  27.462  0.00  0.00    +0.177 C 
ATOM      5  C   UNL     1       4.624  -1.938  27.787  0.00  0.00    +0.178 C 
ATOM      6  O   UNL     1       5.180  -2.555  26.623  0.00  0.00    -0.341 OA
ENDROOT
BRANCH   4   7
ATOM      7  O   UNL     1       3.543  -0.277  26.306  0.00  0.00    -0.386 OA
ATOM      8  H   UNL     1       2.607  -0.359  26.548  0.00  0.00    +0.210 HD
ENDBRANCH   4   7
BRANCH   3   9
ATOM      9  O   UNL     1       5.535   1.581  26.855  0.00  0.00    -0.386 OA
ATOM     10  H   UNL     1       4.735   1.906  27.306  0.00  0.00    +0.210 HD
ENDBRANCH   3   9
BRANCH   5  11
ATOM     11  C   UNL     1       3.342  -2.668  28.198  0.00  0.00    +0.190 C 
BRANCH  11  12
ATOM     12  O   UNL     1       2.607  -3.069  27.046  0.00  0.00    -0.392 OA
ATOM     13  H   UNL     1       2.112  -2.288  26.736  0.00  0.00    +0.210 HD
ENDBRANCH  11  12
ENDBRANCH   5  11
BRANCH   2  14
ATOM     14  O   UNL     1       8.006  -0.144  26.429  0.00  0.00    -0.338 OA
BRANCH  14  15
ATOM     15  C   UNL     1       8.551   0.799  25.478  0.00  0.00    +0.282 C 
ATOM     16  C   UNL     1       9.880   0.215  24.884  0.00  0.00    +0.201 C 
ATOM     17  C   UNL     1      10.359   1.002  23.650  0.00  0.00    +0.179 C 
ATOM     18  C   UNL     1       9.189   1.201  22.680  0.00  0.00    +0.174 C 
ATOM     19  C   UNL     1       8.000   1.877  23.376  0.00  0.00    +0.149 C 
ATOM     20  C   UNL     1       8.207   3.355  23.730  0.00  0.00    +0.041 C 
ATOM     21  O   UNL     1       7.564   1.096  24.490  0.00  0.00    -0.343 OA
BRANCH  18  22
ATOM     22  O   UNL     1       9.614   1.926  21.525  0.00  0.00    -0.387 OA
ATOM     23  H   UNL     1       9.861   2.818  21.839  0.00  0.00    +0.210 HD
ENDBRANCH  18  22
BRANCH  17  24
ATOM     24  O   UNL     1      10.974   2.266  23.934  0.00  0.00    -0.386 OA
ATOM     25  H   UNL     1      10.396   2.996  23.650  0.00  0.00    +0.210 HD
ENDBRANCH  17  24
BRANCH  16  26
ATOM     26  O   UNL     1       9.718  -1.162  24.499  0.00  0.00    -0.384 OA
ATOM     27  H   UNL     1       9.171  -1.600  25.174  0.00  0.00    +0.210 HD
ENDBRANCH  16  26
ENDBRANCH  14  15
ENDBRANCH   2  14
BRANCH   1  28
ATOM     28  O   UNL     1       6.990  -2.866  25.186  0.00  0.00    -0.341 OA
BRANCH  28  30
ATOM     29  C   UNL     1       6.448  -5.233  24.610  0.00  0.00    +0.144 C 
ATOM     30  C   UNL     1       5.977  -3.729  24.585  0.00  0.00    +0.174 C 
ATOM     31  C   UNL     1       5.595  -3.358  23.130  0.00  0.00    +0.176 C 
ATOM     32  C   UNL     1       6.687  -3.686  22.103  0.00  0.00    +0.178 C 
ATOM     33  O   UNL     1       7.174  -5.029  22.233  0.00  0.00    -0.342 OA
ATOM     34  C   UNL     1       7.568  -5.427  23.546  0.00  0.00    +0.267 C 
BRANCH  34  35
ATOM     35  O   UNL     1       8.814  -4.834  23.926  0.00  0.00    -0.366 OA
ATOM     36  H   UNL     1       9.431  -4.933  23.190  0.00  0.00    +0.213 HD
ENDBRANCH  34  35
BRANCH  31  37
ATOM     37  O   UNL     1       4.394  -4.067  22.754  0.00  0.00    -0.387 OA
ATOM     38  H   UNL     1       4.682  -4.942  22.412  0.00  0.00    +0.210 HD
ENDBRANCH  31  37
BRANCH  29  39
ATOM     39  N   UNL     1       5.277  -6.145  24.400  0.00  0.00    -0.282 NA
ATOM     40  H   UNL     1       4.637  -5.710  23.733  0.00  0.00    +0.125 HD
BRANCH  39  42
ATOM     41  C   UNL     1       5.364  -6.405  26.840  0.00  0.00    +0.055 C 
ATOM     42  C   UNL     1       4.490  -6.449  25.585  0.00  0.00    +0.180 C 
BRANCH  42  43
ATOM     43  O   UNL     1       3.979  -7.755  25.478  0.00  0.00    -0.378 OA
ATOM     44  H   UNL     1       3.989  -7.991  24.538  0.00  0.00    +0.211 HD
ENDBRANCH  42  43
ENDBRANCH  39  42
ENDBRANCH  29  39
BRANCH  32  45
ATOM     45  C   UNL     1       7.846  -2.685  22.050  0.00  0.00    +0.190 C 
BRANCH  45  46
ATOM     46  O   UNL     1       7.448  -1.479  22.710  0.00  0.00    -0.392 OA
ATOM     47  H   UNL     1       8.259  -0.935  22.768  0.00  0.00    +0.210 HD
ENDBRANCH  45  46
ENDBRANCH  32  45
ENDBRANCH  28  30
ENDBRANCH   1  28
TORSDOF 18
ENDMDL
MODEL 7
REMARK VINA RESULT:      -5.7      2.345      4.928
REMARK  Name = 
REMARK  20 active torsions:
REMARK  status: ('A' for Active; 'I' for Inactive)
REMARK    1  A    between atoms: C_1  and  C_2
REMARK    2  A    between atoms: C_2  and  O_4
REMARK    3  A    between atoms: C_2  and  N_5
REMARK    4  A    between atoms: N_5  and  C_6
REMARK    5  A    between atoms: C_8  and  O_10
REMARK    6  A    between atoms: C_12  and  C_14
REMARK    7  A    between atoms: C_14  and  O_15
REMARK    8  A    between atoms: C_16  and  O_18
REMARK    9  A    between atoms: C_19  and  O_21
REMARK   10  A    between atoms: O_21  and  C_22
REMARK   11  A    between atoms: C_25  and  C_27
REMARK   12  A    between atoms: C_27  and  O_28
REMARK   13  A    between atoms: C_29  and  O_31
REMARK   14  A    between atoms: C_32  and  O_34
REMARK   15  A    between atoms: C_35  and  O_37
REMARK   16  A    between atoms: O_37  and  C_38
REMARK   17  A    between atoms: C_41  and  C_43
REMARK   18  A    between atoms: C_44  and  O_46
REMARK   19  A    between atoms: C_47  and  O_49
REMARK   20  A    between atoms: C_50  and  O_52
REMARK                            x       y       z     vdW  Elec       q    Type
REMARK                         _______ _______ _______ _____ _____    ______ ____
ROOT
ATOM      1  C   UNL     1       6.030   0.767  24.747  0.00  0.00    +0.283 C 
ATOM      2  C   UNL     1       5.866  -0.642  25.471  0.00  0.00    +0.208 C 
ATOM      3  C   UNL     1       5.077  -0.508  26.810  0.00  0.00    +0.179 C 
ATOM      4  C   UNL     1       5.426   0.747  27.621  0.00  0.00    +0.177 C 
ATOM      5  C   UNL     1       5.310   1.949  26.687  0.00  0.00    +0.178 C 
ATOM      6  O   UNL     1       6.314   1.820  25.677  0.00  0.00    -0.341 OA
ENDROOT
BRANCH   4   7
ATOM      7  O   UNL     1       6.733   0.583  28.180  0.00  0.00    -0.386 OA
ATOM      8  H   UNL     1       6.712   0.769  29.132  0.00  0.00    +0.210 HD
ENDBRANCH   4   7
BRANCH   3   9
ATOM      9  O   UNL     1       5.218  -1.682  27.633  0.00  0.00    -0.386 OA
ATOM     10  H   UNL     1       6.127  -1.700  27.984  0.00  0.00    +0.210 HD
ENDBRANCH   3   9
BRANCH   5  11
ATOM     11  C   UNL     1       5.492   3.273  27.434  0.00  0.00    +0.190 C 
BRANCH  11  12
ATOM     12  O   UNL     1       6.868   3.491  27.729  0.00  0.00    -0.392 OA
ATOM     13  H   UNL     1       6.923   3.742  28.670  0.00  0.00    +0.210 HD
ENDBRANCH  11  12
ENDBRANCH   5  11
BRANCH   2  14
ATOM     14  O   UNL     1       5.105  -1.528  24.596  0.00  0.00    -0.338 OA
BRANCH  14  15
ATOM     15  C   UNL     1       5.593  -2.887  24.517  0.00  0.00    +0.282 C 
ATOM     16  C   UNL     1       5.235  -3.477  23.108  0.00  0.00    +0.201 C 
ATOM     17  C   UNL     1       5.978  -4.795  22.825  0.00  0.00    +0.179 C 
ATOM     18  C   UNL     1       7.466  -4.629  23.155  0.00  0.00    +0.174 C 
ATOM     19  C   UNL     1       7.664  -4.148  24.599  0.00  0.00    +0.149 C 
ATOM     20  C   UNL     1       7.344  -5.186  25.681  0.00  0.00    +0.041 C 
ATOM     21  O   UNL     1       6.990  -2.905  24.806  0.00  0.00    -0.343 OA
BRANCH  18  22
ATOM     22  O   UNL     1       8.175  -5.841  22.895  0.00  0.00    -0.387 OA
ATOM     23  H   UNL     1       8.555  -5.748  21.999  0.00  0.00    +0.210 HD
ENDBRANCH  18  22
BRANCH  17  24
ATOM     24  O   UNL     1       5.457  -5.946  23.503  0.00  0.00    -0.386 OA
ATOM     25  H   UNL     1       4.580  -6.179  23.152  0.00  0.00    +0.210 HD
ENDBRANCH  17  24
BRANCH  16  26
ATOM     26  O   UNL     1       5.559  -2.549  22.057  0.00  0.00    -0.384 OA
ATOM     27  H   UNL     1       4.774  -2.451  21.490  0.00  0.00    +0.210 HD
ENDBRANCH  16  26
ENDBRANCH  14  15
ENDBRANCH   2  14
BRANCH   1  28
ATOM     28  O   UNL     1       7.096   0.775  23.745  0.00  0.00    -0.341 OA
BRANCH  28  30
ATOM     29  C   UNL     1       8.894   2.426  23.231  0.00  0.00    +0.144 C 
ATOM     30  C   UNL     1       8.358   1.328  24.226  0.00  0.00    +0.174 C 
ATOM     31  C   UNL     1       9.478   0.280  24.450  0.00  0.00    +0.176 C 
ATOM     32  C   UNL     1      10.060  -0.289  23.149  0.00  0.00    +0.178 C 
ATOM     33  O   UNL     1      10.428   0.740  22.219  0.00  0.00    -0.342 OA
ATOM     34  C   UNL     1       9.431   1.724  21.948  0.00  0.00    +0.267 C 
BRANCH  34  35
ATOM     35  O   UNL     1       8.390   1.207  21.113  0.00  0.00    -0.366 OA
ATOM     36  H   UNL     1       8.782   0.945  20.272  0.00  0.00    +0.213 HD
ENDBRANCH  34  35
BRANCH  31  37
ATOM     37  O   UNL     1      10.556   0.881  25.200  0.00  0.00    -0.387 OA
ATOM     38  H   UNL     1      10.963   1.556  24.613  0.00  0.00    +0.210 HD
ENDBRANCH  31  37
BRANCH  29  39
ATOM     39  N   UNL     1       9.926   3.277  23.907  0.00  0.00    -0.282 NA
ATOM     40  H   UNL     1      10.043   2.951  24.868  0.00  0.00    +0.125 HD
BRANCH  39  42
ATOM     41  C   UNL     1       8.226   4.984  23.433  0.00  0.00    +0.055 C 
ATOM     42  C   UNL     1       9.622   4.697  23.990  0.00  0.00    +0.180 C 
BRANCH  42  43
ATOM     43  O   UNL     1      10.541   5.414  23.203  0.00  0.00    -0.378 OA
ATOM     44  H   UNL     1      11.161   5.847  23.808  0.00  0.00    +0.211 HD
ENDBRANCH  42  43
ENDBRANCH  39  42
ENDBRANCH  29  39
BRANCH  32  45
ATOM     45  C   UNL     1       9.198  -1.359  22.469  0.00  0.00    +0.190 C 
BRANCH  45  46
ATOM     46  O   UNL     1       9.726  -1.621  21.165  0.00  0.00    -0.392 OA
ATOM     47  H   UNL     1       9.918  -2.581  21.150  0.00  0.00    +0.210 HD
ENDBRANCH  45  46
ENDBRANCH  32  45
ENDBRANCH  28  30
ENDBRANCH   1  28
TORSDOF 18
ENDMDL
MODEL 8
REMARK VINA RESULT:      -5.7      2.645      6.144
REMARK  Name = 
REMARK  20 active torsions:
REMARK  status: ('A' for Active; 'I' for Inactive)
REMARK    1  A    between atoms: C_1  and  C_2
REMARK    2  A    between atoms: C_2  and  O_4
REMARK    3  A    between atoms: C_2  and  N_5
REMARK    4  A    between atoms: N_5  and  C_6
REMARK    5  A    between atoms: C_8  and  O_10
REMARK    6  A    between atoms: C_12  and  C_14
REMARK    7  A    between atoms: C_14  and  O_15
REMARK    8  A    between atoms: C_16  and  O_18
REMARK    9  A    between atoms: C_19  and  O_21
REMARK   10  A    between atoms: O_21  and  C_22
REMARK   11  A    between atoms: C_25  and  C_27
REMARK   12  A    between atoms: C_27  and  O_28
REMARK   13  A    between atoms: C_29  and  O_31
REMARK   14  A    between atoms: C_32  and  O_34
REMARK   15  A    between atoms: C_35  and  O_37
REMARK   16  A    between atoms: O_37  and  C_38
REMARK   17  A    between atoms: C_41  and  C_43
REMARK   18  A    between atoms: C_44  and  O_46
REMARK   19  A    between atoms: C_47  and  O_49
REMARK   20  A    between atoms: C_50  and  O_52
REMARK                            x       y       z     vdW  Elec       q    Type
REMARK                         _______ _______ _______ _____ _____    ______ ____
ROOT
ATOM      1  C   UNL     1       6.624  -0.631  25.777  0.00  0.00    +0.283 C 
ATOM      2  C   UNL     1       5.291   0.233  25.899  0.00  0.00    +0.208 C 
ATOM      3  C   UNL     1       4.268  -0.430  26.873  0.00  0.00    +0.179 C 
ATOM      4  C   UNL     1       4.197  -1.958  26.763  0.00  0.00    +0.177 C 
ATOM      5  C   UNL     1       5.621  -2.497  26.868  0.00  0.00    +0.178 C 
ATOM      6  O   UNL     1       6.351  -2.037  25.727  0.00  0.00    -0.341 OA
ENDROOT
BRANCH   4   7
ATOM      7  O   UNL     1       3.546  -2.300  25.535  0.00  0.00    -0.386 OA
ATOM      8  H   UNL     1       2.687  -1.852  25.479  0.00  0.00    +0.210 HD
ENDBRANCH   4   7
BRANCH   3   9
ATOM      9  O   UNL     1       2.951   0.137  26.731  0.00  0.00    -0.386 OA
ATOM     10  H   UNL     1       2.318  -0.593  26.606  0.00  0.00    +0.210 HD
ENDBRANCH   3   9
BRANCH   5  11
ATOM     11  C   UNL     1       5.651  -4.027  26.920  0.00  0.00    +0.190 C 
BRANCH  11  12
ATOM     12  O   UNL     1       6.737  -4.475  27.725  0.00  0.00    -0.392 OA
ATOM     13  H   UNL     1       7.474  -3.851  27.585  0.00  0.00    +0.210 HD
ENDBRANCH  11  12
ENDBRANCH   5  11
BRANCH   2  14
ATOM     14  O   UNL     1       5.635   1.543  26.442  0.00  0.00    -0.338 OA
BRANCH  14  15
ATOM     15  C   UNL     1       5.504   2.649  25.520  0.00  0.00    +0.282 C 
ATOM     16  C   UNL     1       6.872   3.411  25.438  0.00  0.00    +0.201 C 
ATOM     17  C   UNL     1       6.916   4.403  24.261  0.00  0.00    +0.179 C 
ATOM     18  C   UNL     1       6.427   3.708  22.985  0.00  0.00    +0.174 C 
ATOM     19  C   UNL     1       5.031   3.101  23.183  0.00  0.00    +0.149 C 
ATOM     20  C   UNL     1       3.888   4.117  23.297  0.00  0.00    +0.041 C 
ATOM     21  O   UNL     1       5.046   2.160  24.260  0.00  0.00    -0.343 OA
BRANCH  18  22
ATOM     22  O   UNL     1       6.463   4.610  21.879  0.00  0.00    -0.387 OA
ATOM     23  H   UNL     1       7.388   4.918  21.808  0.00  0.00    +0.210 HD
ENDBRANCH  18  22
BRANCH  17  24
ATOM     24  O   UNL     1       6.184   5.619  24.462  0.00  0.00    -0.386 OA
ATOM     25  H   UNL     1       6.465   6.294  23.820  0.00  0.00    +0.210 HD
ENDBRANCH  17  24
BRANCH  16  26
ATOM     26  O   UNL     1       7.972   2.495  25.290  0.00  0.00    -0.384 OA
ATOM     27  H   UNL     1       8.136   2.374  24.338  0.00  0.00    +0.210 HD
ENDBRANCH  16  26
ENDBRANCH  14  15
ENDBRANCH   2  14
BRANCH   1  28
ATOM     28  O   UNL     1       7.413  -0.300  24.590  0.00  0.00    -0.341 OA
BRANCH  28  30
ATOM     29  C   UNL     1       9.438  -1.750  24.434  0.00  0.00    +0.144 C 
ATOM     30  C   UNL     1       7.979  -1.462  23.912  0.00  0.00    +0.174 C 
ATOM     31  C   UNL     1       8.025  -1.348  22.367  0.00  0.00    +0.176 C 
ATOM     32  C   UNL     1       9.078  -0.357  21.852  0.00  0.00    +0.178 C 
ATOM     33  O   UNL     1      10.368  -0.576  22.441  0.00  0.00    -0.342 OA
ATOM     34  C   UNL     1      10.400  -0.666  23.864  0.00  0.00    +0.267 C 
BRANCH  34  35
ATOM     35  O   UNL     1      10.230   0.616  24.478  0.00  0.00    -0.366 OA
ATOM     36  H   UNL     1       9.676   1.154  23.901  0.00  0.00    +0.213 HD
ENDBRANCH  34  35
BRANCH  31  37
ATOM     37  O   UNL     1       8.310  -2.644  21.797  0.00  0.00    -0.387 OA
ATOM     38  H   UNL     1       8.968  -2.497  21.083  0.00  0.00    +0.210 HD
ENDBRANCH  31  37
BRANCH  29  39
ATOM     39  N   UNL     1       9.850  -3.145  24.075  0.00  0.00    -0.282 NA
ATOM     40  H   UNL     1       9.434  -3.389  23.174  0.00  0.00    +0.125 HD
BRANCH  39  42
ATOM     41  C   UNL     1       8.305  -5.021  24.425  0.00  0.00    +0.055 C 
ATOM     42  C   UNL     1       9.447  -4.186  25.008  0.00  0.00    +0.180 C 
BRANCH  42  43
ATOM     43  O   UNL     1       8.968  -3.589  26.188  0.00  0.00    -0.378 OA
ATOM     44  H   UNL     1       8.749  -2.670  25.976  0.00  0.00    +0.211 HD
ENDBRANCH  42  43
ENDBRANCH  39  42
ENDBRANCH  29  39
BRANCH  32  45
ATOM     45  C   UNL     1       8.677   1.119  21.947  0.00  0.00    +0.190 C 
BRANCH  45  46
ATOM     46  O   UNL     1       9.791   1.929  21.560  0.00  0.00    -0.392 OA
ATOM     47  H   UNL     1      10.291   2.095  22.385  0.00  0.00    +0.210 HD
ENDBRANCH  45  46
ENDBRANCH  32  45
ENDBRANCH  28  30
ENDBRANCH   1  28
TORSDOF 18
ENDMDL
MODEL 9
REMARK VINA RESULT:      -5.6      2.466      5.800
REMARK  Name = 
REMARK  20 active torsions:
REMARK  status: ('A' for Active; 'I' for Inactive)
REMARK    1  A    between atoms: C_1  and  C_2
REMARK    2  A    between atoms: C_2  and  O_4
REMARK    3  A    between atoms: C_2  and  N_5
REMARK    4  A    between atoms: N_5  and  C_6
REMARK    5  A    between atoms: C_8  and  O_10
REMARK    6  A    between atoms: C_12  and  C_14
REMARK    7  A    between atoms: C_14  and  O_15
REMARK    8  A    between atoms: C_16  and  O_18
REMARK    9  A    between atoms: C_19  and  O_21
REMARK   10  A    between atoms: O_21  and  C_22
REMARK   11  A    between atoms: C_25  and  C_27
REMARK   12  A    between atoms: C_27  and  O_28
REMARK   13  A    between atoms: C_29  and  O_31
REMARK   14  A    between atoms: C_32  and  O_34
REMARK   15  A    between atoms: C_35  and  O_37
REMARK   16  A    between atoms: O_37  and  C_38
REMARK   17  A    between atoms: C_41  and  C_43
REMARK   18  A    between atoms: C_44  and  O_46
REMARK   19  A    between atoms: C_47  and  O_49
REMARK   20  A    between atoms: C_50  and  O_52
REMARK                            x       y       z     vdW  Elec       q    Type
REMARK                         _______ _______ _______ _____ _____    ______ ____
ROOT
ATOM      1  C   UNL     1       7.957  -2.077  24.678  0.00  0.00    +0.283 C 
ATOM      2  C   UNL     1       6.537  -2.602  24.181  0.00  0.00    +0.208 C 
ATOM      3  C   UNL     1       6.086  -3.866  24.975  0.00  0.00    +0.179 C 
ATOM      4  C   UNL     1       7.219  -4.856  25.275  0.00  0.00    +0.177 C 
ATOM      5  C   UNL     1       8.361  -4.073  25.916  0.00  0.00    +0.178 C 
ATOM      6  O   UNL     1       8.865  -3.153  24.943  0.00  0.00    -0.341 OA
ENDROOT
BRANCH   4   7
ATOM      7  O   UNL     1       7.590  -5.511  24.058  0.00  0.00    -0.386 OA
ATOM      8  H   UNL     1       7.031  -5.198  23.328  0.00  0.00    +0.210 HD
ENDBRANCH   4   7
BRANCH   3   9
ATOM      9  O   UNL     1       4.997  -4.546  24.322  0.00  0.00    -0.386 OA
ATOM     10  H   UNL     1       5.245  -5.483  24.213  0.00  0.00    +0.210 HD
ENDBRANCH   3   9
BRANCH   5  11
ATOM     11  C   UNL     1       9.488  -4.992  26.394  0.00  0.00    +0.190 C 
BRANCH  11  12
ATOM     12  O   UNL     1      10.209  -5.513  25.282  0.00  0.00    -0.392 OA
ATOM     13  H   UNL     1      10.585  -6.369  25.560  0.00  0.00    +0.210 HD
ENDBRANCH  11  12
ENDBRANCH   5  11
BRANCH   2  14
ATOM     14  O   UNL     1       5.548  -1.555  24.416  0.00  0.00    -0.338 OA
BRANCH  14  15
ATOM     15  C   UNL     1       5.023  -1.490  25.762  0.00  0.00    +0.282 C 
ATOM     16  C   UNL     1       5.056  -0.000  26.252  0.00  0.00    +0.201 C 
ATOM     17  C   UNL     1       4.240   0.206  27.541  0.00  0.00    +0.179 C 
ATOM     18  C   UNL     1       2.861  -0.448  27.386  0.00  0.00    +0.174 C 
ATOM     19  C   UNL     1       2.989  -1.930  27.009  0.00  0.00    +0.149 C 
ATOM     20  C   UNL     1       3.510  -2.845  28.125  0.00  0.00    +0.041 C 
ATOM     21  O   UNL     1       3.720  -2.072  25.789  0.00  0.00    -0.343 OA
BRANCH  18  22
ATOM     22  O   UNL     1       2.085  -0.265  28.571  0.00  0.00    -0.387 OA
ATOM     23  H   UNL     1       2.426   0.546  28.998  0.00  0.00    +0.210 HD
ENDBRANCH  18  22
BRANCH  17  24
ATOM     24  O   UNL     1       4.867  -0.264  28.742  0.00  0.00    -0.386 OA
ATOM     25  H   UNL     1       4.538   0.229  29.512  0.00  0.00    +0.210 HD
ENDBRANCH  17  24
BRANCH  16  26
ATOM     26  O   UNL     1       4.537   0.890  25.248  0.00  0.00    -0.384 OA
ATOM     27  H   UNL     1       4.713   1.803  25.535  0.00  0.00    +0.210 HD
ENDBRANCH  16  26
ENDBRANCH  14  15
ENDBRANCH   2  14
BRANCH   1  28
ATOM     28  O   UNL     1       8.607  -1.189  23.714  0.00  0.00    -0.341 OA
BRANCH  28  30
ATOM     29  C   UNL     1       7.959   0.989  24.746  0.00  0.00    +0.144 C 
ATOM     30  C   UNL     1       9.135   0.039  24.301  0.00  0.00    +0.174 C 
ATOM     31  C   UNL     1      10.087   0.839  23.376  0.00  0.00    +0.176 C 
ATOM     32  C   UNL     1       9.374   1.536  22.209  0.00  0.00    +0.178 C 
ATOM     33  O   UNL     1       8.236   2.296  22.641  0.00  0.00    -0.342 OA
ATOM     34  C   UNL     1       7.305   1.609  23.477  0.00  0.00    +0.267 C 
BRANCH  34  35
ATOM     35  O   UNL     1       6.519   0.673  22.733  0.00  0.00    -0.366 OA
ATOM     36  H   UNL     1       6.161   1.127  21.961  0.00  0.00    +0.213 HD
ENDBRANCH  34  35
BRANCH  31  37
ATOM     37  O   UNL     1      10.776   1.846  24.149  0.00  0.00    -0.387 OA
ATOM     38  H   UNL     1      11.143   1.389  24.938  0.00  0.00    +0.210 HD
ENDBRANCH  31  37
BRANCH  29  39
ATOM     39  N   UNL     1       8.463   2.021  25.709  0.00  0.00    -0.282 NA
ATOM     40  H   UNL     1       8.833   1.547  26.535  0.00  0.00    +0.125 HD
BRANCH  39  42
ATOM     41  C   UNL     1       7.849   4.397  25.771  0.00  0.00    +0.055 C 
ATOM     42  C   UNL     1       7.476   2.975  26.191  0.00  0.00    +0.180 C 
BRANCH  42  43
ATOM     43  O   UNL     1       7.455   2.947  27.597  0.00  0.00    -0.378 OA
ATOM     44  H   UNL     1       7.105   2.083  27.862  0.00  0.00    +0.211 HD
ENDBRANCH  42  43
ENDBRANCH  39  42
ENDBRANCH  29  39
BRANCH  32  45
ATOM     45  C   UNL     1       9.007   0.620  21.037  0.00  0.00    +0.190 C 
BRANCH  45  46
ATOM     46  O   UNL     1       9.752  -0.597  21.147  0.00  0.00    -0.392 OA
ATOM     47  H   UNL     1      10.242  -0.680  20.304  0.00  0.00    +0.210 HD
ENDBRANCH  45  46
ENDBRANCH  32  45
ENDBRANCH  28  30
ENDBRANCH   1  28
TORSDOF 18
ENDMDL
