MODEL 1
REMARK VINA RESULT:      -7.1      0.000      0.000
REMARK  Name = 
REMARK  2 active torsions:
REMARK  status: ('A' for Active; 'I' for Inactive)
REMARK    1  A    between atoms: C_1  and  C_2
REMARK    2  A    between atoms: C_8  and  C_9
REMARK                            x       y       z     vdW  Elec       q    Type
REMARK                         _______ _______ _______ _____ _____    ______ ____
ROOT
ATOM      1  C   UNL     1       3.563  -4.855  26.734  0.00  0.00    +0.088 C 
ATOM      2  C   UNL     1       4.979  -5.093  27.104  0.00  0.00    +0.135 A 
ATOM      3  N   UNL     1       6.057  -5.153  26.234  0.00  0.00    -0.281 N 
ATOM      4  C   UNL     1       7.163  -5.179  27.057  0.00  0.00    +0.159 A 
ATOM      5  C   UNL     1       8.545  -5.266  26.537  0.00  0.00    +0.218 C 
ATOM      6  N   UNL     1       8.862  -4.091  25.739  0.00  0.00    -0.275 NA
ATOM      7  C   UNL     1       8.217  -3.843  24.649  0.00  0.00    +0.075 C 
ATOM      8  C   UNL     1       7.149  -4.718  24.065  0.00  0.00    +0.026 A 
ATOM      9  C   UNL     1       7.184  -4.928  22.673  0.00  0.00    +0.032 A 
ATOM     10  C   UNL     1       6.151  -5.610  22.036  0.00  0.00    +0.042 A 
ATOM     11 CL   UNL     1       6.179  -5.806  20.329  0.00  0.00    -0.084 Cl
ATOM     12  C   UNL     1       5.091  -6.123  22.774  0.00  0.00    +0.022 A 
ATOM     13  C   UNL     1       5.061  -5.957  24.160  0.00  0.00    +0.028 A 
ATOM     14  N   UNL     1       6.782  -5.206  28.317  0.00  0.00    -0.132 NA
ATOM     15  C   UNL     1       6.083  -5.252  24.819  0.00  0.00    +0.059 A 
ATOM     16  N   UNL     1       5.418  -5.152  28.346  0.00  0.00    -0.134 NA
ENDROOT
BRANCH   7  17
ATOM     17  C   UNL     1       8.572  -2.569  23.935  0.00  0.00    +0.001 A 
ATOM     18  C   UNL     1       7.624  -1.554  23.745  0.00  0.00    +0.010 A 
ATOM     19  C   UNL     1       7.984  -0.373  23.093  0.00  0.00    +0.001 A 
ATOM     20  C   UNL     1       9.292  -0.194  22.645  0.00  0.00    +0.000 A 
ATOM     21  C   UNL     1      10.242  -1.192  22.848  0.00  0.00    +0.001 A 
ATOM     22  C   UNL     1       9.887  -2.377  23.493  0.00  0.00    +0.010 A 
ENDBRANCH   7  17
TORSDOF 1
ENDMDL
MODEL 2
REMARK VINA RESULT:      -6.6      3.544      6.275
REMARK  Name = 
REMARK  2 active torsions:
REMARK  status: ('A' for Active; 'I' for Inactive)
REMARK    1  A    between atoms: C_1  and  C_2
REMARK    2  A    between atoms: C_8  and  C_9
REMARK                            x       y       z     vdW  Elec       q    Type
REMARK                         _______ _______ _______ _____ _____    ______ ____
ROOT
ATOM      1  C   UNL     1       6.896   2.432  21.962  0.00  0.00    +0.088 C 
ATOM      2  C   UNL     1       8.128   1.687  22.315  0.00  0.00    +0.135 A 
ATOM      3  N   UNL     1       8.199   0.533  23.080  0.00  0.00    -0.281 N 
ATOM      4  C   UNL     1       9.506   0.113  22.949  0.00  0.00    +0.159 A 
ATOM      5  C   UNL     1      10.031  -1.091  23.630  0.00  0.00    +0.218 C 
ATOM      6  N   UNL     1       9.342  -2.283  23.157  0.00  0.00    -0.275 NA
ATOM      7  C   UNL     1       8.077  -2.434  23.360  0.00  0.00    +0.075 C 
ATOM      8  C   UNL     1       7.206  -1.475  24.115  0.00  0.00    +0.026 A 
ATOM      9  C   UNL     1       6.276  -2.028  25.016  0.00  0.00    +0.032 A 
ATOM     10  C   UNL     1       5.340  -1.217  25.649  0.00  0.00    +0.042 A 
ATOM     11 CL   UNL     1       4.173  -1.916  26.700  0.00  0.00    -0.084 Cl
ATOM     12  C   UNL     1       5.336   0.155  25.427  0.00  0.00    +0.022 A 
ATOM     13  C   UNL     1       6.277   0.724  24.566  0.00  0.00    +0.028 A 
ATOM     14  N   UNL     1      10.183   0.978  22.225  0.00  0.00    -0.132 NA
ATOM     15  C   UNL     1       7.217  -0.081  23.900  0.00  0.00    +0.059 A 
ATOM     16  N   UNL     1       9.322   1.962  21.829  0.00  0.00    -0.134 NA
ENDROOT
BRANCH   7  17
ATOM     17  C   UNL     1       7.446  -3.665  22.772  0.00  0.00    +0.001 A 
ATOM     18  C   UNL     1       6.494  -3.577  21.747  0.00  0.00    +0.010 A 
ATOM     19  C   UNL     1       5.936  -4.737  21.208  0.00  0.00    +0.001 A 
ATOM     20  C   UNL     1       6.337  -5.988  21.675  0.00  0.00    +0.000 A 
ATOM     21  C   UNL     1       7.298  -6.082  22.681  0.00  0.00    +0.001 A 
ATOM     22  C   UNL     1       7.854  -4.925  23.228  0.00  0.00    +0.010 A 
ENDBRANCH   7  17
TORSDOF 1
ENDMDL
MODEL 3
REMARK VINA RESULT:      -6.6      3.051      4.483
REMARK  Name = 
REMARK  2 active torsions:
REMARK  status: ('A' for Active; 'I' for Inactive)
REMARK    1  A    between atoms: C_1  and  C_2
REMARK    2  A    between atoms: C_8  and  C_9
REMARK                            x       y       z     vdW  Elec       q    Type
REMARK                         _______ _______ _______ _____ _____    ______ ____
ROOT
ATOM      1  C   UNL     1       8.086  -4.786  26.914  0.00  0.00    +0.088 C 
ATOM      2  C   UNL     1       7.962  -4.781  25.437  0.00  0.00    +0.135 A 
ATOM      3  N   UNL     1       7.521  -3.727  24.652  0.00  0.00    -0.281 N 
ATOM      4  C   UNL     1       7.782  -4.126  23.359  0.00  0.00    +0.159 A 
ATOM      5  C   UNL     1       7.445  -3.296  22.182  0.00  0.00    +0.218 C 
ATOM      6  N   UNL     1       8.193  -2.048  22.208  0.00  0.00    -0.275 NA
ATOM      7  C   UNL     1       8.011  -1.193  23.157  0.00  0.00    +0.075 C 
ATOM      8  C   UNL     1       7.017  -1.342  24.270  0.00  0.00    +0.026 A 
ATOM      9  C   UNL     1       6.271  -0.200  24.618  0.00  0.00    +0.032 A 
ATOM     10  C   UNL     1       5.431  -0.217  25.727  0.00  0.00    +0.042 A 
ATOM     11 CL   UNL     1       4.572   1.204  26.173  0.00  0.00    -0.084 Cl
ATOM     12  C   UNL     1       5.293  -1.375  26.484  0.00  0.00    +0.022 A 
ATOM     13  C   UNL     1       5.998  -2.527  26.129  0.00  0.00    +0.028 A 
ATOM     14  N   UNL     1       8.273  -5.347  23.358  0.00  0.00    -0.132 NA
ATOM     15  C   UNL     1       6.867  -2.523  25.025  0.00  0.00    +0.059 A 
ATOM     16  N   UNL     1       8.385  -5.757  24.657  0.00  0.00    -0.134 NA
ENDROOT
BRANCH   7  17
ATOM     17  C   UNL     1       8.883   0.031  23.132  0.00  0.00    +0.001 A 
ATOM     18  C   UNL     1       9.728   0.344  24.206  0.00  0.00    +0.010 A 
ATOM     19  C   UNL     1      10.540   1.479  24.151  0.00  0.00    +0.001 A 
ATOM     20  C   UNL     1      10.525   2.294  23.020  0.00  0.00    +0.000 A 
ATOM     21  C   UNL     1       9.700   1.976  21.941  0.00  0.00    +0.001 A 
ATOM     22  C   UNL     1       8.883   0.847  21.994  0.00  0.00    +0.010 A 
ENDBRANCH   7  17
TORSDOF 1
ENDMDL
MODEL 4
REMARK VINA RESULT:      -6.3      3.144      6.322
REMARK  Name = 
REMARK  2 active torsions:
REMARK  status: ('A' for Active; 'I' for Inactive)
REMARK    1  A    between atoms: C_1  and  C_2
REMARK    2  A    between atoms: C_8  and  C_9
REMARK                            x       y       z     vdW  Elec       q    Type
REMARK                         _______ _______ _______ _____ _____    ______ ____
ROOT
ATOM      1  C   UNL     1       7.961   1.151  22.057  0.00  0.00    +0.088 C 
ATOM      2  C   UNL     1       8.823  -0.003  22.405  0.00  0.00    +0.135 A 
ATOM      3  N   UNL     1       8.606  -0.912  23.429  0.00  0.00    -0.281 N 
ATOM      4  C   UNL     1       9.545  -1.900  23.219  0.00  0.00    +0.159 A 
ATOM      5  C   UNL     1       9.684  -3.074  24.108  0.00  0.00    +0.218 C 
ATOM      6  N   UNL     1       8.471  -3.879  24.078  0.00  0.00    -0.275 NA
ATOM      7  C   UNL     1       7.352  -3.397  24.502  0.00  0.00    +0.075 C 
ATOM      8  C   UNL     1       7.175  -2.032  25.098  0.00  0.00    +0.026 A 
ATOM      9  C   UNL     1       6.361  -1.935  26.243  0.00  0.00    +0.032 A 
ATOM     10  C   UNL     1       6.034  -0.690  26.772  0.00  0.00    +0.042 A 
ATOM     11 CL   UNL     1       4.991  -0.587  28.135  0.00  0.00    -0.084 Cl
ATOM     12  C   UNL     1       6.537   0.470  26.197  0.00  0.00    +0.022 A 
ATOM     13  C   UNL     1       7.377   0.389  25.083  0.00  0.00    +0.028 A 
ATOM     14  N   UNL     1      10.310  -1.579  22.197  0.00  0.00    -0.132 NA
ATOM     15  C   UNL     1       7.701  -0.858  24.521  0.00  0.00    +0.059 A 
ATOM     16  N   UNL     1       9.859  -0.394  21.689  0.00  0.00    -0.134 NA
ENDROOT
BRANCH   7  17
ATOM     17  C   UNL     1       6.146  -4.282  24.365  0.00  0.00    +0.001 A 
ATOM     18  C   UNL     1       6.012  -5.453  25.124  0.00  0.00    +0.010 A 
ATOM     19  C   UNL     1       4.874  -6.250  24.990  0.00  0.00    +0.001 A 
ATOM     20  C   UNL     1       3.858  -5.873  24.112  0.00  0.00    +0.000 A 
ATOM     21  C   UNL     1       3.977  -4.700  23.369  0.00  0.00    +0.001 A 
ATOM     22  C   UNL     1       5.115  -3.903  23.495  0.00  0.00    +0.010 A 
ENDBRANCH   7  17
TORSDOF 1
ENDMDL
MODEL 5
REMARK VINA RESULT:      -6.3      4.622      6.914
REMARK  Name = 
REMARK  2 active torsions:
REMARK  status: ('A' for Active; 'I' for Inactive)
REMARK    1  A    between atoms: C_1  and  C_2
REMARK    2  A    between atoms: C_8  and  C_9
REMARK                            x       y       z     vdW  Elec       q    Type
REMARK                         _______ _______ _______ _____ _____    ______ ____
ROOT
ATOM      1  C   UNL     1       8.675  -2.007  25.917  0.00  0.00    +0.088 C 
ATOM      2  C   UNL     1       9.116  -1.777  24.520  0.00  0.00    +0.135 A 
ATOM      3  N   UNL     1       8.803  -0.682  23.729  0.00  0.00    -0.281 N 
ATOM      4  C   UNL     1       9.603  -0.820  22.616  0.00  0.00    +0.159 A 
ATOM      5  C   UNL     1       9.575   0.135  21.486  0.00  0.00    +0.218 C 
ATOM      6  N   UNL     1       9.998   1.456  21.928  0.00  0.00    -0.275 NA
ATOM      7  C   UNL     1       9.308   2.108  22.803  0.00  0.00    +0.075 C 
ATOM      8  C   UNL     1       8.020   1.636  23.407  0.00  0.00    +0.026 A 
ATOM      9  C   UNL     1       6.988   2.585  23.536  0.00  0.00    +0.032 A 
ATOM     10  C   UNL     1       5.815   2.265  24.212  0.00  0.00    +0.042 A 
ATOM     11 CL   UNL     1       4.589   3.454  24.412  0.00  0.00    -0.084 Cl
ATOM     12  C   UNL     1       5.634   0.990  24.737  0.00  0.00    +0.022 A 
ATOM     13  C   UNL     1       6.632   0.026  24.584  0.00  0.00    +0.028 A 
ATOM     14  N   UNL     1      10.288  -1.941  22.694  0.00  0.00    -0.132 NA
ATOM     15  C   UNL     1       7.834   0.337  23.923  0.00  0.00    +0.059 A 
ATOM     16  N   UNL     1       9.984  -2.538  23.884  0.00  0.00    -0.134 NA
ENDROOT
BRANCH   7  17
ATOM     17  C   UNL     1       9.866   3.432  23.244  0.00  0.00    +0.001 A 
ATOM     18  C   UNL     1      11.245   3.684  23.224  0.00  0.00    +0.010 A 
ATOM     19  C   UNL     1      11.735   4.929  23.624  0.00  0.00    +0.001 A 
ATOM     20  C   UNL     1      10.853   5.930  24.028  0.00  0.00    +0.000 A 
ATOM     21  C   UNL     1       9.479   5.690  24.032  0.00  0.00    +0.001 A 
ATOM     22  C   UNL     1       8.984   4.447  23.639  0.00  0.00    +0.010 A 
ENDBRANCH   7  17
TORSDOF 1
ENDMDL
MODEL 6
REMARK VINA RESULT:      -6.3      3.891      6.910
REMARK  Name = 
REMARK  2 active torsions:
REMARK  status: ('A' for Active; 'I' for Inactive)
REMARK    1  A    between atoms: C_1  and  C_2
REMARK    2  A    between atoms: C_8  and  C_9
REMARK                            x       y       z     vdW  Elec       q    Type
REMARK                         _______ _______ _______ _____ _____    ______ ____
ROOT
ATOM      1  C   UNL     1       6.623   2.054  22.216  0.00  0.00    +0.088 C 
ATOM      2  C   UNL     1       7.927   1.352  22.271  0.00  0.00    +0.135 A 
ATOM      3  N   UNL     1       8.449   0.671  23.360  0.00  0.00    -0.281 N 
ATOM      4  C   UNL     1       9.560   0.024  22.862  0.00  0.00    +0.159 A 
ATOM      5  C   UNL     1      10.442  -0.814  23.704  0.00  0.00    +0.218 C 
ATOM      6  N   UNL     1       9.708  -1.956  24.228  0.00  0.00    -0.275 NA
ATOM      7  C   UNL     1       8.712  -1.786  25.030  0.00  0.00    +0.075 C 
ATOM      8  C   UNL     1       8.239  -0.458  25.544  0.00  0.00    +0.026 A 
ATOM      9  C   UNL     1       7.903  -0.383  26.909  0.00  0.00    +0.032 A 
ATOM     10  C   UNL     1       7.326   0.770  27.431  0.00  0.00    +0.042 A 
ATOM     11 CL   UNL     1       6.867   0.825  29.086  0.00  0.00    -0.084 Cl
ATOM     12  C   UNL     1       7.107   1.875  26.616  0.00  0.00    +0.022 A 
ATOM     13  C   UNL     1       7.469   1.829  25.268  0.00  0.00    +0.028 A 
ATOM     14  N   UNL     1       9.735   0.345  21.598  0.00  0.00    -0.132 NA
ATOM     15  C   UNL     1       8.034   0.666  24.717  0.00  0.00    +0.059 A 
ATOM     16  N   UNL     1       8.714   1.174  21.228  0.00  0.00    -0.134 NA
ENDROOT
BRANCH   7  17
ATOM     17  C   UNL     1       7.976  -3.024  25.459  0.00  0.00    +0.001 A 
ATOM     18  C   UNL     1       6.736  -3.364  24.901  0.00  0.00    +0.010 A 
ATOM     19  C   UNL     1       6.081  -4.529  25.306  0.00  0.00    +0.001 A 
ATOM     20  C   UNL     1       6.668  -5.367  26.253  0.00  0.00    +0.000 A 
ATOM     21  C   UNL     1       7.911  -5.043  26.796  0.00  0.00    +0.001 A 
ATOM     22  C   UNL     1       8.566  -3.877  26.401  0.00  0.00    +0.010 A 
ENDBRANCH   7  17
TORSDOF 1
ENDMDL
MODEL 7
REMARK VINA RESULT:      -6.1      3.811      6.652
REMARK  Name = 
REMARK  2 active torsions:
REMARK  status: ('A' for Active; 'I' for Inactive)
REMARK    1  A    between atoms: C_1  and  C_2
REMARK    2  A    between atoms: C_8  and  C_9
REMARK                            x       y       z     vdW  Elec       q    Type
REMARK                         _______ _______ _______ _____ _____    ______ ____
ROOT
ATOM      1  C   UNL     1       7.581   3.439  22.626  0.00  0.00    +0.088 C 
ATOM      2  C   UNL     1       8.713   2.748  23.289  0.00  0.00    +0.135 A 
ATOM      3  N   UNL     1       8.631   1.624  24.097  0.00  0.00    -0.281 N 
ATOM      4  C   UNL     1       9.942   1.244  24.294  0.00  0.00    +0.159 A 
ATOM      5  C   UNL     1      10.322   0.083  25.128  0.00  0.00    +0.218 C 
ATOM      6  N   UNL     1       9.794  -1.147  24.556  0.00  0.00    -0.275 NA
ATOM      7  C   UNL     1       8.521  -1.334  24.461  0.00  0.00    +0.075 C 
ATOM      8  C   UNL     1       7.473  -0.380  24.951  0.00  0.00    +0.026 A 
ATOM      9  C   UNL     1       6.370  -0.934  25.629  0.00  0.00    +0.032 A 
ATOM     10  C   UNL     1       5.290  -0.135  25.990  0.00  0.00    +0.042 A 
ATOM     11 CL   UNL     1       3.926  -0.837  26.765  0.00  0.00    -0.084 Cl
ATOM     12  C   UNL     1       5.304   1.228  25.717  0.00  0.00    +0.022 A 
ATOM     13  C   UNL     1       6.408   1.800  25.079  0.00  0.00    +0.028 A 
ATOM     14  N   UNL     1      10.749   2.107  23.715  0.00  0.00    -0.132 NA
ATOM     15  C   UNL     1       7.498   1.005  24.686  0.00  0.00    +0.059 A 
ATOM     16  N   UNL     1       9.981   3.047  23.087  0.00  0.00    -0.134 NA
ENDROOT
BRANCH   7  17
ATOM     17  C   UNL     1       8.078  -2.606  23.793  0.00  0.00    +0.001 A 
ATOM     18  C   UNL     1       8.388  -3.860  24.338  0.00  0.00    +0.010 A 
ATOM     19  C   UNL     1       7.951  -5.025  23.706  0.00  0.00    +0.001 A 
ATOM     20  C   UNL     1       7.189  -4.944  22.541  0.00  0.00    +0.000 A 
ATOM     21  C   UNL     1       6.862  -3.699  22.006  0.00  0.00    +0.001 A 
ATOM     22  C   UNL     1       7.302  -2.531  22.629  0.00  0.00    +0.010 A 
ENDBRANCH   7  17
TORSDOF 1
ENDMDL
MODEL 8
REMARK VINA RESULT:      -6.1      3.237      5.133
REMARK  Name = 
REMARK  2 active torsions:
REMARK  status: ('A' for Active; 'I' for Inactive)
REMARK    1  A    between atoms: C_1  and  C_2
REMARK    2  A    between atoms: C_8  and  C_9
REMARK                            x       y       z     vdW  Elec       q    Type
REMARK                         _______ _______ _______ _____ _____    ______ ____
ROOT
ATOM      1  C   UNL     1       6.650  -4.155  21.716  0.00  0.00    +0.088 C 
ATOM      2  C   UNL     1       7.139  -4.244  23.113  0.00  0.00    +0.135 A 
ATOM      3  N   UNL     1       7.755  -3.233  23.834  0.00  0.00    -0.281 N 
ATOM      4  C   UNL     1       7.826  -3.722  25.121  0.00  0.00    +0.159 A 
ATOM      5  C   UNL     1       8.442  -2.963  26.232  0.00  0.00    +0.218 C 
ATOM      6  N   UNL     1       7.701  -1.735  26.479  0.00  0.00    -0.275 NA
ATOM      7  C   UNL     1       7.635  -0.815  25.576  0.00  0.00    +0.075 C 
ATOM      8  C   UNL     1       8.322  -0.867  24.244  0.00  0.00    +0.026 A 
ATOM      9  C   UNL     1       8.950   0.313  23.802  0.00  0.00    +0.032 A 
ATOM     10  C   UNL     1       9.487   0.388  22.520  0.00  0.00    +0.042 A 
ATOM     11 CL   UNL     1      10.198   1.855  21.974  0.00  0.00    -0.084 Cl
ATOM     12  C   UNL     1       9.439  -0.714  21.674  0.00  0.00    +0.022 A 
ATOM     13  C   UNL     1       8.853  -1.904  22.112  0.00  0.00    +0.028 A 
ATOM     14  N   UNL     1       7.360  -4.952  25.159  0.00  0.00    -0.132 NA
ATOM     15  C   UNL     1       8.287  -1.992  23.396  0.00  0.00    +0.059 A 
ATOM     16  N   UNL     1       6.930  -5.278  23.904  0.00  0.00    -0.134 NA
ENDROOT
BRANCH   7  17
ATOM     17  C   UNL     1       6.789   0.384  25.902  0.00  0.00    +0.001 A 
ATOM     18  C   UNL     1       7.113   1.235  26.968  0.00  0.00    +0.010 A 
ATOM     19  C   UNL     1       6.319   2.351  27.238  0.00  0.00    +0.001 A 
ATOM     20  C   UNL     1       5.213   2.633  26.437  0.00  0.00    +0.000 A 
ATOM     21  C   UNL     1       4.899   1.800  25.364  0.00  0.00    +0.001 A 
ATOM     22  C   UNL     1       5.684   0.680  25.093  0.00  0.00    +0.010 A 
ENDBRANCH   7  17
TORSDOF 1
ENDMDL
MODEL 9
REMARK VINA RESULT:      -6.0      2.912      3.676
REMARK  Name = 
REMARK  2 active torsions:
REMARK  status: ('A' for Active; 'I' for Inactive)
REMARK    1  A    between atoms: C_1  and  C_2
REMARK    2  A    between atoms: C_8  and  C_9
REMARK                            x       y       z     vdW  Elec       q    Type
REMARK                         _______ _______ _______ _____ _____    ______ ____
ROOT
ATOM      1  C   UNL     1       3.455  -4.110  24.557  0.00  0.00    +0.088 C 
ATOM      2  C   UNL     1       3.742  -2.967  25.456  0.00  0.00    +0.135 A 
ATOM      3  N   UNL     1       4.996  -2.528  25.853  0.00  0.00    -0.281 N 
ATOM      4  C   UNL     1       4.756  -1.334  26.498  0.00  0.00    +0.159 A 
ATOM      5  C   UNL     1       5.832  -0.524  27.110  0.00  0.00    +0.218 C 
ATOM      6  N   UNL     1       6.765  -0.067  26.090  0.00  0.00    -0.275 NA
ATOM      7  C   UNL     1       7.465  -0.914  25.413  0.00  0.00    +0.075 C 
ATOM      8  C   UNL     1       7.449  -2.399  25.616  0.00  0.00    +0.026 A 
ATOM      9  C   UNL     1       8.691  -3.061  25.598  0.00  0.00    +0.032 A 
ATOM     10  C   UNL     1       8.751  -4.451  25.638  0.00  0.00    +0.042 A 
ATOM     11 CL   UNL     1      10.273  -5.245  25.556  0.00  0.00    -0.084 Cl
ATOM     12  C   UNL     1       7.584  -5.200  25.734  0.00  0.00    +0.022 A 
ATOM     13  C   UNL     1       6.346  -4.557  25.791  0.00  0.00    +0.028 A 
ATOM     14  N   UNL     1       3.460  -1.107  26.550  0.00  0.00    -0.132 NA
ATOM     15  C   UNL     1       6.264  -3.155  25.730  0.00  0.00    +0.059 A 
ATOM     16  N   UNL     1       2.827  -2.127  25.898  0.00  0.00    -0.134 NA
ENDROOT
BRANCH   7  17
ATOM     17  C   UNL     1       8.346  -0.346  24.336  0.00  0.00    +0.001 A 
ATOM     18  C   UNL     1       8.061  -0.552  22.979  0.00  0.00    +0.010 A 
ATOM     19  C   UNL     1       8.887   0.000  21.998  0.00  0.00    +0.001 A 
ATOM     20  C   UNL     1       9.988   0.773  22.366  0.00  0.00    +0.000 A 
ATOM     21  C   UNL     1      10.264   0.997  23.714  0.00  0.00    +0.001 A 
ATOM     22  C   UNL     1       9.446   0.442  24.698  0.00  0.00    +0.010 A 
ENDBRANCH   7  17
TORSDOF 1
ENDMDL
