MODEL 1
REMARK VINA RESULT:      -5.4      0.000      0.000
REMARK  Name = 
REMARK  11 active torsions:
REMARK  status: ('A' for Active; 'I' for Inactive)
REMARK    1  A    between atoms: C_1  and  N_2
REMARK    2  A    between atoms: N_2  and  C_3
REMARK    3  A    between atoms: N_2  and  C_4
REMARK    4  A    between atoms: C_4  and  C_5
REMARK    5  A    between atoms: C_8  and  C_9
REMARK    6  A    between atoms: C_9  and  S_10
REMARK    7  A    between atoms: S_10  and  C_11
REMARK    8  A    between atoms: C_11  and  C_12
REMARK    9  A    between atoms: C_12  and  N_13
REMARK   10  A    between atoms: N_16  and  C_17
REMARK   11  A    between atoms: C_20  and  C_21
REMARK                            x       y       z     vdW  Elec       q    Type
REMARK                         _______ _______ _______ _____ _____    ______ ____
ROOT
ATOM      1  N   UNL     1       5.131  -2.981  25.411  0.00  0.00    -0.298 N 
ATOM      2  H   UNL     1       5.293  -3.747  24.775  0.00  0.00    +0.150 HD
ATOM      3  C   UNL     1       5.967  -1.890  25.398  0.00  0.00    +0.304 C 
ATOM      4  N   UNL     1       6.875  -1.923  24.362  0.00  0.00    -0.269 N 
ATOM      5  H   UNL     1       6.613  -2.481  23.563  0.00  0.00    +0.156 HD
ATOM      6  O   UNL     1       5.861  -1.001  26.235  0.00  0.00    -0.253 OA
ENDROOT
BRANCH   4   7
ATOM      7  C   UNL     1       7.884  -0.950  24.157  0.00  0.00    +0.036 A 
ATOM      8  C   UNL     1       7.690   0.030  23.180  0.00  0.00    +0.043 A 
ATOM      9  C   UNL     1       8.621   1.069  23.028  0.00  0.00    +0.046 A 
ATOM     10 CL   UNL     1       8.285   2.288  21.849  0.00  0.00    -0.083 Cl
ATOM     11  C   UNL     1       9.772   1.130  23.828  0.00  0.00    -0.032 A 
ATOM     12  C   UNL     1      10.748   2.271  23.758  0.00  0.00    +0.045 C 
ATOM     13  C   UNL     1       9.991   0.105  24.752  0.00  0.00    +0.006 A 
ATOM     14  C   UNL     1       9.062  -0.925  24.907  0.00  0.00    +0.024 A 
ENDBRANCH   4   7
BRANCH   1  15
ATOM     15  C   UNL     1       4.018  -3.054  26.349  0.00  0.00    +0.116 C 
BRANCH  15  16
ATOM     16  C   UNL     1       4.335  -3.831  27.635  0.00  0.00    +0.088 C 
BRANCH  16  17
ATOM     17  S   UNL     1       4.995  -5.489  27.233  0.00  0.00    -0.151 S 
BRANCH  17  18
ATOM     18  C   UNL     1       6.731  -5.228  27.729  0.00  0.00    +0.143 C 
BRANCH  18  21
ATOM     19  C   UNL     1       8.018  -4.991  24.383  0.00  0.00    +0.119 A 
ATOM     20  O   UNL     1       7.041  -5.189  25.319  0.00  0.00    -0.462 OA
ATOM     21  C   UNL     1       7.627  -5.079  26.550  0.00  0.00    +0.115 A 
ATOM     22  C   UNL     1       8.972  -4.801  26.400  0.00  0.00    +0.046 A 
ATOM     23  C   UNL     1       9.222  -4.745  25.008  0.00  0.00    +0.046 A 
BRANCH  19  24
ATOM     24  C   UNL     1       7.601  -5.078  22.951  0.00  0.00    +0.158 C 
BRANCH  24  26
ATOM     25  C   UNL     1       6.117  -3.733  21.575  0.00  0.00    +0.105 C 
ATOM     26  N   UNL     1       6.207  -4.645  22.719  0.00  0.00    -0.301 NA
ATOM     27  C   UNL     1       5.359  -5.816  22.482  0.00  0.00    +0.105 C 
ENDBRANCH  24  26
ENDBRANCH  19  24
ENDBRANCH  18  21
ENDBRANCH  17  18
ENDBRANCH  16  17
ENDBRANCH  15  16
ENDBRANCH   1  15
TORSDOF 8
ENDMDL
MODEL 2
REMARK VINA RESULT:      -5.4      1.672      2.953
REMARK  Name = 
REMARK  11 active torsions:
REMARK  status: ('A' for Active; 'I' for Inactive)
REMARK    1  A    between atoms: C_1  and  N_2
REMARK    2  A    between atoms: N_2  and  C_3
REMARK    3  A    between atoms: N_2  and  C_4
REMARK    4  A    between atoms: C_4  and  C_5
REMARK    5  A    between atoms: C_8  and  C_9
REMARK    6  A    between atoms: C_9  and  S_10
REMARK    7  A    between atoms: S_10  and  C_11
REMARK    8  A    between atoms: C_11  and  C_12
REMARK    9  A    between atoms: C_12  and  N_13
REMARK   10  A    between atoms: N_16  and  C_17
REMARK   11  A    between atoms: C_20  and  C_21
REMARK                            x       y       z     vdW  Elec       q    Type
REMARK                         _______ _______ _______ _____ _____    ______ ____
ROOT
ATOM      1  N   UNL     1       5.399  -2.349  24.864  0.00  0.00    -0.298 N 
ATOM      2  H   UNL     1       5.799  -2.997  24.201  0.00  0.00    +0.150 HD
ATOM      3  C   UNL     1       5.901  -1.073  24.963  0.00  0.00    +0.304 C 
ATOM      4  N   UNL     1       6.836  -0.788  23.991  0.00  0.00    -0.269 N 
ATOM      5  H   UNL     1       6.779  -1.341  23.149  0.00  0.00    +0.156 HD
ATOM      6  O   UNL     1       5.511  -0.305  25.835  0.00  0.00    -0.253 OA
ENDROOT
BRANCH   4   7
ATOM      7  C   UNL     1       7.547   0.435  23.906  0.00  0.00    +0.036 A 
ATOM      8  C   UNL     1       7.047   1.452  23.090  0.00  0.00    +0.043 A 
ATOM      9  C   UNL     1       7.669   2.710  23.069  0.00  0.00    +0.046 A 
ATOM     10 CL   UNL     1       6.957   3.947  22.092  0.00  0.00    -0.083 Cl
ATOM     11  C   UNL     1       8.815   2.962  23.838  0.00  0.00    -0.032 A 
ATOM     12  C   UNL     1       9.460   4.317  23.912  0.00  0.00    +0.045 C 
ATOM     13  C   UNL     1       9.348   1.914  24.594  0.00  0.00    +0.006 A 
ATOM     14  C   UNL     1       8.725   0.665  24.620  0.00  0.00    +0.024 A 
ENDBRANCH   4   7
BRANCH   1  15
ATOM     15  C   UNL     1       4.301  -2.785  25.718  0.00  0.00    +0.116 C 
BRANCH  15  16
ATOM     16  C   UNL     1       3.186  -3.528  24.969  0.00  0.00    +0.088 C 
BRANCH  16  17
ATOM     17  S   UNL     1       3.483  -5.332  25.006  0.00  0.00    -0.151 S 
BRANCH  17  18
ATOM     18  C   UNL     1       3.751  -5.609  23.223  0.00  0.00    +0.143 C 
BRANCH  18  21
ATOM     19  C   UNL     1       7.329  -5.314  23.358  0.00  0.00    +0.119 A 
ATOM     20  O   UNL     1       6.065  -5.252  23.874  0.00  0.00    -0.462 OA
ATOM     21  C   UNL     1       5.197  -5.580  22.870  0.00  0.00    +0.115 A 
ATOM     22  C   UNL     1       5.905  -5.863  21.718  0.00  0.00    +0.046 A 
ATOM     23  C   UNL     1       7.275  -5.691  22.032  0.00  0.00    +0.046 A 
BRANCH  19  24
ATOM     24  C   UNL     1       8.451  -4.978  24.286  0.00  0.00    +0.158 C 
BRANCH  24  26
ATOM     25  C   UNL     1       8.548  -3.405  26.136  0.00  0.00    +0.105 C 
ATOM     26  N   UNL     1       8.478  -3.554  24.679  0.00  0.00    -0.301 NA
ATOM     27  C   UNL     1       9.631  -2.893  24.063  0.00  0.00    +0.105 C 
ENDBRANCH  24  26
ENDBRANCH  19  24
ENDBRANCH  18  21
ENDBRANCH  17  18
ENDBRANCH  16  17
ENDBRANCH  15  16
ENDBRANCH   1  15
TORSDOF 8
ENDMDL
MODEL 3
REMARK VINA RESULT:      -5.3      2.628      3.963
REMARK  Name = 
REMARK  11 active torsions:
REMARK  status: ('A' for Active; 'I' for Inactive)
REMARK    1  A    between atoms: C_1  and  N_2
REMARK    2  A    between atoms: N_2  and  C_3
REMARK    3  A    between atoms: N_2  and  C_4
REMARK    4  A    between atoms: C_4  and  C_5
REMARK    5  A    between atoms: C_8  and  C_9
REMARK    6  A    between atoms: C_9  and  S_10
REMARK    7  A    between atoms: S_10  and  C_11
REMARK    8  A    between atoms: C_11  and  C_12
REMARK    9  A    between atoms: C_12  and  N_13
REMARK   10  A    between atoms: N_16  and  C_17
REMARK   11  A    between atoms: C_20  and  C_21
REMARK                            x       y       z     vdW  Elec       q    Type
REMARK                         _______ _______ _______ _____ _____    ______ ____
ROOT
ATOM      1  N   UNL     1       6.021  -1.276  24.038  0.00  0.00    -0.298 N 
ATOM      2  H   UNL     1       6.500  -1.722  23.269  0.00  0.00    +0.150 HD
ATOM      3  C   UNL     1       6.049   0.093  24.163  0.00  0.00    +0.304 C 
ATOM      4  N   UNL     1       6.634   0.717  23.081  0.00  0.00    -0.269 N 
ATOM      5  H   UNL     1       6.628   0.198  22.216  0.00  0.00    +0.156 HD
ATOM      6  O   UNL     1       5.575   0.649  25.146  0.00  0.00    -0.253 OA
ENDROOT
BRANCH   4   7
ATOM      7  C   UNL     1       6.839   2.115  22.987  0.00  0.00    +0.036 A 
ATOM      8  C   UNL     1       8.043   2.654  23.446  0.00  0.00    +0.043 A 
ATOM      9  C   UNL     1       8.320   4.019  23.268  0.00  0.00    +0.046 A 
ATOM     10 CL   UNL     1       9.857   4.607  23.796  0.00  0.00    -0.083 Cl
ATOM     11  C   UNL     1       7.388   4.870  22.655  0.00  0.00    -0.032 A 
ATOM     12  C   UNL     1       7.678   6.316  22.366  0.00  0.00    +0.045 C 
ATOM     13  C   UNL     1       6.157   4.334  22.265  0.00  0.00    +0.006 A 
ATOM     14  C   UNL     1       5.886   2.975  22.437  0.00  0.00    +0.024 A 
ENDBRANCH   4   7
BRANCH   1  15
ATOM     15  C   UNL     1       5.320  -2.098  25.017  0.00  0.00    +0.116 C 
BRANCH  15  16
ATOM     16  C   UNL     1       4.489  -3.231  24.398  0.00  0.00    +0.088 C 
BRANCH  16  17
ATOM     17  S   UNL     1       5.206  -3.747  22.796  0.00  0.00    -0.151 S 
BRANCH  17  18
ATOM     18  C   UNL     1       6.192  -5.169  23.375  0.00  0.00    +0.143 C 
BRANCH  18  21
ATOM     19  C   UNL     1       9.233  -3.418  24.143  0.00  0.00    +0.119 A 
ATOM     20  O   UNL     1       8.105  -3.671  23.413  0.00  0.00    -0.462 OA
ATOM     21  C   UNL     1       7.474  -4.737  23.993  0.00  0.00    +0.115 A 
ATOM     22  C   UNL     1       8.192  -5.156  25.098  0.00  0.00    +0.046 A 
ATOM     23  C   UNL     1       9.322  -4.308  25.192  0.00  0.00    +0.046 A 
BRANCH  19  24
ATOM     24  C   UNL     1      10.093  -2.288  23.678  0.00  0.00    +0.158 C 
BRANCH  24  26
ATOM     25  C   UNL     1       9.373  -0.606  25.277  0.00  0.00    +0.105 C 
ATOM     26  N   UNL     1       9.465  -0.962  23.858  0.00  0.00    -0.301 NA
ATOM     27  C   UNL     1      10.244   0.054  23.146  0.00  0.00    +0.105 C 
ENDBRANCH  24  26
ENDBRANCH  19  24
ENDBRANCH  18  21
ENDBRANCH  17  18
ENDBRANCH  16  17
ENDBRANCH  15  16
ENDBRANCH   1  15
TORSDOF 8
ENDMDL
MODEL 4
REMARK VINA RESULT:      -5.1      1.747      2.927
REMARK  Name = 
REMARK  11 active torsions:
REMARK  status: ('A' for Active; 'I' for Inactive)
REMARK    1  A    between atoms: C_1  and  N_2
REMARK    2  A    between atoms: N_2  and  C_3
REMARK    3  A    between atoms: N_2  and  C_4
REMARK    4  A    between atoms: C_4  and  C_5
REMARK    5  A    between atoms: C_8  and  C_9
REMARK    6  A    between atoms: C_9  and  S_10
REMARK    7  A    between atoms: S_10  and  C_11
REMARK    8  A    between atoms: C_11  and  C_12
REMARK    9  A    between atoms: C_12  and  N_13
REMARK   10  A    between atoms: N_16  and  C_17
REMARK   11  A    between atoms: C_20  and  C_21
REMARK                            x       y       z     vdW  Elec       q    Type
REMARK                         _______ _______ _______ _____ _____    ______ ____
ROOT
ATOM      1  N   UNL     1       7.335  -4.750  25.541  0.00  0.00    -0.298 N 
ATOM      2  H   UNL     1       6.768  -5.204  24.840  0.00  0.00    +0.150 HD
ATOM      3  C   UNL     1       7.963  -3.561  25.252  0.00  0.00    +0.304 C 
ATOM      4  N   UNL     1       7.595  -3.046  24.028  0.00  0.00    -0.269 N 
ATOM      5  H   UNL     1       6.701  -3.348  23.672  0.00  0.00    +0.156 HD
ATOM      6  O   UNL     1       8.746  -3.049  26.044  0.00  0.00    -0.253 OA
ENDROOT
BRANCH   4   7
ATOM      7  C   UNL     1       8.139  -1.864  23.467  0.00  0.00    +0.036 A 
ATOM      8  C   UNL     1       7.916  -0.645  24.113  0.00  0.00    +0.043 A 
ATOM      9  C   UNL     1       8.530   0.526  23.643  0.00  0.00    +0.046 A 
ATOM     10 CL   UNL     1       8.271   1.987  24.530  0.00  0.00    -0.083 Cl
ATOM     11  C   UNL     1       9.352   0.504  22.505  0.00  0.00    -0.032 A 
ATOM     12  C   UNL     1      10.097   1.715  22.020  0.00  0.00    +0.045 C 
ATOM     13  C   UNL     1       9.508  -0.707  21.825  0.00  0.00    +0.006 A 
ATOM     14  C   UNL     1       8.902  -1.873  22.297  0.00  0.00    +0.024 A 
ENDBRANCH   4   7
BRANCH   1  15
ATOM     15  C   UNL     1       7.492  -5.375  26.849  0.00  0.00    +0.116 C 
BRANCH  15  16
ATOM     16  C   UNL     1       6.357  -5.055  27.832  0.00  0.00    +0.088 C 
BRANCH  16  17
ATOM     17  S   UNL     1       5.265  -6.508  28.042  0.00  0.00    -0.151 S 
BRANCH  17  18
ATOM     18  C   UNL     1       3.694  -5.760  27.496  0.00  0.00    +0.143 C 
BRANCH  18  21
ATOM     19  C   UNL     1       4.358  -4.992  24.050  0.00  0.00    +0.119 A 
ATOM     20  O   UNL     1       4.335  -5.800  25.153  0.00  0.00    -0.462 OA
ATOM     21  C   UNL     1       3.839  -5.061  26.190  0.00  0.00    +0.115 A 
ATOM     22  C   UNL     1       3.534  -3.788  25.749  0.00  0.00    +0.046 A 
ATOM     23  C   UNL     1       3.869  -3.744  24.374  0.00  0.00    +0.046 A 
BRANCH  19  24
ATOM     24  C   UNL     1       4.882  -5.595  22.787  0.00  0.00    +0.158 C 
BRANCH  24  26
ATOM     25  C   UNL     1       7.107  -6.097  21.951  0.00  0.00    +0.105 C 
ATOM     26  N   UNL     1       6.185  -5.037  22.369  0.00  0.00    -0.301 NA
ATOM     27  C   UNL     1       5.987  -4.094  21.265  0.00  0.00    +0.105 C 
ENDBRANCH  24  26
ENDBRANCH  19  24
ENDBRANCH  18  21
ENDBRANCH  17  18
ENDBRANCH  16  17
ENDBRANCH  15  16
ENDBRANCH   1  15
TORSDOF 8
ENDMDL
MODEL 5
REMARK VINA RESULT:      -5.1      3.574      7.347
REMARK  Name = 
REMARK  11 active torsions:
REMARK  status: ('A' for Active; 'I' for Inactive)
REMARK    1  A    between atoms: C_1  and  N_2
REMARK    2  A    between atoms: N_2  and  C_3
REMARK    3  A    between atoms: N_2  and  C_4
REMARK    4  A    between atoms: C_4  and  C_5
REMARK    5  A    between atoms: C_8  and  C_9
REMARK    6  A    between atoms: C_9  and  S_10
REMARK    7  A    between atoms: S_10  and  C_11
REMARK    8  A    between atoms: C_11  and  C_12
REMARK    9  A    between atoms: C_12  and  N_13
REMARK   10  A    between atoms: N_16  and  C_17
REMARK   11  A    between atoms: C_20  and  C_21
REMARK                            x       y       z     vdW  Elec       q    Type
REMARK                         _______ _______ _______ _____ _____    ______ ____
ROOT
ATOM      1  N   UNL     1       8.636  -1.797  24.036  0.00  0.00    -0.298 N 
ATOM      2  H   UNL     1       8.055  -0.990  24.209  0.00  0.00    +0.150 HD
ATOM      3  C   UNL     1       8.072  -3.051  23.995  0.00  0.00    +0.304 C 
ATOM      4  N   UNL     1       6.695  -3.021  24.052  0.00  0.00    -0.269 N 
ATOM      5  H   UNL     1       6.260  -2.162  23.749  0.00  0.00    +0.156 HD
ATOM      6  O   UNL     1       8.768  -4.055  23.901  0.00  0.00    -0.253 OA
ENDROOT
BRANCH   4   7
ATOM      7  C   UNL     1       5.876  -4.176  24.084  0.00  0.00    +0.036 A 
ATOM      8  C   UNL     1       5.832  -4.941  25.252  0.00  0.00    +0.043 A 
ATOM      9  C   UNL     1       4.950  -6.028  25.352  0.00  0.00    +0.046 A 
ATOM     10 CL   UNL     1       4.895  -6.889  26.850  0.00  0.00    -0.083 Cl
ATOM     11  C   UNL     1       4.119  -6.385  24.278  0.00  0.00    -0.032 A 
ATOM     12  C   UNL     1       3.100  -7.484  24.373  0.00  0.00    +0.045 C 
ATOM     13  C   UNL     1       4.225  -5.657  23.090  0.00  0.00    +0.006 A 
ATOM     14  C   UNL     1       5.098  -4.571  22.994  0.00  0.00    +0.024 A 
ENDBRANCH   4   7
BRANCH   1  15
ATOM     15  C   UNL     1      10.070  -1.620  23.849  0.00  0.00    +0.116 C 
BRANCH  15  16
ATOM     16  C   UNL     1      10.485  -1.396  22.387  0.00  0.00    +0.088 C 
BRANCH  16  17
ATOM     17  S   UNL     1       9.273  -0.321  21.537  0.00  0.00    -0.151 S 
BRANCH  17  18
ATOM     18  C   UNL     1       9.947   1.302  22.026  0.00  0.00    +0.143 C 
BRANCH  18  21
ATOM     19  C   UNL     1       7.622   1.852  24.710  0.00  0.00    +0.119 A 
ATOM     20  O   UNL     1       8.119   1.187  23.623  0.00  0.00    -0.462 OA
ATOM     21  C   UNL     1       9.220   1.874  23.192  0.00  0.00    +0.115 A 
ATOM     22  C   UNL     1       9.434   2.968  24.009  0.00  0.00    +0.046 A 
ATOM     23  C   UNL     1       8.406   2.953  24.983  0.00  0.00    +0.046 A 
BRANCH  19  24
ATOM     24  C   UNL     1       6.397   1.279  25.344  0.00  0.00    +0.158 C 
BRANCH  24  26
ATOM     25  C   UNL     1       7.420  -0.177  27.000  0.00  0.00    +0.105 C 
ATOM     26  N   UNL     1       6.573  -0.115  25.804  0.00  0.00    -0.301 NA
ATOM     27  C   UNL     1       5.265  -0.707  26.097  0.00  0.00    +0.105 C 
ENDBRANCH  24  26
ENDBRANCH  19  24
ENDBRANCH  18  21
ENDBRANCH  17  18
ENDBRANCH  16  17
ENDBRANCH  15  16
ENDBRANCH   1  15
TORSDOF 8
ENDMDL
MODEL 6
REMARK VINA RESULT:      -5.0      3.633      6.999
REMARK  Name = 
REMARK  11 active torsions:
REMARK  status: ('A' for Active; 'I' for Inactive)
REMARK    1  A    between atoms: C_1  and  N_2
REMARK    2  A    between atoms: N_2  and  C_3
REMARK    3  A    between atoms: N_2  and  C_4
REMARK    4  A    between atoms: C_4  and  C_5
REMARK    5  A    between atoms: C_8  and  C_9
REMARK    6  A    between atoms: C_9  and  S_10
REMARK    7  A    between atoms: S_10  and  C_11
REMARK    8  A    between atoms: C_11  and  C_12
REMARK    9  A    between atoms: C_12  and  N_13
REMARK   10  A    between atoms: N_16  and  C_17
REMARK   11  A    between atoms: C_20  and  C_21
REMARK                            x       y       z     vdW  Elec       q    Type
REMARK                         _______ _______ _______ _____ _____    ______ ____
ROOT
ATOM      1  N   UNL     1       6.391   1.180  24.435  0.00  0.00    -0.298 N 
ATOM      2  H   UNL     1       7.056   1.622  23.818  0.00  0.00    +0.150 HD
ATOM      3  C   UNL     1       6.151  -0.170  24.331  0.00  0.00    +0.304 C 
ATOM      4  N   UNL     1       7.005  -0.799  23.450  0.00  0.00    -0.269 N 
ATOM      5  H   UNL     1       7.886  -0.337  23.283  0.00  0.00    +0.156 HD
ATOM      6  O   UNL     1       5.268  -0.709  24.988  0.00  0.00    -0.253 OA
ENDROOT
BRANCH   4   7
ATOM      7  C   UNL     1       6.932  -2.174  23.118  0.00  0.00    +0.036 A 
ATOM      8  C   UNL     1       7.780  -3.073  23.769  0.00  0.00    +0.043 A 
ATOM      9  C   UNL     1       7.657  -4.453  23.540  0.00  0.00    +0.046 A 
ATOM     10 CL   UNL     1       8.690  -5.514  24.431  0.00  0.00    -0.083 Cl
ATOM     11  C   UNL     1       6.706  -4.953  22.637  0.00  0.00    -0.032 A 
ATOM     12  C   UNL     1       6.483  -6.423  22.428  0.00  0.00    +0.045 C 
ATOM     13  C   UNL     1       5.913  -4.039  21.938  0.00  0.00    +0.006 A 
ATOM     14  C   UNL     1       6.031  -2.667  22.171  0.00  0.00    +0.024 A 
ENDBRANCH   4   7
BRANCH   1  15
ATOM     15  C   UNL     1       5.682   1.987  25.419  0.00  0.00    +0.116 C 
BRANCH  15  16
ATOM     16  C   UNL     1       5.037   3.254  24.838  0.00  0.00    +0.088 C 
BRANCH  16  17
ATOM     17  S   UNL     1       5.025   3.184  23.010  0.00  0.00    -0.151 S 
BRANCH  17  18
ATOM     18  C   UNL     1       6.266   4.478  22.672  0.00  0.00    +0.143 C 
BRANCH  18  21
ATOM     19  C   UNL     1       9.385   2.703  22.821  0.00  0.00    +0.119 A 
ATOM     20  O   UNL     1       8.109   2.922  22.381  0.00  0.00    -0.462 OA
ATOM     21  C   UNL     1       7.640   4.032  23.027  0.00  0.00    +0.115 A 
ATOM     22  C   UNL     1       8.618   4.528  23.869  0.00  0.00    +0.046 A 
ATOM     23  C   UNL     1       9.738   3.672  23.736  0.00  0.00    +0.046 A 
BRANCH  19  24
ATOM     24  C   UNL     1      10.098   1.520  22.250  0.00  0.00    +0.158 C 
BRANCH  24  26
ATOM     25  C   UNL     1      10.247  -0.904  22.174  0.00  0.00    +0.105 C 
ATOM     26  N   UNL     1       9.771   0.253  22.938  0.00  0.00    -0.301 NA
ATOM     27  C   UNL     1      10.377   0.244  24.272  0.00  0.00    +0.105 C 
ENDBRANCH  24  26
ENDBRANCH  19  24
ENDBRANCH  18  21
ENDBRANCH  17  18
ENDBRANCH  16  17
ENDBRANCH  15  16
ENDBRANCH   1  15
TORSDOF 8
ENDMDL
MODEL 7
REMARK VINA RESULT:      -5.0      1.938      3.117
REMARK  Name = 
REMARK  11 active torsions:
REMARK  status: ('A' for Active; 'I' for Inactive)
REMARK    1  A    between atoms: C_1  and  N_2
REMARK    2  A    between atoms: N_2  and  C_3
REMARK    3  A    between atoms: N_2  and  C_4
REMARK    4  A    between atoms: C_4  and  C_5
REMARK    5  A    between atoms: C_8  and  C_9
REMARK    6  A    between atoms: C_9  and  S_10
REMARK    7  A    between atoms: S_10  and  C_11
REMARK    8  A    between atoms: C_11  and  C_12
REMARK    9  A    between atoms: C_12  and  N_13
REMARK   10  A    between atoms: N_16  and  C_17
REMARK   11  A    between atoms: C_20  and  C_21
REMARK                            x       y       z     vdW  Elec       q    Type
REMARK                         _______ _______ _______ _____ _____    ______ ____
ROOT
ATOM      1  N   UNL     1       9.667  -3.351  24.278  0.00  0.00    -0.298 N 
ATOM      2  H   UNL     1      10.612  -3.564  23.996  0.00  0.00    +0.150 HD
ATOM      3  C   UNL     1       9.215  -2.054  24.238  0.00  0.00    +0.304 C 
ATOM      4  N   UNL     1      10.113  -1.192  23.646  0.00  0.00    -0.269 N 
ATOM      5  H   UNL     1      10.773  -1.612  23.009  0.00  0.00    +0.156 HD
ATOM      6  O   UNL     1       8.113  -1.753  24.682  0.00  0.00    -0.253 OA
ENDROOT
BRANCH   4   7
ATOM      7  C   UNL     1       9.916   0.206  23.532  0.00  0.00    +0.036 A 
ATOM      8  C   UNL     1       8.834   0.678  22.784  0.00  0.00    +0.043 A 
ATOM      9  C   UNL     1       8.550   2.052  22.741  0.00  0.00    +0.046 A 
ATOM     10 CL   UNL     1       7.156   2.561  21.856  0.00  0.00    -0.083 Cl
ATOM     11  C   UNL     1       9.358   2.977  23.419  0.00  0.00    -0.032 A 
ATOM     12  C   UNL     1       9.040   4.445  23.472  0.00  0.00    +0.045 C 
ATOM     13  C   UNL     1      10.479   2.501  24.104  0.00  0.00    +0.006 A 
ATOM     14  C   UNL     1      10.757   1.133  24.152  0.00  0.00    +0.024 A 
ENDBRANCH   4   7
BRANCH   1  15
ATOM     15  C   UNL     1       8.799  -4.427  24.742  0.00  0.00    +0.116 C 
BRANCH  15  16
ATOM     16  C   UNL     1       8.781  -4.600  26.267  0.00  0.00    +0.088 C 
BRANCH  16  17
ATOM     17  S   UNL     1       7.173  -4.063  26.953  0.00  0.00    -0.151 S 
BRANCH  17  18
ATOM     18  C   UNL     1       6.431  -5.704  27.248  0.00  0.00    +0.143 C 
BRANCH  18  21
ATOM     19  C   UNL     1       4.684  -5.919  24.117  0.00  0.00    +0.119 A 
ATOM     20  O   UNL     1       5.597  -5.392  24.987  0.00  0.00    -0.462 OA
ATOM     21  C   UNL     1       5.496  -6.092  26.158  0.00  0.00    +0.115 A 
ATOM     22  C   UNL     1       4.529  -7.071  26.031  0.00  0.00    +0.046 A 
ATOM     23  C   UNL     1       4.007  -6.958  24.720  0.00  0.00    +0.046 A 
BRANCH  19  24
ATOM     24  C   UNL     1       4.609  -5.293  22.762  0.00  0.00    +0.158 C 
BRANCH  24  26
ATOM     25  C   UNL     1       6.288  -5.647  21.041  0.00  0.00    +0.105 C 
ATOM     26  N   UNL     1       5.927  -4.879  22.236  0.00  0.00    -0.301 NA
ATOM     27  C   UNL     1       5.903  -3.450  21.912  0.00  0.00    +0.105 C 
ENDBRANCH  24  26
ENDBRANCH  19  24
ENDBRANCH  18  21
ENDBRANCH  17  18
ENDBRANCH  16  17
ENDBRANCH  15  16
ENDBRANCH   1  15
TORSDOF 8
ENDMDL
MODEL 8
REMARK VINA RESULT:      -5.0      4.266      7.590
REMARK  Name = 
REMARK  11 active torsions:
REMARK  status: ('A' for Active; 'I' for Inactive)
REMARK    1  A    between atoms: C_1  and  N_2
REMARK    2  A    between atoms: N_2  and  C_3
REMARK    3  A    between atoms: N_2  and  C_4
REMARK    4  A    between atoms: C_4  and  C_5
REMARK    5  A    between atoms: C_8  and  C_9
REMARK    6  A    between atoms: C_9  and  S_10
REMARK    7  A    between atoms: S_10  and  C_11
REMARK    8  A    between atoms: C_11  and  C_12
REMARK    9  A    between atoms: C_12  and  N_13
REMARK   10  A    between atoms: N_16  and  C_17
REMARK   11  A    between atoms: C_20  and  C_21
REMARK                            x       y       z     vdW  Elec       q    Type
REMARK                         _______ _______ _______ _____ _____    ______ ____
ROOT
ATOM      1  N   UNL     1       5.473   2.322  23.067  0.00  0.00    -0.298 N 
ATOM      2  H   UNL     1       5.865   2.484  22.150  0.00  0.00    +0.150 HD
ATOM      3  C   UNL     1       5.766   1.161  23.743  0.00  0.00    +0.304 C 
ATOM      4  N   UNL     1       6.725   0.400  23.109  0.00  0.00    -0.269 N 
ATOM      5  H   UNL     1       7.343   0.898  22.486  0.00  0.00    +0.156 HD
ATOM      6  O   UNL     1       5.215   0.889  24.803  0.00  0.00    -0.253 OA
ENDROOT
BRANCH   4   7
ATOM      7  C   UNL     1       7.164  -0.867  23.566  0.00  0.00    +0.036 A 
ATOM      8  C   UNL     1       6.886  -1.997  22.795  0.00  0.00    +0.043 A 
ATOM      9  C   UNL     1       7.400  -3.250  23.166  0.00  0.00    +0.046 A 
ATOM     10 CL   UNL     1       7.078  -4.595  22.129  0.00  0.00    -0.083 Cl
ATOM     11  C   UNL     1       8.174  -3.397  24.328  0.00  0.00    -0.032 A 
ATOM     12  C   UNL     1       8.815  -4.699  24.714  0.00  0.00    +0.045 C 
ATOM     13  C   UNL     1       8.384  -2.272  25.130  0.00  0.00    +0.006 A 
ATOM     14  C   UNL     1       7.878  -1.025  24.756  0.00  0.00    +0.024 A 
ENDBRANCH   4   7
BRANCH   1  15
ATOM     15  C   UNL     1       4.585   3.319  23.651  0.00  0.00    +0.116 C 
BRANCH  15  16
ATOM     16  C   UNL     1       4.330   4.533  22.747  0.00  0.00    +0.088 C 
BRANCH  16  17
ATOM     17  S   UNL     1       5.193   6.008  23.400  0.00  0.00    -0.151 S 
BRANCH  17  18
ATOM     18  C   UNL     1       6.651   5.990  22.302  0.00  0.00    +0.143 C 
BRANCH  18  21
ATOM     19  C   UNL     1       9.108   3.927  23.918  0.00  0.00    +0.119 A 
ATOM     20  O   UNL     1       7.909   4.170  23.308  0.00  0.00    -0.462 OA
ATOM     21  C   UNL     1       7.867   5.504  23.008  0.00  0.00    +0.115 A 
ATOM     22  C   UNL     1       9.042   6.108  23.414  0.00  0.00    +0.046 A 
ATOM     23  C   UNL     1       9.838   5.094  23.999  0.00  0.00    +0.046 A 
BRANCH  19  24
ATOM     24  C   UNL     1       9.369   2.520  24.348  0.00  0.00    +0.158 C 
BRANCH  24  26
ATOM     25  C   UNL     1      11.026   0.743  24.382  0.00  0.00    +0.105 C 
ATOM     26  N   UNL     1      10.501   1.890  23.636  0.00  0.00    -0.301 NA
ATOM     27  C   UNL     1      10.065   1.453  22.306  0.00  0.00    +0.105 C 
ENDBRANCH  24  26
ENDBRANCH  19  24
ENDBRANCH  18  21
ENDBRANCH  17  18
ENDBRANCH  16  17
ENDBRANCH  15  16
ENDBRANCH   1  15
TORSDOF 8
ENDMDL
MODEL 9
REMARK VINA RESULT:      -4.9      1.901      3.063
REMARK  Name = 
REMARK  11 active torsions:
REMARK  status: ('A' for Active; 'I' for Inactive)
REMARK    1  A    between atoms: C_1  and  N_2
REMARK    2  A    between atoms: N_2  and  C_3
REMARK    3  A    between atoms: N_2  and  C_4
REMARK    4  A    between atoms: C_4  and  C_5
REMARK    5  A    between atoms: C_8  and  C_9
REMARK    6  A    between atoms: C_9  and  S_10
REMARK    7  A    between atoms: S_10  and  C_11
REMARK    8  A    between atoms: C_11  and  C_12
REMARK    9  A    between atoms: C_12  and  N_13
REMARK   10  A    between atoms: N_16  and  C_17
REMARK   11  A    between atoms: C_20  and  C_21
REMARK                            x       y       z     vdW  Elec       q    Type
REMARK                         _______ _______ _______ _____ _____    ______ ____
ROOT
ATOM      1  N   UNL     1       5.301  -3.146  24.392  0.00  0.00    -0.298 N 
ATOM      2  H   UNL     1       5.785  -3.989  24.121  0.00  0.00    +0.150 HD
ATOM      3  C   UNL     1       5.871  -1.919  24.149  0.00  0.00    +0.304 C 
ATOM      4  N   UNL     1       7.023  -2.003  23.396  0.00  0.00    -0.269 N 
ATOM      5  H   UNL     1       7.113  -2.826  22.819  0.00  0.00    +0.156 HD
ATOM      6  O   UNL     1       5.359  -0.888  24.569  0.00  0.00    -0.253 OA
ENDROOT
BRANCH   4   7
ATOM      7  C   UNL     1       7.834  -0.893  23.056  0.00  0.00    +0.036 A 
ATOM      8  C   UNL     1       7.890   0.195  23.930  0.00  0.00    +0.043 A 
ATOM      9  C   UNL     1       8.765   1.263  23.674  0.00  0.00    +0.046 A 
ATOM     10 CL   UNL     1       8.838   2.544  24.833  0.00  0.00    -0.083 Cl
ATOM     11  C   UNL     1       9.575   1.273  22.528  0.00  0.00    -0.032 A 
ATOM     12  C   UNL     1      10.588   2.350  22.261  0.00  0.00    +0.045 C 
ATOM     13  C   UNL     1       9.457   0.214  21.624  0.00  0.00    +0.006 A 
ATOM     14  C   UNL     1       8.590  -0.851  21.883  0.00  0.00    +0.024 A 
ENDBRANCH   4   7
BRANCH   1  15
ATOM     15  C   UNL     1       4.005  -3.246  25.052  0.00  0.00    +0.116 C 
BRANCH  15  16
ATOM     16  C   UNL     1       3.110  -4.366  24.502  0.00  0.00    +0.088 C 
BRANCH  16  17
ATOM     17  S   UNL     1       4.072  -5.475  23.411  0.00  0.00    -0.151 S 
BRANCH  17  18
ATOM     18  C   UNL     1       4.282  -6.881  24.554  0.00  0.00    +0.143 C 
BRANCH  18  21
ATOM     19  C   UNL     1       6.776  -5.589  26.794  0.00  0.00    +0.119 A 
ATOM     20  O   UNL     1       6.256  -5.889  25.565  0.00  0.00    -0.462 OA
ATOM     21  C   UNL     1       5.047  -6.495  25.770  0.00  0.00    +0.115 A 
ATOM     22  C   UNL     1       4.790  -6.570  27.125  0.00  0.00    +0.046 A 
ATOM     23  C   UNL     1       5.901  -5.989  27.783  0.00  0.00    +0.046 A 
BRANCH  19  24
ATOM     24  C   UNL     1       8.114  -4.925  26.813  0.00  0.00    +0.158 C 
BRANCH  24  26
ATOM     25  C   UNL     1       8.478  -2.541  26.516  0.00  0.00    +0.105 C 
ATOM     26  N   UNL     1       8.231  -3.818  25.840  0.00  0.00    -0.301 NA
ATOM     27  C   UNL     1       9.324  -4.098  24.904  0.00  0.00    +0.105 C 
ENDBRANCH  24  26
ENDBRANCH  19  24
ENDBRANCH  18  21
ENDBRANCH  17  18
ENDBRANCH  16  17
ENDBRANCH  15  16
ENDBRANCH   1  15
TORSDOF 8
ENDMDL
