MODEL 1
REMARK VINA RESULT:      -5.6      0.000      0.000
REMARK  Name = 
REMARK  11 active torsions:
REMARK  status: ('A' for Active; 'I' for Inactive)
REMARK    1  A    between atoms: CA_2  and  CB_3
REMARK    2  A    between atoms: CA_2  and  N_10
REMARK    3  A    between atoms: CA_2  and  C_23
REMARK    4  A    between atoms: CB_3  and  CG_4
REMARK    5  A    between atoms: C_11  and  CA_13
REMARK    6  A    between atoms: CA_13  and  CB_15
REMARK    7  A    between atoms: CA_13  and  N_19
REMARK    8  A    between atoms: CB_15  and  CG_16
REMARK    9  A    between atoms: CG_16  and  CD1_17
REMARK   10  A    between atoms: CG_16  and  CD2_18
REMARK   11  A    between atoms: C_20  and  C_21
REMARK                            x       y       z     vdW  Elec       q    Type
REMARK                         _______ _______ _______ _____ _____    ______ ____
ROOT
ATOM      1  N   LEU A   1       7.462  -2.549  23.157  0.00  0.00    -0.304 N 
ATOM      2  H   LEU A   1       7.109  -2.708  24.096  0.00  0.00    +0.149 HD
ATOM      3  C   LEU A   1       8.379  -1.557  22.929  0.00  0.00    +0.234 C 
ATOM      4  O   LEU A   1       8.985  -1.455  21.861  0.00  0.00    -0.274 OA
ENDROOT
BRANCH   1   5
ATOM      5  CA  LEU A   1       7.127  -3.566  22.165  0.00  0.00    +0.140 C 
BRANCH   5   6
ATOM      6  C   LEU A   1       5.650  -3.348  21.860  0.00  0.00    +0.245 C 
ATOM      7  O   LEU A   1       4.765  -4.123  22.219  0.00  0.00    -0.299 OA
ENDBRANCH   5   6
BRANCH   5   8
ATOM      8  CB  LEU A   1       7.386  -4.974  22.706  0.00  0.00    +0.064 C 
BRANCH   8   9
ATOM      9  CG  LEU A   1       7.555  -5.020  24.203  0.00  0.00    -0.045 A 
ATOM     10  CD2 LEU A   1       6.452  -5.281  25.027  0.00  0.00    +0.004 A 
ATOM     11  CE2 LEU A   1       6.604  -5.333  26.412  0.00  0.00    +0.000 A 
ATOM     12  CZ  LEU A   1       7.856  -5.118  26.985  0.00  0.00    +0.000 A 
ATOM     13  CE1 LEU A   1       8.957  -4.854  26.172  0.00  0.00    +0.000 A 
ATOM     14  CD1 LEU A   1       8.810  -4.809  24.785  0.00  0.00    +0.004 A 
ENDBRANCH   8   9
ENDBRANCH   5   8
ENDBRANCH   1   5
BRANCH   3  15
ATOM     15  CA  LEU A   1       8.580  -0.564  24.094  0.00  0.00    +0.159 C 
BRANCH  15  16
ATOM     16  N   LEU A   1       9.039   0.685  23.481  0.00  0.00    -0.304 N 
ATOM     17  H   LEU A   1       8.522   1.004  22.665  0.00  0.00    +0.149 HD
ATOM     18  C   UNK A   0      10.200   1.309  23.852  0.00  0.00    +0.211 C 
ATOM     19  O   UNK A   0      10.930   0.894  24.749  0.00  0.00    -0.276 OA
ATOM     20  C   UNK A   0      10.520   2.556  23.070  0.00  0.00    +0.109 C 
ENDBRANCH  15  16
BRANCH  15  21
ATOM     21  CB  LEU A   1       7.286  -0.318  24.893  0.00  0.00    +0.034 C 
BRANCH  21  22
ATOM     22  CG  LEU A   1       7.314  -0.669  26.396  0.00  0.00    -0.015 C 
ATOM     23  CD2 LEU A   1       8.706  -1.176  26.792  0.00  0.00    +0.007 C 
ATOM     24  CD1 LEU A   1       6.268  -1.714  26.789  0.00  0.00    +0.007 C 
ENDBRANCH  21  22
ENDBRANCH  15  21
ENDBRANCH   3  15
TORSDOF 8
ENDMDL
MODEL 2
REMARK VINA RESULT:      -5.5      1.149      2.971
REMARK  Name = 
REMARK  11 active torsions:
REMARK  status: ('A' for Active; 'I' for Inactive)
REMARK    1  A    between atoms: CA_2  and  CB_3
REMARK    2  A    between atoms: CA_2  and  N_10
REMARK    3  A    between atoms: CA_2  and  C_23
REMARK    4  A    between atoms: CB_3  and  CG_4
REMARK    5  A    between atoms: C_11  and  CA_13
REMARK    6  A    between atoms: CA_13  and  CB_15
REMARK    7  A    between atoms: CA_13  and  N_19
REMARK    8  A    between atoms: CB_15  and  CG_16
REMARK    9  A    between atoms: CG_16  and  CD1_17
REMARK   10  A    between atoms: CG_16  and  CD2_18
REMARK   11  A    between atoms: C_20  and  C_21
REMARK                            x       y       z     vdW  Elec       q    Type
REMARK                         _______ _______ _______ _____ _____    ______ ____
ROOT
ATOM      1  N   LEU A   1       7.386  -2.420  22.840  0.00  0.00    -0.304 N 
ATOM      2  H   LEU A   1       7.002  -2.253  23.766  0.00  0.00    +0.149 HD
ATOM      3  C   LEU A   1       8.472  -1.703  22.410  0.00  0.00    +0.234 C 
ATOM      4  O   LEU A   1       9.094  -2.002  21.389  0.00  0.00    -0.274 OA
ENDROOT
BRANCH   1   5
ATOM      5  CA  LEU A   1       6.877  -3.592  22.137  0.00  0.00    +0.140 C 
BRANCH   5   6
ATOM      6  C   LEU A   1       5.371  -3.568  22.366  0.00  0.00    +0.245 C 
ATOM      7  O   LEU A   1       4.653  -4.560  22.247  0.00  0.00    -0.299 OA
ENDBRANCH   5   6
BRANCH   5   8
ATOM      8  CB  LEU A   1       7.505  -4.879  22.678  0.00  0.00    +0.064 C 
BRANCH   8   9
ATOM      9  CG  LEU A   1       7.674  -4.880  24.175  0.00  0.00    -0.045 A 
ATOM     10  CD2 LEU A   1       8.923  -4.596  24.743  0.00  0.00    +0.004 A 
ATOM     11  CE2 LEU A   1       9.083  -4.587  26.128  0.00  0.00    +0.000 A 
ATOM     12  CZ  LEU A   1       7.999  -4.868  26.956  0.00  0.00    +0.000 A 
ATOM     13  CE1 LEU A   1       6.753  -5.156  26.400  0.00  0.00    +0.000 A 
ATOM     14  CD1 LEU A   1       6.589  -5.158  25.014  0.00  0.00    +0.004 A 
ENDBRANCH   8   9
ENDBRANCH   5   8
ENDBRANCH   1   5
BRANCH   3  15
ATOM     15  CA  LEU A   1       8.843  -0.482  23.278  0.00  0.00    +0.159 C 
BRANCH  15  16
ATOM     16  N   LEU A   1       8.963  -0.986  24.649  0.00  0.00    -0.304 N 
ATOM     17  H   LEU A   1       9.193  -1.972  24.749  0.00  0.00    +0.149 HD
ATOM     18  C   UNK A   0       8.612  -0.244  25.744  0.00  0.00    +0.211 C 
ATOM     19  O   UNK A   0       8.205   0.914  25.670  0.00  0.00    -0.276 OA
ATOM     20  C   UNK A   0       8.765  -0.958  27.062  0.00  0.00    +0.109 C 
ENDBRANCH  15  16
BRANCH  15  21
ATOM     21  CB  LEU A   1      10.163   0.179  22.839  0.00  0.00    +0.034 C 
BRANCH  21  22
ATOM     22  CG  LEU A   1      10.080   1.628  22.312  0.00  0.00    -0.015 C 
ATOM     23  CD2 LEU A   1      10.486   2.612  23.414  0.00  0.00    +0.007 C 
ATOM     24  CD1 LEU A   1       8.691   1.999  21.792  0.00  0.00    +0.007 C 
ENDBRANCH  21  22
ENDBRANCH  15  21
ENDBRANCH   3  15
TORSDOF 8
ENDMDL
MODEL 3
REMARK VINA RESULT:      -5.5      1.837      6.445
REMARK  Name = 
REMARK  11 active torsions:
REMARK  status: ('A' for Active; 'I' for Inactive)
REMARK    1  A    between atoms: CA_2  and  CB_3
REMARK    2  A    between atoms: CA_2  and  N_10
REMARK    3  A    between atoms: CA_2  and  C_23
REMARK    4  A    between atoms: CB_3  and  CG_4
REMARK    5  A    between atoms: C_11  and  CA_13
REMARK    6  A    between atoms: CA_13  and  CB_15
REMARK    7  A    between atoms: CA_13  and  N_19
REMARK    8  A    between atoms: CB_15  and  CG_16
REMARK    9  A    between atoms: CG_16  and  CD1_17
REMARK   10  A    between atoms: CG_16  and  CD2_18
REMARK   11  A    between atoms: C_20  and  C_21
REMARK                            x       y       z     vdW  Elec       q    Type
REMARK                         _______ _______ _______ _____ _____    ______ ____
ROOT
ATOM      1  N   LEU A   1       8.396  -1.660  24.089  0.00  0.00    -0.304 N 
ATOM      2  H   LEU A   1       8.786  -2.105  24.914  0.00  0.00    +0.149 HD
ATOM      3  C   LEU A   1       7.130  -1.981  23.672  0.00  0.00    +0.234 C 
ATOM      4  O   LEU A   1       6.539  -1.331  22.808  0.00  0.00    -0.274 OA
ENDROOT
BRANCH   1   5
ATOM      5  CA  LEU A   1       9.147  -0.529  23.554  0.00  0.00    +0.140 C 
BRANCH   5   6
ATOM      6  C   LEU A   1      10.212  -1.150  22.659  0.00  0.00    +0.245 C 
ATOM      7  O   LEU A   1      10.576  -2.321  22.756  0.00  0.00    -0.299 OA
ENDBRANCH   5   6
BRANCH   5   8
ATOM      8  CB  LEU A   1       9.773   0.301  24.678  0.00  0.00    +0.064 C 
BRANCH   8   9
ATOM      9  CG  LEU A   1       9.743   1.785  24.415  0.00  0.00    -0.045 A 
ATOM     10  CD2 LEU A   1       8.683   2.563  24.900  0.00  0.00    +0.004 A 
ATOM     11  CE2 LEU A   1       8.654   3.938  24.668  0.00  0.00    +0.000 A 
ATOM     12  CZ  LEU A   1       9.678   4.544  23.943  0.00  0.00    +0.000 A 
ATOM     13  CE1 LEU A   1      10.733   3.776  23.453  0.00  0.00    +0.000 A 
ATOM     14  CD1 LEU A   1      10.769   2.402  23.691  0.00  0.00    +0.004 A 
ENDBRANCH   8   9
ENDBRANCH   5   8
ENDBRANCH   1   5
BRANCH   3  15
ATOM     15  CA  LEU A   1       6.510  -3.225  24.342  0.00  0.00    +0.159 C 
BRANCH  15  16
ATOM     16  N   LEU A   1       6.850  -4.358  23.477  0.00  0.00    -0.304 N 
ATOM     17  H   LEU A   1       7.807  -4.698  23.534  0.00  0.00    +0.149 HD
ATOM     18  C   UNK A   0       6.005  -4.830  22.509  0.00  0.00    +0.211 C 
ATOM     19  O   UNK A   0       4.883  -4.369  22.313  0.00  0.00    -0.276 OA
ATOM     20  C   UNK A   0       6.558  -5.970  21.695  0.00  0.00    +0.109 C 
ENDBRANCH  15  16
BRANCH  15  21
ATOM     21  CB  LEU A   1       7.051  -3.464  25.765  0.00  0.00    +0.034 C 
BRANCH  21  22
ATOM     22  CG  LEU A   1       7.690  -4.841  26.049  0.00  0.00    -0.015 C 
ATOM     23  CD2 LEU A   1       7.148  -5.410  27.364  0.00  0.00    +0.007 C 
ATOM     24  CD1 LEU A   1       9.217  -4.792  26.113  0.00  0.00    +0.007 C 
ENDBRANCH  21  22
ENDBRANCH  15  21
ENDBRANCH   3  15
TORSDOF 8
ENDMDL
MODEL 4
REMARK VINA RESULT:      -5.5      2.487      6.160
REMARK  Name = 
REMARK  11 active torsions:
REMARK  status: ('A' for Active; 'I' for Inactive)
REMARK    1  A    between atoms: CA_2  and  CB_3
REMARK    2  A    between atoms: CA_2  and  N_10
REMARK    3  A    between atoms: CA_2  and  C_23
REMARK    4  A    between atoms: CB_3  and  CG_4
REMARK    5  A    between atoms: C_11  and  CA_13
REMARK    6  A    between atoms: CA_13  and  CB_15
REMARK    7  A    between atoms: CA_13  and  N_19
REMARK    8  A    between atoms: CB_15  and  CG_16
REMARK    9  A    between atoms: CG_16  and  CD1_17
REMARK   10  A    between atoms: CG_16  and  CD2_18
REMARK   11  A    between atoms: C_20  and  C_21
REMARK                            x       y       z     vdW  Elec       q    Type
REMARK                         _______ _______ _______ _____ _____    ______ ____
ROOT
ATOM      1  N   LEU A   1       7.095  -1.349  25.587  0.00  0.00    -0.304 N 
ATOM      2  H   LEU A   1       6.649  -1.862  24.831  0.00  0.00    +0.149 HD
ATOM      3  C   LEU A   1       8.254  -1.823  26.145  0.00  0.00    +0.234 C 
ATOM      4  O   LEU A   1       8.936  -1.145  26.915  0.00  0.00    -0.274 OA
ENDROOT
BRANCH   1   5
ATOM      5  CA  LEU A   1       6.573  -0.012  25.849  0.00  0.00    +0.140 C 
BRANCH   5   6
ATOM      6  C   LEU A   1       5.275  -0.238  26.615  0.00  0.00    +0.245 C 
ATOM      7  O   LEU A   1       4.197  -0.462  26.065  0.00  0.00    -0.299 OA
ENDBRANCH   5   6
BRANCH   5   8
ATOM      8  CB  LEU A   1       6.330   0.753  24.546  0.00  0.00    +0.064 C 
BRANCH   8   9
ATOM      9  CG  LEU A   1       7.600   1.153  23.840  0.00  0.00    -0.045 A 
ATOM     10  CD2 LEU A   1       7.664   1.130  22.441  0.00  0.00    +0.004 A 
ATOM     11  CE2 LEU A   1       8.834   1.508  21.782  0.00  0.00    +0.000 A 
ATOM     12  CZ  LEU A   1       9.950   1.904  22.516  0.00  0.00    +0.000 A 
ATOM     13  CE1 LEU A   1       9.896   1.926  23.909  0.00  0.00    +0.000 A 
ATOM     14  CD1 LEU A   1       8.724   1.557  24.570  0.00  0.00    +0.004 A 
ENDBRANCH   8   9
ENDBRANCH   5   8
ENDBRANCH   1   5
BRANCH   3  15
ATOM     15  CA  LEU A   1       8.628  -3.270  25.761  0.00  0.00    +0.159 C 
BRANCH  15  16
ATOM     16  N   LEU A   1       7.363  -4.005  25.687  0.00  0.00    -0.304 N 
ATOM     17  H   LEU A   1       6.642  -3.604  25.092  0.00  0.00    +0.149 HD
ATOM     18  C   UNK A   0       7.076  -5.069  26.499  0.00  0.00    +0.211 C 
ATOM     19  O   UNK A   0       7.866  -5.516  27.327  0.00  0.00    -0.276 OA
ATOM     20  C   UNK A   0       5.704  -5.659  26.299  0.00  0.00    +0.109 C 
ENDBRANCH  15  16
BRANCH  15  21
ATOM     21  CB  LEU A   1       9.369  -3.354  24.413  0.00  0.00    +0.034 C 
BRANCH  21  22
ATOM     22  CG  LEU A   1       9.179  -2.174  23.435  0.00  0.00    -0.015 C 
ATOM     23  CD2 LEU A   1       8.161  -2.549  22.352  0.00  0.00    +0.007 C 
ATOM     24  CD1 LEU A   1      10.482  -1.731  22.768  0.00  0.00    +0.007 C 
ENDBRANCH  21  22
ENDBRANCH  15  21
ENDBRANCH   3  15
TORSDOF 8
ENDMDL
MODEL 5
REMARK VINA RESULT:      -5.5      1.960      6.612
REMARK  Name = 
REMARK  11 active torsions:
REMARK  status: ('A' for Active; 'I' for Inactive)
REMARK    1  A    between atoms: CA_2  and  CB_3
REMARK    2  A    between atoms: CA_2  and  N_10
REMARK    3  A    between atoms: CA_2  and  C_23
REMARK    4  A    between atoms: CB_3  and  CG_4
REMARK    5  A    between atoms: C_11  and  CA_13
REMARK    6  A    between atoms: CA_13  and  CB_15
REMARK    7  A    between atoms: CA_13  and  N_19
REMARK    8  A    between atoms: CB_15  and  CG_16
REMARK    9  A    between atoms: CG_16  and  CD1_17
REMARK   10  A    between atoms: CG_16  and  CD2_18
REMARK   11  A    between atoms: C_20  and  C_21
REMARK                            x       y       z     vdW  Elec       q    Type
REMARK                         _______ _______ _______ _____ _____    ______ ____
ROOT
ATOM      1  N   LEU A   1       8.829  -1.055  23.208  0.00  0.00    -0.304 N 
ATOM      2  H   LEU A   1       7.990  -0.572  22.899  0.00  0.00    +0.149 HD
ATOM      3  C   LEU A   1       8.775  -2.388  23.520  0.00  0.00    +0.234 C 
ATOM      4  O   LEU A   1       9.790  -3.062  23.702  0.00  0.00    -0.274 OA
ENDROOT
BRANCH   1   5
ATOM      5  CA  LEU A   1      10.082  -0.322  23.062  0.00  0.00    +0.140 C 
BRANCH   5   6
ATOM      6  C   LEU A   1      10.319   0.330  24.419  0.00  0.00    +0.245 C 
ATOM      7  O   LEU A   1      11.433   0.661  24.824  0.00  0.00    -0.299 OA
ENDBRANCH   5   6
BRANCH   5   8
ATOM      8  CB  LEU A   1       9.986   0.723  21.947  0.00  0.00    +0.064 C 
BRANCH   8   9
ATOM      9  CG  LEU A   1       9.036   1.849  22.262  0.00  0.00    -0.045 A 
ATOM     10  CD2 LEU A   1       9.437   2.893  23.106  0.00  0.00    +0.004 A 
ATOM     11  CE2 LEU A   1       8.565   3.943  23.393  0.00  0.00    +0.000 A 
ATOM     12  CZ  LEU A   1       7.284   3.954  22.845  0.00  0.00    +0.000 A 
ATOM     13  CE1 LEU A   1       6.875   2.917  22.008  0.00  0.00    +0.000 A 
ATOM     14  CD1 LEU A   1       7.749   1.870  21.712  0.00  0.00    +0.004 A 
ENDBRANCH   8   9
ENDBRANCH   5   8
ENDBRANCH   1   5
BRANCH   3  15
ATOM     15  CA  LEU A   1       7.355  -2.978  23.651  0.00  0.00    +0.159 C 
BRANCH  15  16
ATOM     16  N   LEU A   1       7.322  -4.146  22.766  0.00  0.00    -0.304 N 
ATOM     17  H   LEU A   1       8.188  -4.673  22.682  0.00  0.00    +0.149 HD
ATOM     18  C   UNK A   0       6.260  -4.426  21.949  0.00  0.00    +0.211 C 
ATOM     19  O   UNK A   0       5.237  -3.746  21.919  0.00  0.00    -0.276 OA
ATOM     20  C   UNK A   0       6.440  -5.645  21.082  0.00  0.00    +0.109 C 
ENDBRANCH  15  16
BRANCH  15  21
ATOM     21  CB  LEU A   1       7.018  -3.399  25.094  0.00  0.00    +0.034 C 
BRANCH  21  22
ATOM     22  CG  LEU A   1       7.394  -4.837  25.511  0.00  0.00    -0.015 C 
ATOM     23  CD2 LEU A   1       6.153  -5.577  26.021  0.00  0.00    +0.007 C 
ATOM     24  CD1 LEU A   1       8.485  -4.886  26.582  0.00  0.00    +0.007 C 
ENDBRANCH  21  22
ENDBRANCH  15  21
ENDBRANCH   3  15
TORSDOF 8
ENDMDL
MODEL 6
REMARK VINA RESULT:      -5.5      2.270      4.064
REMARK  Name = 
REMARK  11 active torsions:
REMARK  status: ('A' for Active; 'I' for Inactive)
REMARK    1  A    between atoms: CA_2  and  CB_3
REMARK    2  A    between atoms: CA_2  and  N_10
REMARK    3  A    between atoms: CA_2  and  C_23
REMARK    4  A    between atoms: CB_3  and  CG_4
REMARK    5  A    between atoms: C_11  and  CA_13
REMARK    6  A    between atoms: CA_13  and  CB_15
REMARK    7  A    between atoms: CA_13  and  N_19
REMARK    8  A    between atoms: CB_15  and  CG_16
REMARK    9  A    between atoms: CG_16  and  CD1_17
REMARK   10  A    between atoms: CG_16  and  CD2_18
REMARK   11  A    between atoms: C_20  and  C_21
REMARK                            x       y       z     vdW  Elec       q    Type
REMARK                         _______ _______ _______ _____ _____    ______ ____
ROOT
ATOM      1  N   LEU A   1       8.407  -2.752  25.252  0.00  0.00    -0.304 N 
ATOM      2  H   LEU A   1       8.208  -2.881  24.264  0.00  0.00    +0.149 HD
ATOM      3  C   LEU A   1       8.586  -1.489  25.754  0.00  0.00    +0.234 C 
ATOM      4  O   LEU A   1       8.627  -1.264  26.965  0.00  0.00    -0.274 OA
ENDROOT
BRANCH   1   5
ATOM      5  CA  LEU A   1       8.249  -3.930  26.097  0.00  0.00    +0.140 C 
BRANCH   5   6
ATOM      6  C   LEU A   1       9.582  -4.662  26.010  0.00  0.00    +0.245 C 
ATOM      7  O   LEU A   1      10.182  -4.849  24.952  0.00  0.00    -0.299 OA
ENDBRANCH   5   6
BRANCH   5   8
ATOM      8  CB  LEU A   1       7.094  -4.809  25.611  0.00  0.00    +0.064 C 
BRANCH   8   9
ATOM      9  CG  LEU A   1       6.723  -4.570  24.170  0.00  0.00    -0.045 A 
ATOM     10  CD2 LEU A   1       5.773  -3.593  23.841  0.00  0.00    +0.004 A 
ATOM     11  CE2 LEU A   1       5.434  -3.361  22.509  0.00  0.00    +0.000 A 
ATOM     12  CZ  LEU A   1       6.034  -4.107  21.496  0.00  0.00    +0.000 A 
ATOM     13  CE1 LEU A   1       6.976  -5.083  21.816  0.00  0.00    +0.000 A 
ATOM     14  CD1 LEU A   1       7.325  -5.311  23.147  0.00  0.00    +0.004 A 
ENDBRANCH   8   9
ENDBRANCH   5   8
ENDBRANCH   1   5
BRANCH   3  15
ATOM     15  CA  LEU A   1       8.756  -0.376  24.699  0.00  0.00    +0.159 C 
BRANCH  15  16
ATOM     16  N   LEU A   1       8.596   0.889  25.420  0.00  0.00    -0.304 N 
ATOM     17  H   LEU A   1       9.022   0.939  26.343  0.00  0.00    +0.149 HD
ATOM     18  C   UNK A   0       7.775   1.893  24.983  0.00  0.00    +0.211 C 
ATOM     19  O   UNK A   0       7.136   1.830  23.935  0.00  0.00    -0.276 OA
ATOM     20  C   UNK A   0       7.712   3.094  25.890  0.00  0.00    +0.109 C 
ENDBRANCH  15  16
BRANCH  15  21
ATOM     21  CB  LEU A   1      10.131  -0.421  24.006  0.00  0.00    +0.034 C 
BRANCH  21  22
ATOM     22  CG  LEU A   1      10.136  -0.544  22.467  0.00  0.00    -0.015 C 
ATOM     23  CD2 LEU A   1       9.809   0.811  21.831  0.00  0.00    +0.007 C 
ATOM     24  CD1 LEU A   1       9.156  -1.595  21.945  0.00  0.00    +0.007 C 
ENDBRANCH  21  22
ENDBRANCH  15  21
ENDBRANCH   3  15
TORSDOF 8
ENDMDL
MODEL 7
REMARK VINA RESULT:      -5.4      2.237      7.010
REMARK  Name = 
REMARK  11 active torsions:
REMARK  status: ('A' for Active; 'I' for Inactive)
REMARK    1  A    between atoms: CA_2  and  CB_3
REMARK    2  A    between atoms: CA_2  and  N_10
REMARK    3  A    between atoms: CA_2  and  C_23
REMARK    4  A    between atoms: CB_3  and  CG_4
REMARK    5  A    between atoms: C_11  and  CA_13
REMARK    6  A    between atoms: CA_13  and  CB_15
REMARK    7  A    between atoms: CA_13  and  N_19
REMARK    8  A    between atoms: CB_15  and  CG_16
REMARK    9  A    between atoms: CG_16  and  CD1_17
REMARK   10  A    between atoms: CG_16  and  CD2_18
REMARK   11  A    between atoms: C_20  and  C_21
REMARK                            x       y       z     vdW  Elec       q    Type
REMARK                         _______ _______ _______ _____ _____    ______ ____
ROOT
ATOM      1  N   LEU A   1       9.022  -0.562  22.895  0.00  0.00    -0.304 N 
ATOM      2  H   LEU A   1       9.791  -0.949  22.356  0.00  0.00    +0.149 HD
ATOM      3  C   LEU A   1       8.237  -1.388  23.657  0.00  0.00    +0.234 C 
ATOM      4  O   LEU A   1       7.429  -0.951  24.479  0.00  0.00    -0.274 OA
ENDROOT
BRANCH   1   5
ATOM      5  CA  LEU A   1       8.975   0.893  22.991  0.00  0.00    +0.140 C 
BRANCH   5   6
ATOM      6  C   LEU A   1       8.665   1.372  21.579  0.00  0.00    +0.245 C 
ATOM      7  O   LEU A   1       7.684   2.060  21.299  0.00  0.00    -0.299 OA
ENDBRANCH   5   6
BRANCH   5   8
ATOM      8  CB  LEU A   1      10.304   1.459  23.496  0.00  0.00    +0.064 C 
BRANCH   8   9
ATOM      9  CG  LEU A   1      10.277   2.950  23.714  0.00  0.00    -0.045 A 
ATOM     10  CD2 LEU A   1      11.371   3.737  23.328  0.00  0.00    +0.004 A 
ATOM     11  CE2 LEU A   1      11.347   5.118  23.518  0.00  0.00    +0.000 A 
ATOM     12  CZ  LEU A   1      10.236   5.722  24.102  0.00  0.00    +0.000 A 
ATOM     13  CE1 LEU A   1       9.146   4.946  24.492  0.00  0.00    +0.000 A 
ATOM     14  CD1 LEU A   1       9.163   3.565  24.295  0.00  0.00    +0.004 A 
ENDBRANCH   8   9
ENDBRANCH   5   8
ENDBRANCH   1   5
BRANCH   3  15
ATOM     15  CA  LEU A   1       8.418  -2.898  23.395  0.00  0.00    +0.159 C 
BRANCH  15  16
ATOM     16  N   LEU A   1       8.143  -3.563  24.671  0.00  0.00    -0.304 N 
ATOM     17  H   LEU A   1       7.294  -3.279  25.154  0.00  0.00    +0.149 HD
ATOM     18  C   UNK A   0       9.048  -4.384  25.288  0.00  0.00    +0.211 C 
ATOM     19  O   UNK A   0      10.144  -4.658  24.807  0.00  0.00    -0.276 OA
ATOM     20  C   UNK A   0       8.594  -4.933  26.616  0.00  0.00    +0.109 C 
ENDBRANCH  15  16
BRANCH  15  21
ATOM     21  CB  LEU A   1       7.467  -3.429  22.306  0.00  0.00    +0.034 C 
BRANCH  21  22
ATOM     22  CG  LEU A   1       6.696  -4.729  22.621  0.00  0.00    -0.015 C 
ATOM     23  CD2 LEU A   1       6.974  -5.780  21.541  0.00  0.00    +0.007 C 
ATOM     24  CD1 LEU A   1       5.186  -4.519  22.742  0.00  0.00    +0.007 C 
ENDBRANCH  21  22
ENDBRANCH  15  21
ENDBRANCH   3  15
TORSDOF 8
ENDMDL
MODEL 8
REMARK VINA RESULT:      -5.4      2.590      6.253
REMARK  Name = 
REMARK  11 active torsions:
REMARK  status: ('A' for Active; 'I' for Inactive)
REMARK    1  A    between atoms: CA_2  and  CB_3
REMARK    2  A    between atoms: CA_2  and  N_10
REMARK    3  A    between atoms: CA_2  and  C_23
REMARK    4  A    between atoms: CB_3  and  CG_4
REMARK    5  A    between atoms: C_11  and  CA_13
REMARK    6  A    between atoms: CA_13  and  CB_15
REMARK    7  A    between atoms: CA_13  and  N_19
REMARK    8  A    between atoms: CB_15  and  CG_16
REMARK    9  A    between atoms: CG_16  and  CD1_17
REMARK   10  A    between atoms: CG_16  and  CD2_18
REMARK   11  A    between atoms: C_20  and  C_21
REMARK                            x       y       z     vdW  Elec       q    Type
REMARK                         _______ _______ _______ _____ _____    ______ ____
ROOT
ATOM      1  N   LEU A   1       7.030  -2.806  25.589  0.00  0.00    -0.304 N 
ATOM      2  H   LEU A   1       6.806  -2.702  24.604  0.00  0.00    +0.149 HD
ATOM      3  C   LEU A   1       7.435  -4.022  26.074  0.00  0.00    +0.234 C 
ATOM      4  O   LEU A   1       7.908  -4.153  27.205  0.00  0.00    -0.274 OA
ENDROOT
BRANCH   1   5
ATOM      5  CA  LEU A   1       7.126  -1.569  26.358  0.00  0.00    +0.140 C 
BRANCH   5   6
ATOM      6  C   LEU A   1       5.894  -0.763  25.966  0.00  0.00    +0.245 C 
ATOM      7  O   LEU A   1       5.049  -1.167  25.168  0.00  0.00    -0.299 OA
ENDBRANCH   5   6
BRANCH   5   8
ATOM      8  CB  LEU A   1       8.417  -0.814  26.036  0.00  0.00    +0.064 C 
BRANCH   8   9
ATOM      9  CG  LEU A   1       8.802  -0.880  24.580  0.00  0.00    -0.045 A 
ATOM     10  CD2 LEU A   1       9.775  -1.793  24.151  0.00  0.00    +0.004 A 
ATOM     11  CE2 LEU A   1      10.129  -1.865  22.804  0.00  0.00    +0.000 A 
ATOM     12  CZ  LEU A   1       9.520  -1.022  21.877  0.00  0.00    +0.000 A 
ATOM     13  CE1 LEU A   1       8.554  -0.108  22.297  0.00  0.00    +0.000 A 
ATOM     14  CD1 LEU A   1       8.191  -0.040  23.642  0.00  0.00    +0.004 A 
ENDBRANCH   8   9
ENDBRANCH   5   8
ENDBRANCH   1   5
BRANCH   3  15
ATOM     15  CA  LEU A   1       7.233  -5.215  25.117  0.00  0.00    +0.159 C 
BRANCH  15  16
ATOM     16  N   LEU A   1       5.789  -5.460  25.080  0.00  0.00    -0.304 N 
ATOM     17  H   LEU A   1       5.257  -4.920  24.402  0.00  0.00    +0.149 HD
ATOM     18  C   UNK A   0       5.144  -6.227  26.013  0.00  0.00    +0.211 C 
ATOM     19  O   UNK A   0       5.726  -6.800  26.931  0.00  0.00    -0.276 OA
ATOM     20  C   UNK A   0       3.652  -6.319  25.827  0.00  0.00    +0.109 C 
ENDBRANCH  15  16
BRANCH  15  21
ATOM     21  CB  LEU A   1       7.759  -4.931  23.697  0.00  0.00    +0.034 C 
BRANCH  21  22
ATOM     22  CG  LEU A   1       6.706  -4.785  22.577  0.00  0.00    -0.015 C 
ATOM     23  CD2 LEU A   1       7.018  -5.756  21.433  0.00  0.00    +0.007 C 
ATOM     24  CD1 LEU A   1       6.615  -3.364  22.019  0.00  0.00    +0.007 C 
ENDBRANCH  21  22
ENDBRANCH  15  21
ENDBRANCH   3  15
TORSDOF 8
ENDMDL
MODEL 9
REMARK VINA RESULT:      -5.4      2.406      4.575
REMARK  Name = 
REMARK  11 active torsions:
REMARK  status: ('A' for Active; 'I' for Inactive)
REMARK    1  A    between atoms: CA_2  and  CB_3
REMARK    2  A    between atoms: CA_2  and  N_10
REMARK    3  A    between atoms: CA_2  and  C_23
REMARK    4  A    between atoms: CB_3  and  CG_4
REMARK    5  A    between atoms: C_11  and  CA_13
REMARK    6  A    between atoms: CA_13  and  CB_15
REMARK    7  A    between atoms: CA_13  and  N_19
REMARK    8  A    between atoms: CB_15  and  CG_16
REMARK    9  A    between atoms: CG_16  and  CD1_17
REMARK   10  A    between atoms: CG_16  and  CD2_18
REMARK   11  A    between atoms: C_20  and  C_21
REMARK                            x       y       z     vdW  Elec       q    Type
REMARK                         _______ _______ _______ _____ _____    ______ ____
ROOT
ATOM      1  N   LEU A   1       8.937   0.745  23.349  0.00  0.00    -0.304 N 
ATOM      2  H   LEU A   1       8.085   1.142  22.965  0.00  0.00    +0.149 HD
ATOM      3  C   LEU A   1       9.877   1.564  23.920  0.00  0.00    +0.234 C 
ATOM      4  O   LEU A   1      10.822   1.121  24.574  0.00  0.00    -0.274 OA
ENDROOT
BRANCH   1   5
ATOM      5  CA  LEU A   1       8.971  -0.709  23.466  0.00  0.00    +0.140 C 
BRANCH   5   6
ATOM      6  C   LEU A   1       9.722  -1.188  22.230  0.00  0.00    +0.245 C 
ATOM      7  O   LEU A   1      10.766  -1.836  22.283  0.00  0.00    -0.299 OA
ENDBRANCH   5   6
BRANCH   5   8
ATOM      8  CB  LEU A   1       7.557  -1.293  23.526  0.00  0.00    +0.064 C 
BRANCH   8   9
ATOM      9  CG  LEU A   1       7.512  -2.779  23.277  0.00  0.00    -0.045 A 
ATOM     10  CD2 LEU A   1       8.131  -3.661  24.173  0.00  0.00    +0.004 A 
ATOM     11  CE2 LEU A   1       8.084  -5.037  23.952  0.00  0.00    +0.000 A 
ATOM     12  CZ  LEU A   1       7.426  -5.542  22.832  0.00  0.00    +0.000 A 
ATOM     13  CE1 LEU A   1       6.812  -4.670  21.934  0.00  0.00    +0.000 A 
ATOM     14  CD1 LEU A   1       6.850  -3.294  22.157  0.00  0.00    +0.004 A 
ENDBRANCH   8   9
ENDBRANCH   5   8
ENDBRANCH   1   5
BRANCH   3  15
ATOM     15  CA  LEU A   1       9.680   3.073  23.665  0.00  0.00    +0.159 C 
BRANCH  15  16
ATOM     16  N   LEU A   1      10.989   3.583  23.246  0.00  0.00    -0.304 N 
ATOM     17  H   LEU A   1      11.636   2.900  22.860  0.00  0.00    +0.149 HD
ATOM     18  C   UNK A   0      11.407   4.858  23.515  0.00  0.00    +0.211 C 
ATOM     19  O   UNK A   0      10.709   5.687  24.094  0.00  0.00    -0.276 OA
ATOM     20  C   UNK A   0      12.802   5.174  23.042  0.00  0.00    +0.109 C 
ENDBRANCH  15  16
BRANCH  15  21
ATOM     21  CB  LEU A   1       8.627   3.358  22.578  0.00  0.00    +0.034 C 
BRANCH  21  22
ATOM     22  CG  LEU A   1       7.442   4.265  22.972  0.00  0.00    -0.015 C 
ATOM     23  CD2 LEU A   1       6.122   3.503  22.811  0.00  0.00    +0.007 C 
ATOM     24  CD1 LEU A   1       7.378   5.559  22.158  0.00  0.00    +0.007 C 
ENDBRANCH  21  22
ENDBRANCH  15  21
ENDBRANCH   3  15
TORSDOF 8
ENDMDL
