MODEL 1
REMARK VINA RESULT:      -3.8      0.000      0.000
REMARK  Name = 
REMARK  7 active torsions:
REMARK  status: ('A' for Active; 'I' for Inactive)
REMARK    1  A    between atoms: CE_1  and  SD_2
REMARK    2  A    between atoms: SD_2  and  CG_3
REMARK    3  A    between atoms: CG_3  and  CB_4
REMARK    4  A    between atoms: CB_4  and  CA_5
REMARK    5  A    between atoms: CA_5  and  N_7
REMARK    6  A    between atoms: CA_5  and  C_8
REMARK    7  A    between atoms: C_8  and  O_9
REMARK                            x       y       z     vdW  Elec       q    Type
REMARK                         _______ _______ _______ _____ _____    ______ ____
ROOT
ATOM      1  CA  MET A   1       9.080  -4.620  25.281  0.00  0.00    +0.161 C 
ENDROOT
BRANCH   1   2
ATOM      2  N   MET A   1       9.988  -5.805  25.311  0.00  0.00    -0.318 NA
ATOM      3  H1  MET A   1       9.489  -6.593  24.884  0.00  0.00    +0.119 HD
ATOM      4  H2  MET A   1      10.762  -5.623  24.660  0.00  0.00    +0.119 HD
ENDBRANCH   1   2
BRANCH   1   5
ATOM      5  C   MET A   1       8.156  -4.679  26.507  0.00  0.00    +0.322 C 
ATOM      6  OXT MET A   1       7.443  -3.771  26.897  0.00  0.00    -0.249 OA
BRANCH   5   7
ATOM      7  O   MET A   1       8.198  -5.908  27.089  0.00  0.00    -0.480 OA
ATOM      8  H   MET A   1       8.860  -5.848  27.821  0.00  0.00    +0.295 HD
ENDBRANCH   5   7
ENDBRANCH   1   5
BRANCH   1   9
ATOM      9  CB  MET A   1       8.255  -4.564  23.988  0.00  0.00    +0.040 C 
BRANCH   9  10
ATOM     10  CG  MET A   1       8.232  -3.178  23.336  0.00  0.00    +0.071 C 
BRANCH  10  12
ATOM     11  CE  MET A   1      10.010  -1.424  22.195  0.00  0.00    +0.084 C 
ATOM     12  SD  MET A   1       9.724  -2.237  23.787  0.00  0.00    -0.164 S 
ENDBRANCH  10  12
ENDBRANCH   9  10
ENDBRANCH   1   9
TORSDOF 6
ENDMDL
MODEL 2
REMARK VINA RESULT:      -3.7      2.093      2.383
REMARK  Name = 
REMARK  7 active torsions:
REMARK  status: ('A' for Active; 'I' for Inactive)
REMARK    1  A    between atoms: CE_1  and  SD_2
REMARK    2  A    between atoms: SD_2  and  CG_3
REMARK    3  A    between atoms: CG_3  and  CB_4
REMARK    4  A    between atoms: CB_4  and  CA_5
REMARK    5  A    between atoms: CA_5  and  N_7
REMARK    6  A    between atoms: CA_5  and  C_8
REMARK    7  A    between atoms: C_8  and  O_9
REMARK                            x       y       z     vdW  Elec       q    Type
REMARK                         _______ _______ _______ _____ _____    ______ ____
ROOT
ATOM      1  CA  MET A   1       8.027  -4.856  26.107  0.00  0.00    +0.161 C 
ENDROOT
BRANCH   1   2
ATOM      2  N   MET A   1       8.008  -5.704  27.337  0.00  0.00    -0.318 NA
ATOM      3  H1  MET A   1       8.180  -6.674  27.050  0.00  0.00    +0.119 HD
ATOM      4  H2  MET A   1       8.835  -5.463  27.896  0.00  0.00    +0.119 HD
ENDBRANCH   1   2
BRANCH   1   5
ATOM      5  C   MET A   1       9.100  -5.401  25.152  0.00  0.00    +0.322 C 
ATOM      6  OXT MET A   1       8.935  -5.637  23.968  0.00  0.00    -0.249 OA
BRANCH   5   7
ATOM      7  O   MET A   1      10.292  -5.548  25.791  0.00  0.00    -0.480 OA
ATOM      8  H   MET A   1      10.079  -5.796  26.725  0.00  0.00    +0.295 HD
ENDBRANCH   5   7
ENDBRANCH   1   5
BRANCH   1   9
ATOM      9  CB  MET A   1       8.297  -3.381  26.434  0.00  0.00    +0.040 C 
BRANCH   9  10
ATOM     10  CG  MET A   1       7.794  -2.414  25.357  0.00  0.00    +0.071 C 
BRANCH  10  12
ATOM     11  CE  MET A   1       9.893  -2.184  23.602  0.00  0.00    +0.084 C 
ATOM     12  SD  MET A   1       9.096  -1.221  24.913  0.00  0.00    -0.164 S 
ENDBRANCH  10  12
ENDBRANCH   9  10
ENDBRANCH   1   9
TORSDOF 6
ENDMDL
MODEL 3
REMARK VINA RESULT:      -3.7      2.797      3.089
REMARK  Name = 
REMARK  7 active torsions:
REMARK  status: ('A' for Active; 'I' for Inactive)
REMARK    1  A    between atoms: CE_1  and  SD_2
REMARK    2  A    between atoms: SD_2  and  CG_3
REMARK    3  A    between atoms: CG_3  and  CB_4
REMARK    4  A    between atoms: CB_4  and  CA_5
REMARK    5  A    between atoms: CA_5  and  N_7
REMARK    6  A    between atoms: CA_5  and  C_8
REMARK    7  A    between atoms: C_8  and  O_9
REMARK                            x       y       z     vdW  Elec       q    Type
REMARK                         _______ _______ _______ _____ _____    ______ ____
ROOT
ATOM      1  CA  MET A   1       8.159  -5.286  25.553  0.00  0.00    +0.161 C 
ENDROOT
BRANCH   1   2
ATOM      2  N   MET A   1       8.227  -5.535  27.024  0.00  0.00    -0.318 NA
ATOM      3  H1  MET A   1       7.520  -4.944  27.475  0.00  0.00    +0.119 HD
ATOM      4  H2  MET A   1       7.891  -6.491  27.195  0.00  0.00    +0.119 HD
ENDBRANCH   1   2
BRANCH   1   5
ATOM      5  C   MET A   1       9.528  -4.774  25.079  0.00  0.00    +0.322 C 
ATOM      6  OXT MET A   1       9.713  -3.772  24.411  0.00  0.00    -0.249 OA
BRANCH   5   7
ATOM      7  O   MET A   1      10.531  -5.566  25.544  0.00  0.00    -0.480 OA
ATOM      8  H   MET A   1      10.132  -6.139  26.244  0.00  0.00    +0.295 HD
ENDBRANCH   5   7
ENDBRANCH   1   5
BRANCH   1   9
ATOM      9  CB  MET A   1       7.055  -4.281  25.194  0.00  0.00    +0.040 C 
BRANCH   9  10
ATOM     10  CG  MET A   1       6.119  -4.772  24.085  0.00  0.00    +0.071 C 
BRANCH  10  12
ATOM     11  CE  MET A   1       6.998  -5.962  21.772  0.00  0.00    +0.084 C 
ATOM     12  SD  MET A   1       6.764  -4.299  22.450  0.00  0.00    -0.164 S 
ENDBRANCH  10  12
ENDBRANCH   9  10
ENDBRANCH   1   9
TORSDOF 6
ENDMDL
MODEL 4
REMARK VINA RESULT:      -3.6      1.849      2.373
REMARK  Name = 
REMARK  7 active torsions:
REMARK  status: ('A' for Active; 'I' for Inactive)
REMARK    1  A    between atoms: CE_1  and  SD_2
REMARK    2  A    between atoms: SD_2  and  CG_3
REMARK    3  A    between atoms: CG_3  and  CB_4
REMARK    4  A    between atoms: CB_4  and  CA_5
REMARK    5  A    between atoms: CA_5  and  N_7
REMARK    6  A    between atoms: CA_5  and  C_8
REMARK    7  A    between atoms: C_8  and  O_9
REMARK                            x       y       z     vdW  Elec       q    Type
REMARK                         _______ _______ _______ _____ _____    ______ ____
ROOT
ATOM      1  CA  MET A   1       9.204  -4.564  25.691  0.00  0.00    +0.161 C 
ENDROOT
BRANCH   1   2
ATOM      2  N   MET A   1       9.837  -5.911  25.570  0.00  0.00    -0.318 NA
ATOM      3  H1  MET A   1       9.272  -6.572  26.114  0.00  0.00    +0.119 HD
ATOM      4  H2  MET A   1       9.717  -6.227  24.600  0.00  0.00    +0.119 HD
ENDBRANCH   1   2
BRANCH   1   5
ATOM      5  C   MET A   1       8.060  -4.650  26.714  0.00  0.00    +0.322 C 
ATOM      6  OXT MET A   1       7.218  -3.789  26.903  0.00  0.00    -0.249 OA
BRANCH   5   7
ATOM      7  O   MET A   1       8.075  -5.845  27.362  0.00  0.00    -0.480 OA
ATOM      8  H   MET A   1       7.133  -6.136  27.433  0.00  0.00    +0.295 HD
ENDBRANCH   5   7
ENDBRANCH   1   5
BRANCH   1   9
ATOM      9  CB  MET A   1       8.681  -4.053  24.341  0.00  0.00    +0.040 C 
BRANCH   9  10
ATOM     10  CG  MET A   1       7.784  -5.059  23.613  0.00  0.00    +0.071 C 
BRANCH  10  12
ATOM     11  CE  MET A   1       6.532  -5.712  21.258  0.00  0.00    +0.084 C 
ATOM     12  SD  MET A   1       6.880  -4.244  22.259  0.00  0.00    -0.164 S 
ENDBRANCH  10  12
ENDBRANCH   9  10
ENDBRANCH   1   9
TORSDOF 6
ENDMDL
MODEL 5
REMARK VINA RESULT:      -3.6      2.633      3.165
REMARK  Name = 
REMARK  7 active torsions:
REMARK  status: ('A' for Active; 'I' for Inactive)
REMARK    1  A    between atoms: CE_1  and  SD_2
REMARK    2  A    between atoms: SD_2  and  CG_3
REMARK    3  A    between atoms: CG_3  and  CB_4
REMARK    4  A    between atoms: CB_4  and  CA_5
REMARK    5  A    between atoms: CA_5  and  N_7
REMARK    6  A    between atoms: CA_5  and  C_8
REMARK    7  A    between atoms: C_8  and  O_9
REMARK                            x       y       z     vdW  Elec       q    Type
REMARK                         _______ _______ _______ _____ _____    ______ ____
ROOT
ATOM      1  CA  MET A   1       8.817  -3.831  24.667  0.00  0.00    +0.161 C 
ENDROOT
BRANCH   1   2
ATOM      2  N   MET A   1      10.004  -3.198  24.017  0.00  0.00    -0.318 NA
ATOM      3  H1  MET A   1      10.232  -2.347  24.543  0.00  0.00    +0.119 HD
ATOM      4  H2  MET A   1      10.813  -3.810  24.177  0.00  0.00    +0.119 HD
ENDBRANCH   1   2
BRANCH   1   5
ATOM      5  C   MET A   1       9.309  -4.747  25.798  0.00  0.00    +0.322 C 
ATOM      6  OXT MET A   1       8.925  -4.706  26.954  0.00  0.00    -0.249 OA
BRANCH   5   7
ATOM      7  O   MET A   1      10.208  -5.655  25.334  0.00  0.00    -0.480 OA
ATOM      8  H   MET A   1       9.736  -6.524  25.302  0.00  0.00    +0.295 HD
ENDBRANCH   5   7
ENDBRANCH   1   5
BRANCH   1   9
ATOM      9  CB  MET A   1       7.971  -4.624  23.662  0.00  0.00    +0.040 C 
BRANCH   9  10
ATOM     10  CG  MET A   1       6.644  -5.125  24.241  0.00  0.00    +0.071 C 
BRANCH  10  12
ATOM     11  CE  MET A   1       6.868  -5.912  21.620  0.00  0.00    +0.084 C 
ATOM     12  SD  MET A   1       5.626  -5.886  22.938  0.00  0.00    -0.164 S 
ENDBRANCH  10  12
ENDBRANCH   9  10
ENDBRANCH   1   9
TORSDOF 6
ENDMDL
MODEL 6
REMARK VINA RESULT:      -3.5      5.198      6.276
REMARK  Name = 
REMARK  7 active torsions:
REMARK  status: ('A' for Active; 'I' for Inactive)
REMARK    1  A    between atoms: CE_1  and  SD_2
REMARK    2  A    between atoms: SD_2  and  CG_3
REMARK    3  A    between atoms: CG_3  and  CB_4
REMARK    4  A    between atoms: CB_4  and  CA_5
REMARK    5  A    between atoms: CA_5  and  N_7
REMARK    6  A    between atoms: CA_5  and  C_8
REMARK    7  A    between atoms: C_8  and  O_9
REMARK                            x       y       z     vdW  Elec       q    Type
REMARK                         _______ _______ _______ _____ _____    ______ ____
ROOT
ATOM      1  CA  MET A   1      10.496   0.897  23.557  0.00  0.00    +0.161 C 
ENDROOT
BRANCH   1   2
ATOM      2  N   MET A   1      10.130   0.945  25.004  0.00  0.00    -0.318 NA
ATOM      3  H1  MET A   1      10.900   0.524  25.536  0.00  0.00    +0.119 HD
ATOM      4  H2  MET A   1      10.139   1.929  25.297  0.00  0.00    +0.119 HD
ENDBRANCH   1   2
BRANCH   1   5
ATOM      5  C   MET A   1      10.290   2.296  22.953  0.00  0.00    +0.322 C 
ATOM      6  OXT MET A   1      10.285   3.340  23.581  0.00  0.00    -0.249 OA
BRANCH   5   7
ATOM      7  O   MET A   1      10.157   2.228  21.601  0.00  0.00    -0.480 OA
ATOM      8  H   MET A   1       9.341   2.739  21.376  0.00  0.00    +0.295 HD
ENDBRANCH   5   7
ENDBRANCH   1   5
BRANCH   1   9
ATOM      9  CB  MET A   1       9.670  -0.145  22.792  0.00  0.00    +0.040 C 
BRANCH   9  10
ATOM     10  CG  MET A   1      10.329  -1.527  22.736  0.00  0.00    +0.071 C 
BRANCH  10  12
ATOM     11  CE  MET A   1       8.051  -3.033  23.019  0.00  0.00    +0.084 C 
ATOM     12  SD  MET A   1       9.560  -2.650  23.944  0.00  0.00    -0.164 S 
ENDBRANCH  10  12
ENDBRANCH   9  10
ENDBRANCH   1   9
TORSDOF 6
ENDMDL
MODEL 7
REMARK VINA RESULT:      -3.5      5.361      6.493
REMARK  Name = 
REMARK  7 active torsions:
REMARK  status: ('A' for Active; 'I' for Inactive)
REMARK    1  A    between atoms: CE_1  and  SD_2
REMARK    2  A    between atoms: SD_2  and  CG_3
REMARK    3  A    between atoms: CG_3  and  CB_4
REMARK    4  A    between atoms: CB_4  and  CA_5
REMARK    5  A    between atoms: CA_5  and  N_7
REMARK    6  A    between atoms: CA_5  and  C_8
REMARK    7  A    between atoms: C_8  and  O_9
REMARK                            x       y       z     vdW  Elec       q    Type
REMARK                         _______ _______ _______ _____ _____    ______ ____
ROOT
ATOM      1  CA  MET A   1      10.081   1.993  23.952  0.00  0.00    +0.161 C 
ENDROOT
BRANCH   1   2
ATOM      2  N   MET A   1       9.014   2.370  24.927  0.00  0.00    -0.318 NA
ATOM      3  H1  MET A   1       8.153   2.544  24.397  0.00  0.00    +0.119 HD
ATOM      4  H2  MET A   1       8.794   1.537  25.487  0.00  0.00    +0.119 HD
ENDBRANCH   1   2
BRANCH   1   5
ATOM      5  C   MET A   1       9.459   1.924  22.548  0.00  0.00    +0.322 C 
ATOM      6  OXT MET A   1       8.324   1.561  22.297  0.00  0.00    -0.249 OA
BRANCH   5   7
ATOM      7  O   MET A   1      10.334   2.370  21.606  0.00  0.00    -0.480 OA
ATOM      8  H   MET A   1      10.138   1.861  20.781  0.00  0.00    +0.295 HD
ENDBRANCH   5   7
ENDBRANCH   1   5
BRANCH   1   9
ATOM      9  CB  MET A   1      10.741   0.656  24.314  0.00  0.00    +0.040 C 
BRANCH   9  10
ATOM     10  CG  MET A   1       9.879  -0.225  25.224  0.00  0.00    +0.071 C 
BRANCH  10  12
ATOM     11  CE  MET A   1      10.233  -1.688  22.928  0.00  0.00    +0.084 C 
ATOM     12  SD  MET A   1       9.009  -1.492  24.248  0.00  0.00    -0.164 S 
ENDBRANCH  10  12
ENDBRANCH   9  10
ENDBRANCH   1   9
TORSDOF 6
ENDMDL
MODEL 8
REMARK VINA RESULT:      -3.4      5.014      6.153
REMARK  Name = 
REMARK  7 active torsions:
REMARK  status: ('A' for Active; 'I' for Inactive)
REMARK    1  A    between atoms: CE_1  and  SD_2
REMARK    2  A    between atoms: SD_2  and  CG_3
REMARK    3  A    between atoms: CG_3  and  CB_4
REMARK    4  A    between atoms: CB_4  and  CA_5
REMARK    5  A    between atoms: CA_5  and  N_7
REMARK    6  A    between atoms: CA_5  and  C_8
REMARK    7  A    between atoms: C_8  and  O_9
REMARK                            x       y       z     vdW  Elec       q    Type
REMARK                         _______ _______ _______ _____ _____    ______ ____
ROOT
ATOM      1  CA  MET A   1       9.032   1.154  21.484  0.00  0.00    +0.161 C 
ENDROOT
BRANCH   1   2
ATOM      2  N   MET A   1      10.088   2.193  21.676  0.00  0.00    -0.318 NA
ATOM      3  H1  MET A   1      10.860   1.762  22.197  0.00  0.00    +0.119 HD
ATOM      4  H2  MET A   1      10.496   2.397  20.756  0.00  0.00    +0.119 HD
ENDBRANCH   1   2
BRANCH   1   5
ATOM      5  C   MET A   1       7.917   1.391  22.515  0.00  0.00    +0.322 C 
ATOM      6  OXT MET A   1       6.879   0.757  22.590  0.00  0.00    -0.249 OA
BRANCH   5   7
ATOM      7  O   MET A   1       8.257   2.385  23.380  0.00  0.00    -0.480 OA
ATOM      8  H   MET A   1       8.463   1.946  24.242  0.00  0.00    +0.295 HD
ENDBRANCH   5   7
ENDBRANCH   1   5
BRANCH   1   9
ATOM      9  CB  MET A   1       9.596  -0.267  21.620  0.00  0.00    +0.040 C 
BRANCH   9  10
ATOM     10  CG  MET A   1      10.243  -0.541  22.981  0.00  0.00    +0.071 C 
BRANCH  10  12
ATOM     11  CE  MET A   1       8.333  -2.455  22.509  0.00  0.00    +0.084 C 
ATOM     12  SD  MET A   1       9.744  -2.175  23.608  0.00  0.00    -0.164 S 
ENDBRANCH  10  12
ENDBRANCH   9  10
ENDBRANCH   1   9
TORSDOF 6
ENDMDL
MODEL 9
REMARK VINA RESULT:      -3.4      5.907      6.961
REMARK  Name = 
REMARK  7 active torsions:
REMARK  status: ('A' for Active; 'I' for Inactive)
REMARK    1  A    between atoms: CE_1  and  SD_2
REMARK    2  A    between atoms: SD_2  and  CG_3
REMARK    3  A    between atoms: CG_3  and  CB_4
REMARK    4  A    between atoms: CB_4  and  CA_5
REMARK    5  A    between atoms: CA_5  and  N_7
REMARK    6  A    between atoms: CA_5  and  C_8
REMARK    7  A    between atoms: C_8  and  O_9
REMARK                            x       y       z     vdW  Elec       q    Type
REMARK                         _______ _______ _______ _____ _____    ______ ____
ROOT
ATOM      1  CA  MET A   1       9.677   1.968  23.050  0.00  0.00    +0.161 C 
ENDROOT
BRANCH   1   2
ATOM      2  N   MET A   1      10.015   2.002  21.596  0.00  0.00    -0.318 NA
ATOM      3  H1  MET A   1       9.837   1.068  21.211  0.00  0.00    +0.119 HD
ATOM      4  H2  MET A   1       9.321   2.596  21.127  0.00  0.00    +0.119 HD
ENDBRANCH   1   2
BRANCH   1   5
ATOM      5  C   MET A   1       9.923   3.365  23.643  0.00  0.00    +0.322 C 
ATOM      6  OXT MET A   1       9.248   3.890  24.511  0.00  0.00    -0.249 OA
BRANCH   5   7
ATOM      7  O   MET A   1      11.033   3.935  23.102  0.00  0.00    -0.480 OA
ATOM      8  H   MET A   1      11.365   4.585  23.769  0.00  0.00    +0.295 HD
ENDBRANCH   5   7
ENDBRANCH   1   5
BRANCH   1   9
ATOM      9  CB  MET A   1      10.497   0.913  23.804  0.00  0.00    +0.040 C 
BRANCH   9  10
ATOM     10  CG  MET A   1       9.678  -0.310  24.229  0.00  0.00    +0.071 C 
BRANCH  10  12
ATOM     11  CE  MET A   1       8.937  -1.543  21.890  0.00  0.00    +0.084 C 
ATOM     12  SD  MET A   1      10.134  -1.762  23.231  0.00  0.00    -0.164 S 
ENDBRANCH  10  12
ENDBRANCH   9  10
ENDBRANCH   1   9
TORSDOF 6
ENDMDL
