MODEL 1
REMARK VINA RESULT:      -4.3      0.000      0.000
REMARK  Name = 
REMARK  10 active torsions:
REMARK  status: ('A' for Active; 'I' for Inactive)
REMARK    1  A    between atoms: C_2  and  S_3
REMARK    2  A    between atoms: C_2  and  C_4
REMARK    3  A    between atoms: C_2  and  C_7
REMARK    4  A    between atoms: C_4  and  C_5
REMARK    5  A    between atoms: C_5  and  S_6
REMARK    6  A    between atoms: C_7  and  C_8
REMARK    7  A    between atoms: C_8  and  C_9
REMARK    8  A    between atoms: C_9  and  C_10
REMARK    9  A    between atoms: C_10  and  C_11
REMARK   10  A    between atoms: C_11  and  O_12
REMARK                            x       y       z     vdW  Elec       q    Type
REMARK                         _______ _______ _______ _____ _____    ______ ____
ROOT
ATOM      1  C   UNL     1      10.579   3.294  23.617  0.00  0.00    +0.014 C 
ENDROOT
BRANCH   1   2
ATOM      2  C   UNL     1       9.567   2.235  23.146  0.00  0.00    +0.044 C 
BRANCH   2   3
ATOM      3  S   UNL     1       7.934   2.995  22.791  0.00  0.00    -0.175 S 
ATOM      4  H   UNL     1       8.392   4.211  22.459  0.00  0.00    +0.102 HD
ENDBRANCH   2   3
BRANCH   2   5
ATOM      5  C   UNL     1      10.032   1.526  21.856  0.00  0.00    +0.024 C 
BRANCH   5   6
ATOM      6  C   UNL     1       9.185   0.300  21.508  0.00  0.00    +0.066 C 
BRANCH   6   7
ATOM      7  S   UNL     1       9.886  -1.195  22.269  0.00  0.00    -0.178 S 
ATOM      8  H   UNL     1       9.519  -0.920  23.529  0.00  0.00    +0.102 HD
ENDBRANCH   6   7
ENDBRANCH   5   6
ENDBRANCH   2   5
ENDBRANCH   1   2
BRANCH   1   9
ATOM      9  C   UNL     1       9.990   4.674  23.942  0.00  0.00    +0.002 C 
BRANCH   9  10
ATOM     10  C   UNL     1      10.868   5.823  23.425  0.00  0.00    +0.011 C 
BRANCH  10  11
ATOM     11  C   UNL     1      12.319   5.718  23.900  0.00  0.00    +0.120 C 
BRANCH  11  12
ATOM     12  C   UNL     1      13.281   5.416  22.777  0.00  0.00    +0.305 C 
ATOM     13  O   UNL     1      13.047   5.550  21.587  0.00  0.00    -0.251 OA
BRANCH  12  14
ATOM     14  O   UNL     1      14.476   4.977  23.236  0.00  0.00    -0.481 OA
ATOM     15  H   UNL     1      15.073   5.694  23.528  0.00  0.00    +0.295 HD
ENDBRANCH  12  14
ENDBRANCH  11  12
ENDBRANCH  10  11
ENDBRANCH   9  10
ENDBRANCH   1   9
TORSDOF 10
ENDMDL
MODEL 2
REMARK VINA RESULT:      -4.0      5.754      7.851
REMARK  Name = 
REMARK  10 active torsions:
REMARK  status: ('A' for Active; 'I' for Inactive)
REMARK    1  A    between atoms: C_2  and  S_3
REMARK    2  A    between atoms: C_2  and  C_4
REMARK    3  A    between atoms: C_2  and  C_7
REMARK    4  A    between atoms: C_4  and  C_5
REMARK    5  A    between atoms: C_5  and  S_6
REMARK    6  A    between atoms: C_7  and  C_8
REMARK    7  A    between atoms: C_8  and  C_9
REMARK    8  A    between atoms: C_9  and  C_10
REMARK    9  A    between atoms: C_10  and  C_11
REMARK   10  A    between atoms: C_11  and  O_12
REMARK                            x       y       z     vdW  Elec       q    Type
REMARK                         _______ _______ _______ _____ _____    ______ ____
ROOT
ATOM      1  C   UNL     1       9.866  -1.110  24.353  0.00  0.00    +0.014 C 
ENDROOT
BRANCH   1   2
ATOM      2  C   UNL     1      10.543  -0.058  23.458  0.00  0.00    +0.044 C 
BRANCH   2   3
ATOM      3  S   UNL     1       9.576   0.223  21.923  0.00  0.00    -0.175 S 
ATOM      4  H   UNL     1      10.024   1.464  21.676  0.00  0.00    +0.102 HD
ENDBRANCH   2   3
BRANCH   2   5
ATOM      5  C   UNL     1      10.678   1.305  24.170  0.00  0.00    +0.024 C 
BRANCH   5   6
ATOM      6  C   UNL     1       9.639   2.328  23.709  0.00  0.00    +0.066 C 
BRANCH   6   7
ATOM      7  S   UNL     1       8.340   2.526  24.965  0.00  0.00    -0.178 S 
ATOM      8  H   UNL     1       7.502   3.257  24.215  0.00  0.00    +0.102 HD
ENDBRANCH   6   7
ENDBRANCH   5   6
ENDBRANCH   2   5
ENDBRANCH   1   2
BRANCH   1   9
ATOM      9  C   UNL     1       9.801  -2.530  23.773  0.00  0.00    +0.002 C 
BRANCH   9  10
ATOM     10  C   UNL     1       8.433  -3.192  23.990  0.00  0.00    +0.011 C 
BRANCH  10  11
ATOM     11  C   UNL     1       8.546  -4.653  24.431  0.00  0.00    +0.120 C 
BRANCH  11  12
ATOM     12  C   UNL     1       9.366  -4.822  25.687  0.00  0.00    +0.305 C 
ATOM     13  O   UNL     1       9.082  -4.375  26.785  0.00  0.00    -0.251 OA
BRANCH  12  14
ATOM     14  O   UNL     1      10.482  -5.555  25.468  0.00  0.00    -0.481 OA
ATOM     15  H   UNL     1      10.655  -5.737  24.523  0.00  0.00    +0.295 HD
ENDBRANCH  12  14
ENDBRANCH  11  12
ENDBRANCH  10  11
ENDBRANCH   9  10
ENDBRANCH   1   9
TORSDOF 10
ENDMDL
MODEL 3
REMARK VINA RESULT:      -4.0      4.614      6.694
REMARK  Name = 
REMARK  10 active torsions:
REMARK  status: ('A' for Active; 'I' for Inactive)
REMARK    1  A    between atoms: C_2  and  S_3
REMARK    2  A    between atoms: C_2  and  C_4
REMARK    3  A    between atoms: C_2  and  C_7
REMARK    4  A    between atoms: C_4  and  C_5
REMARK    5  A    between atoms: C_5  and  S_6
REMARK    6  A    between atoms: C_7  and  C_8
REMARK    7  A    between atoms: C_8  and  C_9
REMARK    8  A    between atoms: C_9  and  C_10
REMARK    9  A    between atoms: C_10  and  C_11
REMARK   10  A    between atoms: C_11  and  O_12
REMARK                            x       y       z     vdW  Elec       q    Type
REMARK                         _______ _______ _______ _____ _____    ______ ____
ROOT
ATOM      1  C   UNL     1       8.283  -2.747  23.764  0.00  0.00    +0.014 C 
ENDROOT
BRANCH   1   2
ATOM      2  C   UNL     1       8.202  -4.272  23.947  0.00  0.00    +0.044 C 
BRANCH   2   3
ATOM      3  S   UNL     1       9.389  -4.846  25.225  0.00  0.00    -0.175 S 
ATOM      4  H   UNL     1       9.852  -5.908  24.548  0.00  0.00    +0.102 HD
ENDBRANCH   2   3
BRANCH   2   5
ATOM      5  C   UNL     1       6.796  -4.726  24.392  0.00  0.00    +0.024 C 
BRANCH   5   6
ATOM      6  C   UNL     1       5.969  -5.320  23.250  0.00  0.00    +0.066 C 
BRANCH   6   7
ATOM      7  S   UNL     1       7.053  -5.876  21.901  0.00  0.00    -0.178 S 
ATOM      8  H   UNL     1       7.760  -6.761  22.618  0.00  0.00    +0.102 HD
ENDBRANCH   6   7
ENDBRANCH   5   6
ENDBRANCH   2   5
ENDBRANCH   1   2
BRANCH   1   9
ATOM      9  C   UNL     1       8.381  -2.258  22.312  0.00  0.00    +0.002 C 
BRANCH   9  10
ATOM     10  C   UNL     1       9.674  -1.475  22.041  0.00  0.00    +0.011 C 
BRANCH  10  11
ATOM     11  C   UNL     1       9.414  -0.105  21.410  0.00  0.00    +0.120 C 
BRANCH  11  12
ATOM     12  C   UNL     1      10.002   1.029  22.214  0.00  0.00    +0.305 C 
ATOM     13  O   UNL     1      10.428   0.944  23.353  0.00  0.00    -0.251 OA
BRANCH  12  14
ATOM     14  O   UNL     1      10.021   2.188  21.516  0.00  0.00    -0.481 OA
ATOM     15  H   UNL     1      10.851   2.694  21.615  0.00  0.00    +0.295 HD
ENDBRANCH  12  14
ENDBRANCH  11  12
ENDBRANCH  10  11
ENDBRANCH   9  10
ENDBRANCH   1   9
TORSDOF 10
ENDMDL
MODEL 4
REMARK VINA RESULT:      -4.0      3.659      4.932
REMARK  Name = 
REMARK  10 active torsions:
REMARK  status: ('A' for Active; 'I' for Inactive)
REMARK    1  A    between atoms: C_2  and  S_3
REMARK    2  A    between atoms: C_2  and  C_4
REMARK    3  A    between atoms: C_2  and  C_7
REMARK    4  A    between atoms: C_4  and  C_5
REMARK    5  A    between atoms: C_5  and  S_6
REMARK    6  A    between atoms: C_7  and  C_8
REMARK    7  A    between atoms: C_8  and  C_9
REMARK    8  A    between atoms: C_9  and  C_10
REMARK    9  A    between atoms: C_10  and  C_11
REMARK   10  A    between atoms: C_11  and  O_12
REMARK                            x       y       z     vdW  Elec       q    Type
REMARK                         _______ _______ _______ _____ _____    ______ ____
ROOT
ATOM      1  C   UNL     1       9.463  -0.587  21.508  0.00  0.00    +0.014 C 
ENDROOT
BRANCH   1   2
ATOM      2  C   UNL     1       8.619  -1.591  22.311  0.00  0.00    +0.044 C 
BRANCH   2   3
ATOM      3  S   UNL     1       9.608  -2.357  23.655  0.00  0.00    -0.175 S 
ATOM      4  H   UNL     1      10.548  -2.905  22.870  0.00  0.00    +0.102 HD
ENDBRANCH   2   3
BRANCH   2   5
ATOM      5  C   UNL     1       7.395  -0.921  22.969  0.00  0.00    +0.024 C 
BRANCH   5   6
ATOM      6  C   UNL     1       6.870  -1.689  24.183  0.00  0.00    +0.066 C 
BRANCH   6   7
ATOM      7  S   UNL     1       5.644  -2.929  23.670  0.00  0.00    -0.178 S 
ATOM      8  H   UNL     1       5.207  -2.282  22.580  0.00  0.00    +0.102 HD
ENDBRANCH   6   7
ENDBRANCH   5   6
ENDBRANCH   2   5
ENDBRANCH   1   2
BRANCH   1   9
ATOM      9  C   UNL     1       9.019   0.880  21.606  0.00  0.00    +0.002 C 
BRANCH   9  10
ATOM     10  C   UNL     1      10.164   1.814  22.024  0.00  0.00    +0.011 C 
BRANCH  10  11
ATOM     11  C   UNL     1       9.992   2.362  23.443  0.00  0.00    +0.120 C 
BRANCH  11  12
ATOM     12  C   UNL     1      10.223   1.315  24.505  0.00  0.00    +0.305 C 
ATOM     13  O   UNL     1      11.254   0.683  24.666  0.00  0.00    -0.251 OA
BRANCH  12  14
ATOM     14  O   UNL     1       9.138   1.148  25.297  0.00  0.00    -0.481 OA
ATOM     15  H   UNL     1       8.619   1.965  25.432  0.00  0.00    +0.295 HD
ENDBRANCH  12  14
ENDBRANCH  11  12
ENDBRANCH  10  11
ENDBRANCH   9  10
ENDBRANCH   1   9
TORSDOF 10
ENDMDL
MODEL 5
REMARK VINA RESULT:      -4.0      5.870      7.849
REMARK  Name = 
REMARK  10 active torsions:
REMARK  status: ('A' for Active; 'I' for Inactive)
REMARK    1  A    between atoms: C_2  and  S_3
REMARK    2  A    between atoms: C_2  and  C_4
REMARK    3  A    between atoms: C_2  and  C_7
REMARK    4  A    between atoms: C_4  and  C_5
REMARK    5  A    between atoms: C_5  and  S_6
REMARK    6  A    between atoms: C_7  and  C_8
REMARK    7  A    between atoms: C_8  and  C_9
REMARK    8  A    between atoms: C_9  and  C_10
REMARK    9  A    between atoms: C_10  and  C_11
REMARK   10  A    between atoms: C_11  and  O_12
REMARK                            x       y       z     vdW  Elec       q    Type
REMARK                         _______ _______ _______ _____ _____    ______ ____
ROOT
ATOM      1  C   UNL     1      10.181  -1.219  22.590  0.00  0.00    +0.014 C 
ENDROOT
BRANCH   1   2
ATOM      2  C   UNL     1       9.755   0.179  23.068  0.00  0.00    +0.044 C 
BRANCH   2   3
ATOM      3  S   UNL     1      10.905   0.817  24.350  0.00  0.00    -0.175 S 
ATOM      4  H   UNL     1      10.325   0.214  25.399  0.00  0.00    +0.102 HD
ENDBRANCH   2   3
BRANCH   2   5
ATOM      5  C   UNL     1       9.742   1.204  21.914  0.00  0.00    +0.024 C 
BRANCH   5   6
ATOM      6  C   UNL     1       8.335   1.676  21.546  0.00  0.00    +0.066 C 
BRANCH   6   7
ATOM      7  S   UNL     1       7.842   3.082  22.588  0.00  0.00    -0.178 S 
ATOM      8  H   UNL     1       9.074   3.421  22.993  0.00  0.00    +0.102 HD
ENDBRANCH   6   7
ENDBRANCH   5   6
ENDBRANCH   2   5
ENDBRANCH   1   2
BRANCH   1   9
ATOM      9  C   UNL     1       9.231  -2.365  22.964  0.00  0.00    +0.002 C 
BRANCH   9  10
ATOM     10  C   UNL     1       9.586  -3.007  24.313  0.00  0.00    +0.011 C 
BRANCH  10  11
ATOM     11  C   UNL     1       8.700  -4.211  24.647  0.00  0.00    +0.120 C 
BRANCH  11  12
ATOM     12  C   UNL     1       9.101  -4.892  25.932  0.00  0.00    +0.305 C 
ATOM     13  O   UNL     1       8.516  -4.798  26.998  0.00  0.00    -0.251 OA
BRANCH  12  14
ATOM     14  O   UNL     1      10.208  -5.656  25.776  0.00  0.00    -0.481 OA
ATOM     15  H   UNL     1      10.015  -6.586  25.541  0.00  0.00    +0.295 HD
ENDBRANCH  12  14
ENDBRANCH  11  12
ENDBRANCH  10  11
ENDBRANCH   9  10
ENDBRANCH   1   9
TORSDOF 10
ENDMDL
MODEL 6
REMARK VINA RESULT:      -3.9      4.630      6.728
REMARK  Name = 
REMARK  10 active torsions:
REMARK  status: ('A' for Active; 'I' for Inactive)
REMARK    1  A    between atoms: C_2  and  S_3
REMARK    2  A    between atoms: C_2  and  C_4
REMARK    3  A    between atoms: C_2  and  C_7
REMARK    4  A    between atoms: C_4  and  C_5
REMARK    5  A    between atoms: C_5  and  S_6
REMARK    6  A    between atoms: C_7  and  C_8
REMARK    7  A    between atoms: C_8  and  C_9
REMARK    8  A    between atoms: C_9  and  C_10
REMARK    9  A    between atoms: C_10  and  C_11
REMARK   10  A    between atoms: C_11  and  O_12
REMARK                            x       y       z     vdW  Elec       q    Type
REMARK                         _______ _______ _______ _____ _____    ______ ____
ROOT
ATOM      1  C   UNL     1       7.904  -2.523  23.865  0.00  0.00    +0.014 C 
ENDROOT
BRANCH   1   2
ATOM      2  C   UNL     1       7.730  -4.013  24.208  0.00  0.00    +0.044 C 
BRANCH   2   3
ATOM      3  S   UNL     1       7.345  -4.995  22.705  0.00  0.00    -0.175 S 
ATOM      4  H   UNL     1       7.523  -6.206  23.256  0.00  0.00    +0.102 HD
ENDBRANCH   2   3
BRANCH   2   5
ATOM      5  C   UNL     1       9.006  -4.614  24.834  0.00  0.00    +0.024 C 
BRANCH   5   6
ATOM      6  C   UNL     1       8.986  -4.604  26.363  0.00  0.00    +0.066 C 
BRANCH   6   7
ATOM      7  S   UNL     1       7.381  -5.191  26.983  0.00  0.00    -0.178 S 
ATOM      8  H   UNL     1       6.633  -4.690  25.990  0.00  0.00    +0.102 HD
ENDBRANCH   6   7
ENDBRANCH   5   6
ENDBRANCH   2   5
ENDBRANCH   1   2
BRANCH   1   9
ATOM      9  C   UNL     1       8.211  -2.214  22.393  0.00  0.00    +0.002 C 
BRANCH   9  10
ATOM     10  C   UNL     1       9.572  -1.528  22.208  0.00  0.00    +0.011 C 
BRANCH  10  11
ATOM     11  C   UNL     1       9.475  -0.232  21.398  0.00  0.00    +0.120 C 
BRANCH  11  12
ATOM     12  C   UNL     1       9.974   0.971  22.160  0.00  0.00    +0.305 C 
ATOM     13  O   UNL     1      10.452   0.953  23.282  0.00  0.00    -0.251 OA
BRANCH  12  14
ATOM     14  O   UNL     1       9.846   2.113  21.444  0.00  0.00    -0.481 OA
ATOM     15  H   UNL     1      10.151   2.912  21.918  0.00  0.00    +0.295 HD
ENDBRANCH  12  14
ENDBRANCH  11  12
ENDBRANCH  10  11
ENDBRANCH   9  10
ENDBRANCH   1   9
TORSDOF 10
ENDMDL
MODEL 7
REMARK VINA RESULT:      -3.9      3.858      4.856
REMARK  Name = 
REMARK  10 active torsions:
REMARK  status: ('A' for Active; 'I' for Inactive)
REMARK    1  A    between atoms: C_2  and  S_3
REMARK    2  A    between atoms: C_2  and  C_4
REMARK    3  A    between atoms: C_2  and  C_7
REMARK    4  A    between atoms: C_4  and  C_5
REMARK    5  A    between atoms: C_5  and  S_6
REMARK    6  A    between atoms: C_7  and  C_8
REMARK    7  A    between atoms: C_8  and  C_9
REMARK    8  A    between atoms: C_9  and  C_10
REMARK    9  A    between atoms: C_10  and  C_11
REMARK   10  A    between atoms: C_11  and  O_12
REMARK                            x       y       z     vdW  Elec       q    Type
REMARK                         _______ _______ _______ _____ _____    ______ ____
ROOT
ATOM      1  C   UNL     1       9.364  -0.294  25.019  0.00  0.00    +0.014 C 
ENDROOT
BRANCH   1   2
ATOM      2  C   UNL     1       9.217  -1.660  24.327  0.00  0.00    +0.044 C 
BRANCH   2   3
ATOM      3  S   UNL     1       8.513  -2.907  25.475  0.00  0.00    -0.175 S 
ATOM      4  H   UNL     1       7.734  -2.064  26.170  0.00  0.00    +0.102 HD
ENDBRANCH   2   3
BRANCH   2   5
ATOM      5  C   UNL     1       8.283  -1.588  23.100  0.00  0.00    +0.024 C 
BRANCH   5   6
ATOM      6  C   UNL     1       7.797  -2.962  22.636  0.00  0.00    +0.066 C 
BRANCH   6   7
ATOM      7  S   UNL     1       5.999  -2.946  22.372  0.00  0.00    -0.178 S 
ATOM      8  H   UNL     1       5.795  -1.672  22.736  0.00  0.00    +0.102 HD
ENDBRANCH   6   7
ENDBRANCH   5   6
ENDBRANCH   2   5
ENDBRANCH   1   2
BRANCH   1   9
ATOM      9  C   UNL     1      10.710   0.415  24.806  0.00  0.00    +0.002 C 
BRANCH   9  10
ATOM     10  C   UNL     1      10.564   1.735  24.035  0.00  0.00    +0.011 C 
BRANCH  10  11
ATOM     11  C   UNL     1       9.120   2.016  23.612  0.00  0.00    +0.120 C 
BRANCH  11  12
ATOM     12  C   UNL     1       8.942   2.023  22.113  0.00  0.00    +0.305 C 
ATOM     13  O   UNL     1       7.881   1.900  21.524  0.00  0.00    -0.251 OA
BRANCH  12  14
ATOM     14  O   UNL     1      10.117   2.198  21.464  0.00  0.00    -0.481 OA
ATOM     15  H   UNL     1      10.015   2.444  20.524  0.00  0.00    +0.295 HD
ENDBRANCH  12  14
ENDBRANCH  11  12
ENDBRANCH  10  11
ENDBRANCH   9  10
ENDBRANCH   1   9
TORSDOF 10
ENDMDL
MODEL 8
REMARK VINA RESULT:      -3.8      6.335      8.534
REMARK  Name = 
REMARK  10 active torsions:
REMARK  status: ('A' for Active; 'I' for Inactive)
REMARK    1  A    between atoms: C_2  and  S_3
REMARK    2  A    between atoms: C_2  and  C_4
REMARK    3  A    between atoms: C_2  and  C_7
REMARK    4  A    between atoms: C_4  and  C_5
REMARK    5  A    between atoms: C_5  and  S_6
REMARK    6  A    between atoms: C_7  and  C_8
REMARK    7  A    between atoms: C_8  and  C_9
REMARK    8  A    between atoms: C_9  and  C_10
REMARK    9  A    between atoms: C_10  and  C_11
REMARK   10  A    between atoms: C_11  and  O_12
REMARK                            x       y       z     vdW  Elec       q    Type
REMARK                         _______ _______ _______ _____ _____    ______ ____
ROOT
ATOM      1  C   UNL     1       7.260  -2.267  23.815  0.00  0.00    +0.014 C 
ENDROOT
BRANCH   1   2
ATOM      2  C   UNL     1       8.314  -1.288  24.362  0.00  0.00    +0.044 C 
BRANCH   2   3
ATOM      3  S   UNL     1       8.412  -1.381  26.193  0.00  0.00    -0.175 S 
ATOM      4  H   UNL     1       7.093  -1.315  26.428  0.00  0.00    +0.102 HD
ENDBRANCH   2   3
BRANCH   2   5
ATOM      5  C   UNL     1       9.724  -1.591  23.812  0.00  0.00    +0.024 C 
BRANCH   5   6
ATOM      6  C   UNL     1      10.396  -0.370  23.182  0.00  0.00    +0.066 C 
BRANCH   6   7
ATOM      7  S   UNL     1       9.470   0.184  21.720  0.00  0.00    -0.178 S 
ATOM      8  H   UNL     1      10.455   0.001  20.828  0.00  0.00    +0.102 HD
ENDBRANCH   6   7
ENDBRANCH   5   6
ENDBRANCH   2   5
ENDBRANCH   1   2
BRANCH   1   9
ATOM      9  C   UNL     1       7.754  -3.234  22.730  0.00  0.00    +0.002 C 
BRANCH   9  10
ATOM     10  C   UNL     1       7.686  -4.702  23.176  0.00  0.00    +0.011 C 
BRANCH  10  11
ATOM     11  C   UNL     1       7.515  -4.853  24.689  0.00  0.00    +0.120 C 
BRANCH  11  12
ATOM     12  C   UNL     1       8.790  -5.267  25.382  0.00  0.00    +0.305 C 
ATOM     13  O   UNL     1       9.920  -5.066  24.969  0.00  0.00    -0.251 OA
BRANCH  12  14
ATOM     14  O   UNL     1       8.548  -5.895  26.556  0.00  0.00    -0.481 OA
ATOM     15  H   UNL     1       9.189  -6.603  26.765  0.00  0.00    +0.295 HD
ENDBRANCH  12  14
ENDBRANCH  11  12
ENDBRANCH  10  11
ENDBRANCH   9  10
ENDBRANCH   1   9
TORSDOF 10
ENDMDL
MODEL 9
REMARK VINA RESULT:      -3.8      3.221      4.874
REMARK  Name = 
REMARK  10 active torsions:
REMARK  status: ('A' for Active; 'I' for Inactive)
REMARK    1  A    between atoms: C_2  and  S_3
REMARK    2  A    between atoms: C_2  and  C_4
REMARK    3  A    between atoms: C_2  and  C_7
REMARK    4  A    between atoms: C_4  and  C_5
REMARK    5  A    between atoms: C_5  and  S_6
REMARK    6  A    between atoms: C_7  and  C_8
REMARK    7  A    between atoms: C_8  and  C_9
REMARK    8  A    between atoms: C_9  and  C_10
REMARK    9  A    between atoms: C_10  and  C_11
REMARK   10  A    between atoms: C_11  and  O_12
REMARK                            x       y       z     vdW  Elec       q    Type
REMARK                         _______ _______ _______ _____ _____    ______ ____
ROOT
ATOM      1  C   UNL     1      10.144  -1.070  22.482  0.00  0.00    +0.014 C 
ENDROOT
BRANCH   1   2
ATOM      2  C   UNL     1       9.273  -2.124  23.187  0.00  0.00    +0.044 C 
BRANCH   2   3
ATOM      3  S   UNL     1       8.735  -1.536  24.841  0.00  0.00    -0.175 S 
ATOM      4  H   UNL     1       8.094  -0.436  24.419  0.00  0.00    +0.102 HD
ENDBRANCH   2   3
BRANCH   2   5
ATOM      5  C   UNL     1       7.999  -2.453  22.382  0.00  0.00    +0.024 C 
BRANCH   5   6
ATOM      6  C   UNL     1       7.327  -3.753  22.827  0.00  0.00    +0.066 C 
BRANCH   6   7
ATOM      7  S   UNL     1       5.529  -3.526  22.963  0.00  0.00    -0.178 S 
ATOM      8  H   UNL     1       5.472  -3.492  24.303  0.00  0.00    +0.102 HD
ENDBRANCH   6   7
ENDBRANCH   5   6
ENDBRANCH   2   5
ENDBRANCH   1   2
BRANCH   1   9
ATOM      9  C   UNL     1       9.479  -0.340  21.307  0.00  0.00    +0.002 C 
BRANCH   9  10
ATOM     10  C   UNL     1       9.069   1.096  21.664  0.00  0.00    +0.011 C 
BRANCH  10  11
ATOM     11  C   UNL     1      10.251   1.950  22.129  0.00  0.00    +0.120 C 
BRANCH  11  12
ATOM     12  C   UNL     1       9.990   2.640  23.446  0.00  0.00    +0.305 C 
ATOM     13  O   UNL     1       9.729   2.084  24.499  0.00  0.00    -0.251 OA
BRANCH  12  14
ATOM     14  O   UNL     1      10.091   3.986  23.341  0.00  0.00    -0.481 OA
ATOM     15  H   UNL     1      11.003   4.303  23.187  0.00  0.00    +0.295 HD
ENDBRANCH  12  14
ENDBRANCH  11  12
ENDBRANCH  10  11
ENDBRANCH   9  10
ENDBRANCH   1   9
TORSDOF 10
ENDMDL
