MODEL 1
REMARK VINA RESULT:      -6.9      0.000      0.000
REMARK  Name = 
REMARK  9 active torsions:
REMARK  status: ('A' for Active; 'I' for Inactive)
REMARK    1  A    between atoms: C_2  and  C_3
REMARK    2  A    between atoms: C_2  and  N_10
REMARK    3  A    between atoms: C_2  and  C_12
REMARK    4  A    between atoms: C_3  and  C_4
REMARK    5  A    between atoms: N_10  and  C_11
REMARK    6  A    between atoms: C_18  and  C_20
REMARK    7  A    between atoms: N_22  and  C_23
REMARK    8  A    between atoms: C_23  and  C_24
REMARK    9  A    between atoms: C_28  and  N_30
REMARK                            x       y       z     vdW  Elec       q    Type
REMARK                         _______ _______ _______ _____ _____    ______ ____
ROOT
ATOM      1  C   UNL     1       6.165  -4.275  23.615  0.00  0.00    +0.234 C 
ATOM      2  N   UNL     1       7.272  -4.257  24.433  0.00  0.00    -0.289 N 
ATOM      3  C   UNL     1       7.923  -2.993  24.808  0.00  0.00    +0.162 C 
ATOM      4  C   UNL     1       8.633  -3.310  26.140  0.00  0.00    +0.033 C 
ATOM      5  C   UNL     1       8.219  -4.736  26.496  0.00  0.00    +0.021 C 
ATOM      6  C   UNL     1       7.855  -5.362  25.165  0.00  0.00    +0.108 C 
ATOM      7  O   UNL     1       5.764  -3.243  23.064  0.00  0.00    -0.274 OA
ENDROOT
BRANCH   3   8
ATOM      8  C   UNL     1       8.982  -2.481  23.798  0.00  0.00    +0.234 C 
ATOM      9  N   UNL     1       8.508  -1.599  22.847  0.00  0.00    -0.314 N 
ATOM     10  H   UNL     1       7.714  -1.053  23.155  0.00  0.00    +0.149 HD
ATOM     11  O   UNL     1      10.144  -2.881  23.819  0.00  0.00    -0.274 OA
BRANCH   9  12
ATOM     12  C   UNL     1       9.379  -1.026  21.839  0.00  0.00    +0.107 C 
BRANCH  12  13
ATOM     13  C   UNL     1       9.539   0.501  21.964  0.00  0.00    +0.006 C 
ATOM     14  C   UNL     1       8.176   1.213  21.965  0.00  0.00    +0.006 C 
ATOM     15  C   UNL     1       8.328   2.730  22.103  0.00  0.00    +0.019 C 
ATOM     16  C   UNL     1       9.150   3.142  23.332  0.00  0.00    +0.051 C 
ATOM     17  C   UNL     1      10.506   2.423  23.331  0.00  0.00    +0.019 C 
ATOM     18  C   UNL     1      10.392   0.906  23.176  0.00  0.00    +0.006 C 
BRANCH  16  19
ATOM     19  N   UNL     1       8.399   2.879  24.562  0.00  0.00    -0.327 NA
ATOM     20  H   UNL     1       8.448   1.895  24.813  0.00  0.00    +0.118 HD
ATOM     21  H   UNL     1       8.807   3.399  25.337  0.00  0.00    +0.118 HD
ENDBRANCH  16  19
ENDBRANCH  12  13
ENDBRANCH   9  12
ENDBRANCH   3   8
BRANCH   1  22
ATOM     22  C   UNL     1       5.444  -5.634  23.397  0.00  0.00    +0.145 C 
BRANCH  22  23
ATOM     23  N   UNL     1       5.201  -5.856  21.948  0.00  0.00    -0.308 NA
ATOM     24  H   UNL     1       4.613  -5.089  21.607  0.00  0.00    +0.122 HD
ATOM     25  C   UNL     1       6.431  -5.882  21.168  0.00  0.00    +0.101 C 
ENDBRANCH  22  23
BRANCH  22  26
ATOM     26  C   UNL     1       4.121  -5.596  24.199  0.00  0.00    +0.063 C 
BRANCH  26  27
ATOM     27  C   UNL     1       4.313  -5.606  25.699  0.00  0.00    -0.045 A 
ATOM     28  C   UNL     1       4.697  -6.790  26.344  0.00  0.00    +0.004 A 
ATOM     29  C   UNL     1       4.955  -6.804  27.714  0.00  0.00    +0.000 A 
ATOM     30  C   UNL     1       4.823  -5.636  28.459  0.00  0.00    +0.000 A 
ATOM     31  C   UNL     1       4.411  -4.458  27.836  0.00  0.00    +0.000 A 
ATOM     32  C   UNL     1       4.154  -4.441  26.462  0.00  0.00    +0.004 A 
ENDBRANCH  26  27
ENDBRANCH  22  26
ENDBRANCH   1  22
TORSDOF 8
ENDMDL
MODEL 2
REMARK VINA RESULT:      -6.9      2.337      4.385
REMARK  Name = 
REMARK  9 active torsions:
REMARK  status: ('A' for Active; 'I' for Inactive)
REMARK    1  A    between atoms: C_2  and  C_3
REMARK    2  A    between atoms: C_2  and  N_10
REMARK    3  A    between atoms: C_2  and  C_12
REMARK    4  A    between atoms: C_3  and  C_4
REMARK    5  A    between atoms: N_10  and  C_11
REMARK    6  A    between atoms: C_18  and  C_20
REMARK    7  A    between atoms: N_22  and  C_23
REMARK    8  A    between atoms: C_23  and  C_24
REMARK    9  A    between atoms: C_28  and  N_30
REMARK                            x       y       z     vdW  Elec       q    Type
REMARK                         _______ _______ _______ _____ _____    ______ ____
ROOT
ATOM      1  C   UNL     1       8.125  -2.119  25.398  0.00  0.00    +0.234 C 
ATOM      2  N   UNL     1       8.476  -1.636  24.158  0.00  0.00    -0.289 N 
ATOM      3  C   UNL     1       9.861  -1.242  23.856  0.00  0.00    +0.162 C 
ATOM      4  C   UNL     1       9.972  -1.384  22.325  0.00  0.00    +0.033 C 
ATOM      5  C   UNL     1       8.643  -1.983  21.870  0.00  0.00    +0.021 C 
ATOM      6  C   UNL     1       7.665  -1.589  22.959  0.00  0.00    +0.108 C 
ATOM      7  O   UNL     1       8.933  -2.114  26.335  0.00  0.00    -0.274 OA
ENDROOT
BRANCH   3   8
ATOM      8  C   UNL     1      10.223   0.216  24.241  0.00  0.00    +0.234 C 
ATOM      9  N   UNL     1       9.876   1.172  23.307  0.00  0.00    -0.314 N 
ATOM     10  H   UNL     1       9.076   0.922  22.743  0.00  0.00    +0.149 HD
ATOM     11  O   UNL     1      10.823   0.481  25.280  0.00  0.00    -0.274 OA
BRANCH   9  12
ATOM     12  C   UNL     1      10.142   2.581  23.528  0.00  0.00    +0.107 C 
BRANCH  12  13
ATOM     13  C   UNL     1       8.865   3.437  23.625  0.00  0.00    +0.006 C 
ATOM     14  C   UNL     1       9.197   4.931  23.777  0.00  0.00    +0.006 C 
ATOM     15  C   UNL     1       7.931   5.788  23.860  0.00  0.00    +0.019 C 
ATOM     16  C   UNL     1       6.979   5.568  22.678  0.00  0.00    +0.051 C 
ATOM     17  C   UNL     1       6.655   4.075  22.525  0.00  0.00    +0.019 C 
ATOM     18  C   UNL     1       7.898   3.187  22.457  0.00  0.00    +0.006 C 
BRANCH  16  19
ATOM     19  N   UNL     1       7.548   6.127  21.449  0.00  0.00    -0.327 NA
ATOM     20  H   UNL     1       8.108   6.951  21.652  0.00  0.00    +0.118 HD
ATOM     21  H   UNL     1       8.173   5.449  21.015  0.00  0.00    +0.118 HD
ENDBRANCH  16  19
ENDBRANCH  12  13
ENDBRANCH   9  12
ENDBRANCH   3   8
BRANCH   1  22
ATOM     22  C   UNL     1       6.681  -2.660  25.585  0.00  0.00    +0.145 C 
BRANCH  22  23
ATOM     23  N   UNL     1       6.112  -2.164  26.866  0.00  0.00    -0.308 NA
ATOM     24  H   UNL     1       5.783  -1.206  26.713  0.00  0.00    +0.122 HD
ATOM     25  C   UNL     1       4.994  -2.972  27.334  0.00  0.00    +0.101 C 
ENDBRANCH  22  23
BRANCH  22  26
ATOM     26  C   UNL     1       6.753  -4.206  25.552  0.00  0.00    +0.063 C 
BRANCH  26  27
ATOM     27  C   UNL     1       6.534  -4.801  24.179  0.00  0.00    -0.045 A 
ATOM     28  C   UNL     1       7.635  -5.222  23.420  0.00  0.00    +0.004 A 
ATOM     29  C   UNL     1       7.452  -5.843  22.185  0.00  0.00    +0.000 A 
ATOM     30  C   UNL     1       6.166  -6.045  21.690  0.00  0.00    +0.000 A 
ATOM     31  C   UNL     1       5.064  -5.602  22.421  0.00  0.00    +0.000 A 
ATOM     32  C   UNL     1       5.245  -4.981  23.660  0.00  0.00    +0.004 A 
ENDBRANCH  26  27
ENDBRANCH  22  26
ENDBRANCH   1  22
TORSDOF 8
ENDMDL
MODEL 3
REMARK VINA RESULT:      -6.9      2.290      8.432
REMARK  Name = 
REMARK  9 active torsions:
REMARK  status: ('A' for Active; 'I' for Inactive)
REMARK    1  A    between atoms: C_2  and  C_3
REMARK    2  A    between atoms: C_2  and  N_10
REMARK    3  A    between atoms: C_2  and  C_12
REMARK    4  A    between atoms: C_3  and  C_4
REMARK    5  A    between atoms: N_10  and  C_11
REMARK    6  A    between atoms: C_18  and  C_20
REMARK    7  A    between atoms: N_22  and  C_23
REMARK    8  A    between atoms: C_23  and  C_24
REMARK    9  A    between atoms: C_28  and  N_30
REMARK                            x       y       z     vdW  Elec       q    Type
REMARK                         _______ _______ _______ _____ _____    ______ ____
ROOT
ATOM      1  C   UNL     1       7.800   0.782  24.641  0.00  0.00    +0.234 C 
ATOM      2  N   UNL     1       8.775   0.656  23.677  0.00  0.00    -0.289 N 
ATOM      3  C   UNL     1       8.680  -0.367  22.625  0.00  0.00    +0.162 C 
ATOM      4  C   UNL     1       9.525   0.199  21.466  0.00  0.00    +0.033 C 
ATOM      5  C   UNL     1       9.950   1.597  21.912  0.00  0.00    +0.021 C 
ATOM      6  C   UNL     1       9.897   1.537  23.425  0.00  0.00    +0.108 C 
ATOM      7  O   UNL     1       6.884  -0.043  24.730  0.00  0.00    -0.274 OA
ENDROOT
BRANCH   3   8
ATOM      8  C   UNL     1       9.247  -1.757  23.013  0.00  0.00    +0.234 C 
ATOM      9  N   UNL     1       8.378  -2.571  23.711  0.00  0.00    -0.314 N 
ATOM     10  H   UNL     1       7.403  -2.399  23.508  0.00  0.00    +0.149 HD
ATOM     11  O   UNL     1      10.406  -2.077  22.759  0.00  0.00    -0.274 OA
BRANCH   9  12
ATOM     12  C   UNL     1       8.760  -3.904  24.136  0.00  0.00    +0.107 C 
BRANCH  12  13
ATOM     13  C   UNL     1       7.685  -4.970  23.851  0.00  0.00    +0.006 C 
ATOM     14  C   UNL     1       6.482  -4.826  24.798  0.00  0.00    +0.006 C 
ATOM     15  C   UNL     1       5.404  -5.873  24.510  0.00  0.00    +0.019 C 
ATOM     16  C   UNL     1       4.939  -5.870  23.048  0.00  0.00    +0.051 C 
ATOM     17  C   UNL     1       6.144  -6.007  22.106  0.00  0.00    +0.019 C 
ATOM     18  C   UNL     1       7.249  -4.987  22.378  0.00  0.00    +0.006 C 
BRANCH  16  19
ATOM     19  N   UNL     1       4.161  -4.663  22.760  0.00  0.00    -0.327 NA
ATOM     20  H   UNL     1       3.173  -4.818  22.937  0.00  0.00    +0.118 HD
ATOM     21  H   UNL     1       4.453  -3.906  23.377  0.00  0.00    +0.118 HD
ENDBRANCH  16  19
ENDBRANCH  12  13
ENDBRANCH   9  12
ENDBRANCH   3   8
BRANCH   1  22
ATOM     22  C   UNL     1       7.897   1.985  25.619  0.00  0.00    +0.145 C 
BRANCH  22  23
ATOM     23  N   UNL     1       7.546   1.553  26.997  0.00  0.00    -0.308 NA
ATOM     24  H   UNL     1       8.419   1.342  27.491  0.00  0.00    +0.122 HD
ATOM     25  C   UNL     1       6.826   2.577  27.741  0.00  0.00    +0.101 C 
ENDBRANCH  22  23
BRANCH  22  26
ATOM     26  C   UNL     1       6.936   3.084  25.104  0.00  0.00    +0.063 C 
BRANCH  26  27
ATOM     27  C   UNL     1       7.632   4.222  24.391  0.00  0.00    -0.045 A 
ATOM     28  C   UNL     1       7.114   4.707  23.182  0.00  0.00    +0.004 A 
ATOM     29  C   UNL     1       7.695   5.805  22.548  0.00  0.00    +0.000 A 
ATOM     30  C   UNL     1       8.805   6.427  23.111  0.00  0.00    +0.000 A 
ATOM     31  C   UNL     1       9.350   5.935  24.297  0.00  0.00    +0.000 A 
ATOM     32  C   UNL     1       8.768   4.836  24.935  0.00  0.00    +0.004 A 
ENDBRANCH  26  27
ENDBRANCH  22  26
ENDBRANCH   1  22
TORSDOF 8
ENDMDL
MODEL 4
REMARK VINA RESULT:      -6.8      2.030      8.749
REMARK  Name = 
REMARK  9 active torsions:
REMARK  status: ('A' for Active; 'I' for Inactive)
REMARK    1  A    between atoms: C_2  and  C_3
REMARK    2  A    between atoms: C_2  and  N_10
REMARK    3  A    between atoms: C_2  and  C_12
REMARK    4  A    between atoms: C_3  and  C_4
REMARK    5  A    between atoms: N_10  and  C_11
REMARK    6  A    between atoms: C_18  and  C_20
REMARK    7  A    between atoms: N_22  and  C_23
REMARK    8  A    between atoms: C_23  and  C_24
REMARK    9  A    between atoms: C_28  and  N_30
REMARK                            x       y       z     vdW  Elec       q    Type
REMARK                         _______ _______ _______ _____ _____    ______ ____
ROOT
ATOM      1  C   UNL     1       9.589   0.050  22.879  0.00  0.00    +0.234 C 
ATOM      2  N   UNL     1       8.969  -0.607  23.918  0.00  0.00    -0.289 N 
ATOM      3  C   UNL     1       9.180  -2.045  24.145  0.00  0.00    +0.162 C 
ATOM      4  C   UNL     1       8.887  -2.240  25.646  0.00  0.00    +0.033 C 
ATOM      5  C   UNL     1       8.644  -0.839  26.203  0.00  0.00    +0.021 C 
ATOM      6  C   UNL     1       8.198  -0.032  25.001  0.00  0.00    +0.108 C 
ATOM      7  O   UNL     1      10.236  -0.572  22.029  0.00  0.00    -0.274 OA
ENDROOT
BRANCH   3   8
ATOM      8  C   UNL     1       8.242  -2.977  23.336  0.00  0.00    +0.234 C 
ATOM      9  N   UNL     1       8.073  -4.241  23.865  0.00  0.00    -0.314 N 
ATOM     10  H   UNL     1       8.175  -4.282  24.870  0.00  0.00    +0.149 HD
ATOM     11  O   UNL     1       7.735  -2.623  22.274  0.00  0.00    -0.274 OA
BRANCH   9  12
ATOM     12  C   UNL     1       7.218  -5.224  23.228  0.00  0.00    +0.107 C 
BRANCH  12  13
ATOM     13  C   UNL     1       5.773  -5.220  23.763  0.00  0.00    +0.006 C 
ATOM     14  C   UNL     1       4.775  -5.707  22.699  0.00  0.00    +0.006 C 
ATOM     15  C   UNL     1       3.340  -5.718  23.231  0.00  0.00    +0.019 C 
ATOM     16  C   UNL     1       3.185  -6.530  24.523  0.00  0.00    +0.051 C 
ATOM     17  C   UNL     1       4.187  -6.045  25.580  0.00  0.00    +0.019 C 
ATOM     18  C   UNL     1       5.630  -6.004  25.077  0.00  0.00    +0.006 C 
BRANCH  16  19
ATOM     19  N   UNL     1       3.334  -7.961  24.251  0.00  0.00    -0.327 NA
ATOM     20  H   UNL     1       2.741  -8.246  23.477  0.00  0.00    +0.118 HD
ATOM     21  H   UNL     1       4.294  -8.164  23.974  0.00  0.00    +0.118 HD
ENDBRANCH  16  19
ENDBRANCH  12  13
ENDBRANCH   9  12
ENDBRANCH   3   8
BRANCH   1  22
ATOM     22  C   UNL     1       9.440   1.595  22.805  0.00  0.00    +0.145 C 
BRANCH  22  23
ATOM     23  N   UNL     1       8.863   1.989  21.492  0.00  0.00    -0.308 NA
ATOM     24  H   UNL     1       9.109   1.264  20.811  0.00  0.00    +0.122 HD
ATOM     25  C   UNL     1       7.413   2.117  21.531  0.00  0.00    +0.101 C 
ENDBRANCH  22  23
BRANCH  22  26
ATOM     26  C   UNL     1      10.843   2.211  23.020  0.00  0.00    +0.063 C 
BRANCH  26  27
ATOM     27  C   UNL     1      10.815   3.642  23.511  0.00  0.00    -0.045 A 
ATOM     28  C   UNL     1      11.954   4.447  23.374  0.00  0.00    +0.004 A 
ATOM     29  C   UNL     1      11.926   5.790  23.748  0.00  0.00    +0.000 A 
ATOM     30  C   UNL     1      10.760   6.342  24.272  0.00  0.00    +0.000 A 
ATOM     31  C   UNL     1       9.630   5.544  24.443  0.00  0.00    +0.000 A 
ATOM     32  C   UNL     1       9.655   4.198  24.066  0.00  0.00    +0.004 A 
ENDBRANCH  26  27
ENDBRANCH  22  26
ENDBRANCH   1  22
TORSDOF 8
ENDMDL
MODEL 5
REMARK VINA RESULT:      -6.7      2.365      8.256
REMARK  Name = 
REMARK  9 active torsions:
REMARK  status: ('A' for Active; 'I' for Inactive)
REMARK    1  A    between atoms: C_2  and  C_3
REMARK    2  A    between atoms: C_2  and  N_10
REMARK    3  A    between atoms: C_2  and  C_12
REMARK    4  A    between atoms: C_3  and  C_4
REMARK    5  A    between atoms: N_10  and  C_11
REMARK    6  A    between atoms: C_18  and  C_20
REMARK    7  A    between atoms: N_22  and  C_23
REMARK    8  A    between atoms: C_23  and  C_24
REMARK    9  A    between atoms: C_28  and  N_30
REMARK                            x       y       z     vdW  Elec       q    Type
REMARK                         _______ _______ _______ _____ _____    ______ ____
ROOT
ATOM      1  C   UNL     1       9.956   1.014  23.935  0.00  0.00    +0.234 C 
ATOM      2  N   UNL     1       8.931   0.386  24.605  0.00  0.00    -0.289 N 
ATOM      3  C   UNL     1       9.197  -0.685  25.576  0.00  0.00    +0.162 C 
ATOM      4  C   UNL     1       7.973  -0.663  26.514  0.00  0.00    +0.033 C 
ATOM      5  C   UNL     1       7.136   0.534  26.067  0.00  0.00    +0.021 C 
ATOM      6  C   UNL     1       7.527   0.742  24.618  0.00  0.00    +0.108 C 
ATOM      7  O   UNL     1      11.120   0.608  24.030  0.00  0.00    -0.274 OA
ENDROOT
BRANCH   3   8
ATOM      8  C   UNL     1       9.321  -2.105  24.964  0.00  0.00    +0.234 C 
ATOM      9  N   UNL     1       8.718  -3.112  25.692  0.00  0.00    -0.314 N 
ATOM     10  H   UNL     1       7.927  -2.803  26.241  0.00  0.00    +0.149 HD
ATOM     11  O   UNL     1       9.958  -2.313  23.935  0.00  0.00    -0.274 OA
BRANCH   9  12
ATOM     12  C   UNL     1       8.740  -4.491  25.244  0.00  0.00    +0.107 C 
BRANCH  12  13
ATOM     13  C   UNL     1       7.417  -4.948  24.600  0.00  0.00    +0.006 C 
ATOM     14  C   UNL     1       6.299  -3.915  24.814  0.00  0.00    +0.006 C 
ATOM     15  C   UNL     1       4.986  -4.357  24.163  0.00  0.00    +0.019 C 
ATOM     16  C   UNL     1       5.135  -4.684  22.672  0.00  0.00    +0.051 C 
ATOM     17  C   UNL     1       6.257  -5.710  22.462  0.00  0.00    +0.019 C 
ATOM     18  C   UNL     1       7.580  -5.309  23.115  0.00  0.00    +0.006 C 
BRANCH  16  19
ATOM     19  N   UNL     1       5.368  -3.461  21.900  0.00  0.00    -0.327 NA
ATOM     20  H   UNL     1       5.757  -3.678  20.987  0.00  0.00    +0.118 HD
ATOM     21  H   UNL     1       4.484  -2.981  21.734  0.00  0.00    +0.118 HD
ENDBRANCH  16  19
ENDBRANCH  12  13
ENDBRANCH   9  12
ENDBRANCH   3   8
BRANCH   1  22
ATOM     22  C   UNL     1       9.602   2.239  23.048  0.00  0.00    +0.145 C 
BRANCH  22  23
ATOM     23  N   UNL     1       9.781   1.898  21.612  0.00  0.00    -0.308 NA
ATOM     24  H   UNL     1      10.785   1.797  21.436  0.00  0.00    +0.122 HD
ATOM     25  C   UNL     1       9.117   0.655  21.242  0.00  0.00    +0.101 C 
ENDBRANCH  22  23
BRANCH  22  26
ATOM     26  C   UNL     1      10.521   3.408  23.476  0.00  0.00    +0.063 C 
BRANCH  26  27
ATOM     27  C   UNL     1       9.781   4.580  24.081  0.00  0.00    -0.045 A 
ATOM     28  C   UNL     1       8.695   4.349  24.938  0.00  0.00    +0.004 A 
ATOM     29  C   UNL     1       8.048   5.411  25.568  0.00  0.00    +0.000 A 
ATOM     30  C   UNL     1       8.473   6.718  25.343  0.00  0.00    +0.000 A 
ATOM     31  C   UNL     1       9.532   6.963  24.469  0.00  0.00    +0.000 A 
ATOM     32  C   UNL     1      10.183   5.900  23.838  0.00  0.00    +0.004 A 
ENDBRANCH  26  27
ENDBRANCH  22  26
ENDBRANCH   1  22
TORSDOF 8
ENDMDL
MODEL 6
REMARK VINA RESULT:      -6.6      1.855      3.519
REMARK  Name = 
REMARK  9 active torsions:
REMARK  status: ('A' for Active; 'I' for Inactive)
REMARK    1  A    between atoms: C_2  and  C_3
REMARK    2  A    between atoms: C_2  and  N_10
REMARK    3  A    between atoms: C_2  and  C_12
REMARK    4  A    between atoms: C_3  and  C_4
REMARK    5  A    between atoms: N_10  and  C_11
REMARK    6  A    between atoms: C_18  and  C_20
REMARK    7  A    between atoms: N_22  and  C_23
REMARK    8  A    between atoms: C_23  and  C_24
REMARK    9  A    between atoms: C_28  and  N_30
REMARK                            x       y       z     vdW  Elec       q    Type
REMARK                         _______ _______ _______ _____ _____    ______ ____
ROOT
ATOM      1  C   UNL     1       6.929  -5.335  26.061  0.00  0.00    +0.234 C 
ATOM      2  N   UNL     1       6.720  -4.575  24.932  0.00  0.00    -0.289 N 
ATOM      3  C   UNL     1       7.659  -4.615  23.801  0.00  0.00    +0.162 C 
ATOM      4  C   UNL     1       6.809  -4.194  22.585  0.00  0.00    +0.033 C 
ATOM      5  C   UNL     1       5.381  -4.060  23.109  0.00  0.00    +0.021 C 
ATOM      6  C   UNL     1       5.551  -3.791  24.591  0.00  0.00    +0.108 C 
ATOM      7  O   UNL     1       7.977  -5.973  26.213  0.00  0.00    -0.274 OA
ENDROOT
BRANCH   3   8
ATOM      8  C   UNL     1       8.863  -3.645  23.918  0.00  0.00    +0.234 C 
ATOM      9  N   UNL     1       8.691  -2.420  23.306  0.00  0.00    -0.314 N 
ATOM     10  H   UNL     1       7.727  -2.116  23.261  0.00  0.00    +0.149 HD
ATOM     11  O   UNL     1       9.910  -3.977  24.470  0.00  0.00    -0.274 OA
BRANCH   9  12
ATOM     12  C   UNL     1       9.724  -1.403  23.336  0.00  0.00    +0.107 C 
BRANCH  12  13
ATOM     13  C   UNL     1       9.170   0.035  23.357  0.00  0.00    +0.006 C 
ATOM     14  C   UNL     1       9.747   0.846  24.529  0.00  0.00    +0.006 C 
ATOM     15  C   UNL     1       9.211   2.279  24.547  0.00  0.00    +0.019 C 
ATOM     16  C   UNL     1       9.432   3.019  23.221  0.00  0.00    +0.051 C 
ATOM     17  C   UNL     1       8.861   2.203  22.053  0.00  0.00    +0.019 C 
ATOM     18  C   UNL     1       9.362   0.759  22.016  0.00  0.00    +0.006 C 
BRANCH  16  19
ATOM     19  N   UNL     1      10.855   3.314  23.030  0.00  0.00    -0.327 NA
ATOM     20  H   UNL     1      11.025   3.688  22.101  0.00  0.00    +0.118 HD
ATOM     21  H   UNL     1      11.153   4.029  23.693  0.00  0.00    +0.118 HD
ENDBRANCH  16  19
ENDBRANCH  12  13
ENDBRANCH   9  12
ENDBRANCH   3   8
BRANCH   1  22
ATOM     22  C   UNL     1       5.811  -5.355  27.140  0.00  0.00    +0.145 C 
BRANCH  22  23
ATOM     23  N   UNL     1       6.410  -5.268  28.498  0.00  0.00    -0.308 NA
ATOM     24  H   UNL     1       6.665  -4.290  28.666  0.00  0.00    +0.122 HD
ATOM     25  C   UNL     1       5.494  -5.698  29.545  0.00  0.00    +0.101 C 
ENDBRANCH  22  23
BRANCH  22  26
ATOM     26  C   UNL     1       5.005  -6.663  26.954  0.00  0.00    +0.063 C 
BRANCH  26  27
ATOM     27  C   UNL     1       3.874  -6.549  25.957  0.00  0.00    -0.045 A 
ATOM     28  C   UNL     1       2.737  -5.794  26.276  0.00  0.00    +0.004 A 
ATOM     29  C   UNL     1       1.717  -5.612  25.343  0.00  0.00    +0.000 A 
ATOM     30  C   UNL     1       1.817  -6.190  24.080  0.00  0.00    +0.000 A 
ATOM     31  C   UNL     1       2.928  -6.970  23.760  0.00  0.00    +0.000 A 
ATOM     32  C   UNL     1       3.952  -7.152  24.694  0.00  0.00    +0.004 A 
ENDBRANCH  26  27
ENDBRANCH  22  26
ENDBRANCH   1  22
TORSDOF 8
ENDMDL
MODEL 7
REMARK VINA RESULT:      -6.6      1.578      2.312
REMARK  Name = 
REMARK  9 active torsions:
REMARK  status: ('A' for Active; 'I' for Inactive)
REMARK    1  A    between atoms: C_2  and  C_3
REMARK    2  A    between atoms: C_2  and  N_10
REMARK    3  A    between atoms: C_2  and  C_12
REMARK    4  A    between atoms: C_3  and  C_4
REMARK    5  A    between atoms: N_10  and  C_11
REMARK    6  A    between atoms: C_18  and  C_20
REMARK    7  A    between atoms: N_22  and  C_23
REMARK    8  A    between atoms: C_23  and  C_24
REMARK    9  A    between atoms: C_28  and  N_30
REMARK                            x       y       z     vdW  Elec       q    Type
REMARK                         _______ _______ _______ _____ _____    ______ ____
ROOT
ATOM      1  C   UNL     1       6.181  -4.337  23.644  0.00  0.00    +0.234 C 
ATOM      2  N   UNL     1       7.278  -4.310  24.475  0.00  0.00    -0.289 N 
ATOM      3  C   UNL     1       7.923  -3.041  24.846  0.00  0.00    +0.162 C 
ATOM      4  C   UNL     1       8.617  -3.345  26.189  0.00  0.00    +0.033 C 
ATOM      5  C   UNL     1       8.201  -4.768  26.554  0.00  0.00    +0.021 C 
ATOM      6  C   UNL     1       7.854  -5.407  25.225  0.00  0.00    +0.108 C 
ATOM      7  O   UNL     1       5.786  -3.311  23.079  0.00  0.00    -0.274 OA
ENDROOT
BRANCH   3   8
ATOM      8  C   UNL     1       8.994  -2.537  23.844  0.00  0.00    +0.234 C 
ATOM      9  N   UNL     1       8.532  -1.657  22.885  0.00  0.00    -0.314 N 
ATOM     10  H   UNL     1       7.737  -1.107  23.183  0.00  0.00    +0.149 HD
ATOM     11  O   UNL     1      10.153  -2.942  23.877  0.00  0.00    -0.274 OA
BRANCH   9  12
ATOM     12  C   UNL     1       9.415  -1.092  21.884  0.00  0.00    +0.107 C 
BRANCH  12  13
ATOM     13  C   UNL     1       9.559   0.439  21.987  0.00  0.00    +0.006 C 
ATOM     14  C   UNL     1       8.189   1.137  21.970  0.00  0.00    +0.006 C 
ATOM     15  C   UNL     1       8.325   2.657  22.087  0.00  0.00    +0.019 C 
ATOM     16  C   UNL     1       9.134   3.095  23.315  0.00  0.00    +0.051 C 
ATOM     17  C   UNL     1      10.498   2.390  23.333  0.00  0.00    +0.019 C 
ATOM     18  C   UNL     1      10.400   0.870  23.199  0.00  0.00    +0.006 C 
BRANCH  16  19
ATOM     19  N   UNL     1       8.378   2.842  24.544  0.00  0.00    -0.327 NA
ATOM     20  H   UNL     1       7.995   1.901  24.546  0.00  0.00    +0.118 HD
ATOM     21  H   UNL     1       8.996   2.908  25.352  0.00  0.00    +0.118 HD
ENDBRANCH  16  19
ENDBRANCH  12  13
ENDBRANCH   9  12
ENDBRANCH   3   8
BRANCH   1  22
ATOM     22  C   UNL     1       5.465  -5.699  23.430  0.00  0.00    +0.145 C 
BRANCH  22  23
ATOM     23  N   UNL     1       6.128  -6.459  22.337  0.00  0.00    -0.308 NA
ATOM     24  H   UNL     1       5.627  -7.345  22.223  0.00  0.00    +0.122 HD
ATOM     25  C   UNL     1       6.110  -5.746  21.067  0.00  0.00    +0.101 C 
ENDBRANCH  22  23
BRANCH  22  26
ATOM     26  C   UNL     1       3.983  -5.402  23.101  0.00  0.00    +0.063 C 
BRANCH  26  27
ATOM     27  C   UNL     1       3.032  -6.509  23.497  0.00  0.00    -0.045 A 
ATOM     28  C   UNL     1       1.919  -6.793  22.694  0.00  0.00    +0.004 A 
ATOM     29  C   UNL     1       1.074  -7.859  22.998  0.00  0.00    +0.000 A 
ATOM     30  C   UNL     1       1.326  -8.651  24.116  0.00  0.00    +0.000 A 
ATOM     31  C   UNL     1       2.412  -8.360  24.941  0.00  0.00    +0.000 A 
ATOM     32  C   UNL     1       3.262  -7.293  24.636  0.00  0.00    +0.004 A 
ENDBRANCH  26  27
ENDBRANCH  22  26
ENDBRANCH   1  22
TORSDOF 8
ENDMDL
MODEL 8
REMARK VINA RESULT:      -6.6      2.177      8.366
REMARK  Name = 
REMARK  9 active torsions:
REMARK  status: ('A' for Active; 'I' for Inactive)
REMARK    1  A    between atoms: C_2  and  C_3
REMARK    2  A    between atoms: C_2  and  N_10
REMARK    3  A    between atoms: C_2  and  C_12
REMARK    4  A    between atoms: C_3  and  C_4
REMARK    5  A    between atoms: N_10  and  C_11
REMARK    6  A    between atoms: C_18  and  C_20
REMARK    7  A    between atoms: N_22  and  C_23
REMARK    8  A    between atoms: C_23  and  C_24
REMARK    9  A    between atoms: C_28  and  N_30
REMARK                            x       y       z     vdW  Elec       q    Type
REMARK                         _______ _______ _______ _____ _____    ______ ____
ROOT
ATOM      1  C   UNL     1       7.754   0.960  23.983  0.00  0.00    +0.234 C 
ATOM      2  N   UNL     1       8.500  -0.093  23.504  0.00  0.00    -0.289 N 
ATOM      3  C   UNL     1       8.065  -0.864  22.330  0.00  0.00    +0.162 C 
ATOM      4  C   UNL     1       9.369  -1.456  21.758  0.00  0.00    +0.033 C 
ATOM      5  C   UNL     1      10.494  -0.859  22.600  0.00  0.00    +0.021 C 
ATOM      6  C   UNL     1       9.828  -0.502  23.913  0.00  0.00    +0.108 C 
ATOM      7  O   UNL     1       6.633   1.206  23.524  0.00  0.00    -0.274 OA
ENDROOT
BRANCH   3   8
ATOM      8  C   UNL     1       7.092  -2.032  22.641  0.00  0.00    +0.234 C 
ATOM      9  N   UNL     1       7.508  -3.274  22.205  0.00  0.00    -0.314 N 
ATOM     10  H   UNL     1       8.513  -3.377  22.159  0.00  0.00    +0.149 HD
ATOM     11  O   UNL     1       6.008  -1.843  23.188  0.00  0.00    -0.274 OA
BRANCH   9  12
ATOM     12  C   UNL     1       6.710  -4.464  22.429  0.00  0.00    +0.107 C 
BRANCH  12  13
ATOM     13  C   UNL     1       7.048  -5.189  23.746  0.00  0.00    +0.006 C 
ATOM     14  C   UNL     1       8.457  -4.826  24.245  0.00  0.00    +0.006 C 
ATOM     15  C   UNL     1       8.792  -5.532  25.561  0.00  0.00    +0.019 C 
ATOM     16  C   UNL     1       7.752  -5.279  26.660  0.00  0.00    +0.051 C 
ATOM     17  C   UNL     1       6.347  -5.635  26.156  0.00  0.00    +0.019 C 
ATOM     18  C   UNL     1       5.985  -4.961  24.832  0.00  0.00    +0.006 C 
BRANCH  16  19
ATOM     19  N   UNL     1       7.825  -3.891  27.125  0.00  0.00    -0.327 NA
ATOM     20  H   UNL     1       8.009  -3.260  26.351  0.00  0.00    +0.118 HD
ATOM     21  H   UNL     1       6.930  -3.612  27.525  0.00  0.00    +0.118 HD
ENDBRANCH  16  19
ENDBRANCH  12  13
ENDBRANCH   9  12
ENDBRANCH   3   8
BRANCH   1  22
ATOM     22  C   UNL     1       8.361   1.820  25.125  0.00  0.00    +0.145 C 
BRANCH  22  23
ATOM     23  N   UNL     1       7.740   1.454  26.426  0.00  0.00    -0.308 NA
ATOM     24  H   UNL     1       8.489   1.387  27.123  0.00  0.00    +0.122 HD
ATOM     25  C   UNL     1       6.768   2.438  26.881  0.00  0.00    +0.101 C 
ENDBRANCH  22  23
BRANCH  22  26
ATOM     26  C   UNL     1       8.114   3.307  24.773  0.00  0.00    +0.063 C 
BRANCH  26  27
ATOM     27  C   UNL     1       9.339   4.025  24.251  0.00  0.00    -0.045 A 
ATOM     28  C   UNL     1       9.408   5.423  24.321  0.00  0.00    +0.004 A 
ATOM     29  C   UNL     1      10.558   6.100  23.917  0.00  0.00    +0.000 A 
ATOM     30  C   UNL     1      11.651   5.387  23.431  0.00  0.00    +0.000 A 
ATOM     31  C   UNL     1      11.584   3.998  23.327  0.00  0.00    +0.000 A 
ATOM     32  C   UNL     1      10.432   3.318  23.733  0.00  0.00    +0.004 A 
ENDBRANCH  26  27
ENDBRANCH  22  26
ENDBRANCH   1  22
TORSDOF 8
ENDMDL
MODEL 9
REMARK VINA RESULT:      -6.5      2.102      3.649
REMARK  Name = 
REMARK  9 active torsions:
REMARK  status: ('A' for Active; 'I' for Inactive)
REMARK    1  A    between atoms: C_2  and  C_3
REMARK    2  A    between atoms: C_2  and  N_10
REMARK    3  A    between atoms: C_2  and  C_12
REMARK    4  A    between atoms: C_3  and  C_4
REMARK    5  A    between atoms: N_10  and  C_11
REMARK    6  A    between atoms: C_18  and  C_20
REMARK    7  A    between atoms: N_22  and  C_23
REMARK    8  A    between atoms: C_23  and  C_24
REMARK    9  A    between atoms: C_28  and  N_30
REMARK                            x       y       z     vdW  Elec       q    Type
REMARK                         _______ _______ _______ _____ _____    ______ ____
ROOT
ATOM      1  C   UNL     1       5.327  -4.075  25.019  0.00  0.00    +0.234 C 
ATOM      2  N   UNL     1       5.985  -4.311  23.833  0.00  0.00    -0.289 N 
ATOM      3  C   UNL     1       7.204  -5.132  23.787  0.00  0.00    +0.162 C 
ATOM      4  C   UNL     1       7.248  -5.668  22.342  0.00  0.00    +0.033 C 
ATOM      5  C   UNL     1       5.949  -5.198  21.690  0.00  0.00    +0.021 C 
ATOM      6  C   UNL     1       5.550  -3.977  22.492  0.00  0.00    +0.108 C 
ATOM      7  O   UNL     1       5.812  -4.435  26.098  0.00  0.00    -0.274 OA
ENDROOT
BRANCH   3   8
ATOM      8  C   UNL     1       8.520  -4.361  24.065  0.00  0.00    +0.234 C 
ATOM      9  N   UNL     1       8.528  -3.044  23.648  0.00  0.00    -0.314 N 
ATOM     10  H   UNL     1       7.615  -2.612  23.640  0.00  0.00    +0.149 HD
ATOM     11  O   UNL     1       9.497  -4.909  24.570  0.00  0.00    -0.274 OA
BRANCH   9  12
ATOM     12  C   UNL     1       9.685  -2.192  23.846  0.00  0.00    +0.107 C 
BRANCH  12  13
ATOM     13  C   UNL     1       9.334  -0.694  23.930  0.00  0.00    +0.006 C 
ATOM     14  C   UNL     1      10.597   0.177  24.034  0.00  0.00    +0.006 C 
ATOM     15  C   UNL     1      10.255   1.667  24.104  0.00  0.00    +0.019 C 
ATOM     16  C   UNL     1       9.374   2.136  22.938  0.00  0.00    +0.051 C 
ATOM     17  C   UNL     1       8.118   1.260  22.834  0.00  0.00    +0.019 C 
ATOM     18  C   UNL     1       8.422  -0.237  22.780  0.00  0.00    +0.006 C 
BRANCH  16  19
ATOM     19  N   UNL     1      10.138   2.140  21.688  0.00  0.00    -0.327 NA
ATOM     20  H   UNL     1       9.531   1.961  20.893  0.00  0.00    +0.118 HD
ATOM     21  H   UNL     1      10.555   3.058  21.538  0.00  0.00    +0.118 HD
ENDBRANCH  16  19
ENDBRANCH  12  13
ENDBRANCH   9  12
ENDBRANCH   3   8
BRANCH   1  22
ATOM     22  C   UNL     1       3.964  -3.333  24.958  0.00  0.00    +0.145 C 
BRANCH  22  23
ATOM     23  N   UNL     1       4.064  -2.023  25.655  0.00  0.00    -0.308 NA
ATOM     24  H   UNL     1       3.693  -1.304  25.026  0.00  0.00    +0.122 HD
ATOM     25  C   UNL     1       3.307  -1.990  26.899  0.00  0.00    +0.101 C 
ENDBRANCH  22  23
BRANCH  22  26
ATOM     26  C   UNL     1       2.903  -4.249  25.614  0.00  0.00    +0.063 C 
BRANCH  26  27
ATOM     27  C   UNL     1       2.587  -5.492  24.813  0.00  0.00    -0.045 A 
ATOM     28  C   UNL     1       2.605  -6.747  25.439  0.00  0.00    +0.004 A 
ATOM     29  C   UNL     1       2.242  -7.897  24.739  0.00  0.00    +0.000 A 
ATOM     30  C   UNL     1       1.864  -7.808  23.402  0.00  0.00    +0.000 A 
ATOM     31  C   UNL     1       1.871  -6.570  22.759  0.00  0.00    +0.000 A 
ATOM     32  C   UNL     1       2.233  -5.416  23.459  0.00  0.00    +0.004 A 
ENDBRANCH  26  27
ENDBRANCH  22  26
ENDBRANCH   1  22
TORSDOF 8
ENDMDL
