MODEL 1
REMARK VINA RESULT:      -6.0      0.000      0.000
REMARK  Name = 
REMARK  11 active torsions:
REMARK  status: ('A' for Active; 'I' for Inactive)
REMARK    1  A    between atoms: C_2  and  C_21
REMARK    2  A    between atoms: C_4  and  C_18
REMARK    3  A    between atoms: C_6  and  N_8
REMARK    4  A    between atoms: C_12  and  N_14
REMARK    5  A    between atoms: C_15  and  C_16
REMARK    6  A    between atoms: C_18  and  O_19
REMARK    7  A    between atoms: C_21  and  O_23
REMARK    8  A    between atoms: C_21  and  C_24
REMARK    9  A    between atoms: C_24  and  O_26
REMARK   10  A    between atoms: C_24  and  C_27
REMARK   11  A    between atoms: C_27  and  O_28
REMARK                            x       y       z     vdW  Elec       q    Type
REMARK                         _______ _______ _______ _____ _____    ______ ____
ROOT
ATOM      1  C   UNL     1       6.907  -2.347  23.045  0.00  0.00    +0.229 C 
ATOM      2  C   UNL     1       7.168  -2.727  24.538  0.00  0.00    +0.160 C 
ATOM      3  C   UNL     1       8.656  -2.609  24.950  0.00  0.00    +0.238 C 
ATOM      4  C   UNL     1       9.373  -1.533  24.226  0.00  0.00    +0.071 C 
ATOM      5  C   UNL     1       8.927  -1.007  23.083  0.00  0.00    +0.204 C 
ATOM      6  O   UNL     1       7.790  -1.401  22.434  0.00  0.00    -0.477 OA
ENDROOT
BRANCH   3   7
ATOM      7  N   UNL     1       9.331  -3.886  24.698  0.00  0.00    -0.104 NA
ATOM      8  C   UNL     1       9.285  -4.808  25.588  0.00  0.00    +0.377 C 
ATOM      9  N   UNL     1       9.893  -5.996  25.363  0.00  0.00    -0.289 N 
ATOM     10  H   UNL     1      10.385  -6.350  26.177  0.00  0.00    +0.255 HD
ATOM     11  H   UNL     1      10.514  -5.946  24.563  0.00  0.00    +0.255 HD
ATOM     12  N   UNL     1       8.717  -4.841  26.816  0.00  0.00    -0.289 N 
ATOM     13  H   UNL     1       8.335  -5.746  27.061  0.00  0.00    +0.255 HD
ATOM     14  H   UNL     1       8.090  -4.091  27.067  0.00  0.00    +0.255 HD
ENDBRANCH   3   7
BRANCH   2  15
ATOM     15  N   UNL     1       6.311  -1.962  25.473  0.00  0.00    -0.305 N 
ATOM     16  H   UNL     1       6.488  -0.967  25.544  0.00  0.00    +0.149 HD
ATOM     17  C   UNL     1       5.817  -2.538  26.626  0.00  0.00    +0.210 C 
ATOM     18  O   UNL     1       5.932  -3.729  26.898  0.00  0.00    -0.276 OA
ATOM     19  C   UNL     1       5.138  -1.555  27.537  0.00  0.00    +0.109 C 
ENDBRANCH   2  15
BRANCH   5  20
ATOM     20  C   UNL     1       9.713   0.091  22.446  0.00  0.00    +0.372 C 
ATOM     21  O   UNL     1      10.516   0.811  23.017  0.00  0.00    -0.242 OA
BRANCH  20  22
ATOM     22  O   UNL     1       9.383   0.222  21.141  0.00  0.00    -0.475 OA
ATOM     23  H   UNL     1      10.030  -0.268  20.583  0.00  0.00    +0.296 HD
ENDBRANCH  20  22
ENDBRANCH   5  20
BRANCH   1  24
ATOM     24  C   UNL     1       6.751  -3.618  22.170  0.00  0.00    +0.187 C 
BRANCH  24  25
ATOM     25  O   UNL     1       5.660  -3.503  21.242  0.00  0.00    -0.385 OA
ATOM     26  H   UNL     1       4.974  -2.922  21.626  0.00  0.00    +0.210 HD
ENDBRANCH  24  25
BRANCH  24  27
ATOM     27  C   UNL     1       6.587  -4.943  22.965  0.00  0.00    +0.172 C 
BRANCH  27  28
ATOM     28  O   UNL     1       7.746  -5.782  22.824  0.00  0.00    -0.387 OA
ATOM     29  H   UNL     1       7.859  -6.252  23.670  0.00  0.00    +0.210 HD
ENDBRANCH  27  28
BRANCH  27  30
ATOM     30  C   UNL     1       5.338  -5.749  22.565  0.00  0.00    +0.189 C 
BRANCH  30  31
ATOM     31  O   UNL     1       5.540  -6.448  21.333  0.00  0.00    -0.392 OA
ATOM     32  H   UNL     1       5.327  -5.863  20.590  0.00  0.00    +0.210 HD
ENDBRANCH  30  31
ENDBRANCH  27  30
ENDBRANCH  24  27
ENDBRANCH   1  24
TORSDOF 10
ENDMDL
MODEL 2
REMARK VINA RESULT:      -5.9      1.939      4.808
REMARK  Name = 
REMARK  11 active torsions:
REMARK  status: ('A' for Active; 'I' for Inactive)
REMARK    1  A    between atoms: C_2  and  C_21
REMARK    2  A    between atoms: C_4  and  C_18
REMARK    3  A    between atoms: C_6  and  N_8
REMARK    4  A    between atoms: C_12  and  N_14
REMARK    5  A    between atoms: C_15  and  C_16
REMARK    6  A    between atoms: C_18  and  O_19
REMARK    7  A    between atoms: C_21  and  O_23
REMARK    8  A    between atoms: C_21  and  C_24
REMARK    9  A    between atoms: C_24  and  O_26
REMARK   10  A    between atoms: C_24  and  C_27
REMARK   11  A    between atoms: C_27  and  O_28
REMARK                            x       y       z     vdW  Elec       q    Type
REMARK                         _______ _______ _______ _____ _____    ______ ____
ROOT
ATOM      1  C   UNL     1       8.217  -1.841  22.621  0.00  0.00    +0.229 C 
ATOM      2  C   UNL     1       7.935  -3.307  23.082  0.00  0.00    +0.160 C 
ATOM      3  C   UNL     1       7.381  -3.400  24.525  0.00  0.00    +0.238 C 
ATOM      4  C   UNL     1       6.548  -2.233  24.902  0.00  0.00    +0.071 C 
ATOM      5  C   UNL     1       6.601  -1.067  24.254  0.00  0.00    +0.204 C 
ATOM      6  O   UNL     1       7.427  -0.796  23.199  0.00  0.00    -0.477 OA
ENDROOT
BRANCH   3   7
ATOM      7  N   UNL     1       8.499  -3.514  25.467  0.00  0.00    -0.104 NA
ATOM      8  C   UNL     1       8.806  -4.665  25.942  0.00  0.00    +0.377 C 
ATOM      9  N   UNL     1       9.843  -4.786  26.802  0.00  0.00    -0.289 N 
ATOM     10  H   UNL     1       9.646  -5.413  27.575  0.00  0.00    +0.255 HD
ATOM     11  H   UNL     1      10.147  -3.880  27.144  0.00  0.00    +0.255 HD
ATOM     12  N   UNL     1       8.254  -5.887  25.758  0.00  0.00    -0.289 N 
ATOM     13  H   UNL     1       8.932  -6.639  25.750  0.00  0.00    +0.255 HD
ATOM     14  H   UNL     1       7.572  -5.992  25.021  0.00  0.00    +0.255 HD
ENDBRANCH   3   7
BRANCH   2  15
ATOM     15  N   UNL     1       7.050  -4.033  22.141  0.00  0.00    -0.305 N 
ATOM     16  H   UNL     1       6.123  -3.652  22.000  0.00  0.00    +0.149 HD
ATOM     17  C   UNL     1       7.133  -5.403  21.995  0.00  0.00    +0.210 C 
ATOM     18  O   UNL     1       8.004  -6.094  22.513  0.00  0.00    -0.276 OA
ATOM     19  C   UNL     1       6.031  -5.977  21.149  0.00  0.00    +0.109 C 
ENDBRANCH   2  15
BRANCH   5  20
ATOM     20  C   UNL     1       5.702   0.039  24.699  0.00  0.00    +0.372 C 
ATOM     21  O   UNL     1       4.941  -0.005  25.652  0.00  0.00    -0.242 OA
BRANCH  20  22
ATOM     22  O   UNL     1       5.805   1.103  23.870  0.00  0.00    -0.475 OA
ATOM     23  H   UNL     1       5.789   1.937  24.393  0.00  0.00    +0.296 HD
ENDBRANCH  20  22
ENDBRANCH   5  20
BRANCH   1  24
ATOM     24  C   UNL     1       9.730  -1.516  22.709  0.00  0.00    +0.187 C 
BRANCH  24  25
ATOM     25  O   UNL     1      10.353  -2.147  23.840  0.00  0.00    -0.385 OA
ATOM     26  H   UNL     1       9.791  -2.886  24.143  0.00  0.00    +0.210 HD
ENDBRANCH  24  25
BRANCH  24  27
ATOM     27  C   UNL     1      10.074  -0.001  22.737  0.00  0.00    +0.172 C 
BRANCH  27  28
ATOM     28  O   UNL     1       9.609   0.616  23.950  0.00  0.00    -0.387 OA
ATOM     29  H   UNL     1       9.180  -0.083  24.476  0.00  0.00    +0.210 HD
ENDBRANCH  27  28
BRANCH  27  30
ATOM     30  C   UNL     1       9.512   0.780  21.535  0.00  0.00    +0.189 C 
BRANCH  30  31
ATOM     31  O   UNL     1       9.983   2.131  21.525  0.00  0.00    -0.392 OA
ATOM     32  H   UNL     1      10.304   2.356  20.638  0.00  0.00    +0.210 HD
ENDBRANCH  30  31
ENDBRANCH  27  30
ENDBRANCH  24  27
ENDBRANCH   1  24
TORSDOF 10
ENDMDL
MODEL 3
REMARK VINA RESULT:      -5.9      2.380      4.071
REMARK  Name = 
REMARK  11 active torsions:
REMARK  status: ('A' for Active; 'I' for Inactive)
REMARK    1  A    between atoms: C_2  and  C_21
REMARK    2  A    between atoms: C_4  and  C_18
REMARK    3  A    between atoms: C_6  and  N_8
REMARK    4  A    between atoms: C_12  and  N_14
REMARK    5  A    between atoms: C_15  and  C_16
REMARK    6  A    between atoms: C_18  and  O_19
REMARK    7  A    between atoms: C_21  and  O_23
REMARK    8  A    between atoms: C_21  and  C_24
REMARK    9  A    between atoms: C_24  and  O_26
REMARK   10  A    between atoms: C_24  and  C_27
REMARK   11  A    between atoms: C_27  and  O_28
REMARK                            x       y       z     vdW  Elec       q    Type
REMARK                         _______ _______ _______ _____ _____    ______ ____
ROOT
ATOM      1  C   UNL     1       6.391  -2.726  22.934  0.00  0.00    +0.229 C 
ATOM      2  C   UNL     1       5.754  -3.873  23.782  0.00  0.00    +0.160 C 
ATOM      3  C   UNL     1       5.764  -3.588  25.305  0.00  0.00    +0.238 C 
ATOM      4  C   UNL     1       5.638  -2.146  25.624  0.00  0.00    +0.071 C 
ATOM      5  C   UNL     1       5.897  -1.183  24.737  0.00  0.00    +0.204 C 
ATOM      6  O   UNL     1       6.326  -1.395  23.456  0.00  0.00    -0.477 OA
ENDROOT
BRANCH   3   7
ATOM      7  N   UNL     1       7.011  -4.099  25.885  0.00  0.00    -0.104 NA
ATOM      8  C   UNL     1       7.035  -5.282  26.381  0.00  0.00    +0.377 C 
ATOM      9  N   UNL     1       8.181  -5.770  26.908  0.00  0.00    -0.289 N 
ATOM     10  H   UNL     1       8.034  -6.280  27.772  0.00  0.00    +0.255 HD
ATOM     11  H   UNL     1       8.869  -5.036  27.037  0.00  0.00    +0.255 HD
ATOM     12  N   UNL     1       6.068  -6.220  26.509  0.00  0.00    -0.289 N 
ATOM     13  H   UNL     1       6.405  -7.167  26.391  0.00  0.00    +0.255 HD
ATOM     14  H   UNL     1       5.197  -6.071  26.021  0.00  0.00    +0.255 HD
ENDBRANCH   3   7
BRANCH   2  15
ATOM     15  N   UNL     1       4.386  -4.217  23.330  0.00  0.00    -0.305 N 
ATOM     16  H   UNL     1       3.684  -3.490  23.405  0.00  0.00    +0.149 HD
ATOM     17  C   UNL     1       3.893  -5.501  23.452  0.00  0.00    +0.210 C 
ATOM     18  O   UNL     1       4.569  -6.460  23.809  0.00  0.00    -0.276 OA
ATOM     19  C   UNL     1       2.431  -5.608  23.124  0.00  0.00    +0.109 C 
ENDBRANCH   2  15
BRANCH   5  20
ATOM     20  C   UNL     1       5.715   0.240  25.153  0.00  0.00    +0.372 C 
ATOM     21  O   UNL     1       5.877   0.675  26.282  0.00  0.00    -0.242 OA
BRANCH  20  22
ATOM     22  O   UNL     1       5.296   0.993  24.111  0.00  0.00    -0.475 OA
ATOM     23  H   UNL     1       5.953   1.703  23.927  0.00  0.00    +0.296 HD
ENDBRANCH  20  22
ENDBRANCH   5  20
BRANCH   1  24
ATOM     24  C   UNL     1       7.835  -3.092  22.505  0.00  0.00    +0.187 C 
BRANCH  24  25
ATOM     25  O   UNL     1       8.324  -4.256  23.193  0.00  0.00    -0.385 OA
ATOM     26  H   UNL     1       8.468  -4.035  24.133  0.00  0.00    +0.210 HD
ENDBRANCH  24  25
BRANCH  24  27
ATOM     27  C   UNL     1       8.875  -1.950  22.667  0.00  0.00    +0.172 C 
BRANCH  27  28
ATOM     28  O   UNL     1       9.661  -1.788  21.474  0.00  0.00    -0.387 OA
ATOM     29  H   UNL     1       9.524  -2.588  20.935  0.00  0.00    +0.210 HD
ENDBRANCH  27  28
BRANCH  27  30
ATOM     30  C   UNL     1       9.823  -2.145  23.864  0.00  0.00    +0.189 C 
BRANCH  30  31
ATOM     31  O   UNL     1       9.108  -2.130  25.103  0.00  0.00    -0.392 OA
ATOM     32  H   UNL     1       8.500  -2.885  25.136  0.00  0.00    +0.210 HD
ENDBRANCH  30  31
ENDBRANCH  27  30
ENDBRANCH  24  27
ENDBRANCH   1  24
TORSDOF 10
ENDMDL
MODEL 4
REMARK VINA RESULT:      -5.8      1.665      4.624
REMARK  Name = 
REMARK  11 active torsions:
REMARK  status: ('A' for Active; 'I' for Inactive)
REMARK    1  A    between atoms: C_2  and  C_21
REMARK    2  A    between atoms: C_4  and  C_18
REMARK    3  A    between atoms: C_6  and  N_8
REMARK    4  A    between atoms: C_12  and  N_14
REMARK    5  A    between atoms: C_15  and  C_16
REMARK    6  A    between atoms: C_18  and  O_19
REMARK    7  A    between atoms: C_21  and  O_23
REMARK    8  A    between atoms: C_21  and  C_24
REMARK    9  A    between atoms: C_24  and  O_26
REMARK   10  A    between atoms: C_24  and  C_27
REMARK   11  A    between atoms: C_27  and  O_28
REMARK                            x       y       z     vdW  Elec       q    Type
REMARK                         _______ _______ _______ _____ _____    ______ ____
ROOT
ATOM      1  C   UNL     1       6.296  -2.338  23.191  0.00  0.00    +0.229 C 
ATOM      2  C   UNL     1       7.751  -2.445  23.752  0.00  0.00    +0.160 C 
ATOM      3  C   UNL     1       8.239  -3.905  23.914  0.00  0.00    +0.238 C 
ATOM      4  C   UNL     1       7.667  -4.823  22.900  0.00  0.00    +0.071 C 
ATOM      5  C   UNL     1       6.567  -4.534  22.201  0.00  0.00    +0.204 C 
ATOM      6  O   UNL     1       5.829  -3.392  22.343  0.00  0.00    -0.477 OA
ENDROOT
BRANCH   3   7
ATOM      7  N   UNL     1       7.884  -4.390  25.252  0.00  0.00    -0.104 NA
ATOM      8  C   UNL     1       8.654  -5.227  25.843  0.00  0.00    +0.377 C 
ATOM      9  N   UNL     1       8.345  -5.672  27.083  0.00  0.00    -0.289 N 
ATOM     10  H   UNL     1       8.510  -6.666  27.199  0.00  0.00    +0.255 HD
ATOM     11  H   UNL     1       7.390  -5.435  27.332  0.00  0.00    +0.255 HD
ATOM     12  N   UNL     1       9.806  -5.818  25.448  0.00  0.00    -0.289 N 
ATOM     13  H   UNL     1      10.469  -5.954  26.200  0.00  0.00    +0.255 HD
ATOM     14  H   UNL     1      10.254  -5.471  24.613  0.00  0.00    +0.255 HD
ENDBRANCH   3   7
BRANCH   2  15
ATOM     15  N   UNL     1       8.722  -1.661  22.954  0.00  0.00    -0.305 N 
ATOM     16  H   UNL     1       9.556  -2.145  22.646  0.00  0.00    +0.149 HD
ATOM     17  C   UNL     1       8.892  -0.307  23.164  0.00  0.00    +0.210 C 
ATOM     18  O   UNL     1       8.185   0.363  23.909  0.00  0.00    -0.276 OA
ATOM     19  C   UNL     1      10.052   0.269  22.402  0.00  0.00    +0.109 C 
ENDBRANCH   2  15
BRANCH   5  20
ATOM     20  C   UNL     1       6.087  -5.518  21.185  0.00  0.00    +0.372 C 
ATOM     21  O   UNL     1       5.935  -5.292  19.996  0.00  0.00    -0.242 OA
BRANCH  20  22
ATOM     22  O   UNL     1       5.792  -6.703  21.768  0.00  0.00    -0.475 OA
ATOM     23  H   UNL     1       6.457  -6.906  22.464  0.00  0.00    +0.296 HD
ENDBRANCH  20  22
ENDBRANCH   5  20
BRANCH   1  24
ATOM     24  C   UNL     1       5.286  -2.041  24.329  0.00  0.00    +0.187 C 
BRANCH  24  25
ATOM     25  O   UNL     1       5.839  -1.169  25.328  0.00  0.00    -0.385 OA
ATOM     26  H   UNL     1       5.228  -1.126  26.089  0.00  0.00    +0.210 HD
ENDBRANCH  24  25
BRANCH  24  27
ATOM     27  C   UNL     1       4.708  -3.299  25.035  0.00  0.00    +0.172 C 
BRANCH  27  28
ATOM     28  O   UNL     1       3.405  -3.630  24.525  0.00  0.00    -0.387 OA
ATOM     29  H   UNL     1       3.096  -4.409  25.022  0.00  0.00    +0.210 HD
ENDBRANCH  27  28
BRANCH  27  30
ATOM     30  C   UNL     1       4.622  -3.160  26.566  0.00  0.00    +0.189 C 
BRANCH  30  31
ATOM     31  O   UNL     1       5.847  -3.551  27.194  0.00  0.00    -0.392 OA
ATOM     32  H   UNL     1       5.966  -4.509  27.103  0.00  0.00    +0.210 HD
ENDBRANCH  30  31
ENDBRANCH  27  30
ENDBRANCH  24  27
ENDBRANCH   1  24
TORSDOF 10
ENDMDL
MODEL 5
REMARK VINA RESULT:      -5.8      2.611      5.022
REMARK  Name = 
REMARK  11 active torsions:
REMARK  status: ('A' for Active; 'I' for Inactive)
REMARK    1  A    between atoms: C_2  and  C_21
REMARK    2  A    between atoms: C_4  and  C_18
REMARK    3  A    between atoms: C_6  and  N_8
REMARK    4  A    between atoms: C_12  and  N_14
REMARK    5  A    between atoms: C_15  and  C_16
REMARK    6  A    between atoms: C_18  and  O_19
REMARK    7  A    between atoms: C_21  and  O_23
REMARK    8  A    between atoms: C_21  and  C_24
REMARK    9  A    between atoms: C_24  and  O_26
REMARK   10  A    between atoms: C_24  and  C_27
REMARK   11  A    between atoms: C_27  and  O_28
REMARK                            x       y       z     vdW  Elec       q    Type
REMARK                         _______ _______ _______ _____ _____    ______ ____
ROOT
ATOM      1  C   UNL     1       6.460  -2.979  25.352  0.00  0.00    +0.229 C 
ATOM      2  C   UNL     1       6.682  -1.676  24.519  0.00  0.00    +0.160 C 
ATOM      3  C   UNL     1       6.684  -1.919  22.989  0.00  0.00    +0.238 C 
ATOM      4  C   UNL     1       5.792  -3.029  22.579  0.00  0.00    +0.071 C 
ATOM      5  C   UNL     1       5.363  -3.965  23.428  0.00  0.00    +0.204 C 
ATOM      6  O   UNL     1       5.701  -4.034  24.751  0.00  0.00    -0.477 OA
ENDROOT
BRANCH   3   7
ATOM      7  N   UNL     1       8.051  -2.216  22.548  0.00  0.00    -0.104 NA
ATOM      8  C   UNL     1       8.819  -1.253  22.191  0.00  0.00    +0.377 C 
ATOM      9  N   UNL     1      10.086  -1.511  21.793  0.00  0.00    -0.289 N 
ATOM     10  H   UNL     1      10.366  -0.967  20.984  0.00  0.00    +0.255 HD
ATOM     11  H   UNL     1      10.225  -2.502  21.624  0.00  0.00    +0.255 HD
ATOM     12  N   UNL     1       8.606   0.081  22.109  0.00  0.00    -0.289 N 
ATOM     13  H   UNL     1       9.417   0.636  22.353  0.00  0.00    +0.255 HD
ATOM     14  H   UNL     1       7.763   0.451  22.522  0.00  0.00    +0.255 HD
ENDBRANCH   3   7
BRANCH   2  15
ATOM     15  N   UNL     1       5.716  -0.609  24.871  0.00  0.00    -0.305 N 
ATOM     16  H   UNL     1       4.744  -0.780  24.643  0.00  0.00    +0.149 HD
ATOM     17  C   UNL     1       6.081   0.722  24.852  0.00  0.00    +0.210 C 
ATOM     18  O   UNL     1       7.231   1.112  24.678  0.00  0.00    -0.276 OA
ATOM     19  C   UNL     1       4.922   1.658  25.045  0.00  0.00    +0.109 C 
ENDBRANCH   2  15
BRANCH   5  20
ATOM     20  C   UNL     1       4.446  -5.028  22.918  0.00  0.00    +0.372 C 
ATOM     21  O   UNL     1       3.227  -4.999  22.972  0.00  0.00    -0.242 OA
BRANCH  20  22
ATOM     22  O   UNL     1       5.151  -6.069  22.418  0.00  0.00    -0.475 OA
ATOM     23  H   UNL     1       5.915  -6.267  23.007  0.00  0.00    +0.296 HD
ENDBRANCH  20  22
ENDBRANCH   5  20
BRANCH   1  24
ATOM     24  C   UNL     1       7.802  -3.505  25.923  0.00  0.00    +0.187 C 
BRANCH  24  25
ATOM     25  O   UNL     1       8.935  -2.877  25.302  0.00  0.00    -0.385 OA
ATOM     26  H   UNL     1       9.266  -3.450  24.584  0.00  0.00    +0.210 HD
ENDBRANCH  24  25
BRANCH  24  27
ATOM     27  C   UNL     1       7.986  -5.046  25.845  0.00  0.00    +0.172 C 
BRANCH  27  28
ATOM     28  O   UNL     1       8.284  -5.601  27.137  0.00  0.00    -0.387 OA
ATOM     29  H   UNL     1       9.215  -5.890  27.113  0.00  0.00    +0.210 HD
ENDBRANCH  27  28
BRANCH  27  30
ATOM     30  C   UNL     1       9.077  -5.485  24.852  0.00  0.00    +0.189 C 
BRANCH  30  31
ATOM     31  O   UNL     1      10.367  -5.506  25.470  0.00  0.00    -0.392 OA
ATOM     32  H   UNL     1      10.291  -5.867  26.367  0.00  0.00    +0.210 HD
ENDBRANCH  30  31
ENDBRANCH  27  30
ENDBRANCH  24  27
ENDBRANCH   1  24
TORSDOF 10
ENDMDL
MODEL 6
REMARK VINA RESULT:      -5.6      2.318      4.852
REMARK  Name = 
REMARK  11 active torsions:
REMARK  status: ('A' for Active; 'I' for Inactive)
REMARK    1  A    between atoms: C_2  and  C_21
REMARK    2  A    between atoms: C_4  and  C_18
REMARK    3  A    between atoms: C_6  and  N_8
REMARK    4  A    between atoms: C_12  and  N_14
REMARK    5  A    between atoms: C_15  and  C_16
REMARK    6  A    between atoms: C_18  and  O_19
REMARK    7  A    between atoms: C_21  and  O_23
REMARK    8  A    between atoms: C_21  and  C_24
REMARK    9  A    between atoms: C_24  and  O_26
REMARK   10  A    between atoms: C_24  and  C_27
REMARK   11  A    between atoms: C_27  and  O_28
REMARK                            x       y       z     vdW  Elec       q    Type
REMARK                         _______ _______ _______ _____ _____    ______ ____
ROOT
ATOM      1  C   UNL     1       8.166  -2.678  23.371  0.00  0.00    +0.229 C 
ATOM      2  C   UNL     1       8.311  -1.398  24.254  0.00  0.00    +0.160 C 
ATOM      3  C   UNL     1       7.847  -1.607  25.717  0.00  0.00    +0.238 C 
ATOM      4  C   UNL     1       8.077  -2.987  26.205  0.00  0.00    +0.071 C 
ATOM      5  C   UNL     1       8.270  -4.022  25.385  0.00  0.00    +0.204 C 
ATOM      6  O   UNL     1       8.257  -3.951  24.020  0.00  0.00    -0.477 OA
ENDROOT
BRANCH   3   7
ATOM      7  N   UNL     1       6.418  -1.295  25.821  0.00  0.00    -0.104 NA
ATOM      8  C   UNL     1       6.056  -0.116  26.171  0.00  0.00    +0.377 C 
ATOM      9  N   UNL     1       4.740   0.190  26.259  0.00  0.00    -0.289 N 
ATOM     10  H   UNL     1       4.518   0.751  27.074  0.00  0.00    +0.255 HD
ATOM     11  H   UNL     1       4.166  -0.646  26.231  0.00  0.00    +0.255 HD
ATOM     12  N   UNL     1       6.775   0.979  26.512  0.00  0.00    -0.289 N 
ATOM     13  H   UNL     1       6.358   1.849  26.206  0.00  0.00    +0.255 HD
ATOM     14  H   UNL     1       7.770   0.963  26.343  0.00  0.00    +0.255 HD
ENDBRANCH   3   7
BRANCH   2  15
ATOM     15  N   UNL     1       9.684  -0.842  24.222  0.00  0.00    -0.305 N 
ATOM     16  H   UNL     1      10.427  -1.441  24.561  0.00  0.00    +0.149 HD
ATOM     17  C   UNL     1       9.914   0.508  24.397  0.00  0.00    +0.210 C 
ATOM     18  O   UNL     1       9.024   1.350  24.459  0.00  0.00    -0.276 OA
ATOM     19  C   UNL     1      11.371   0.849  24.529  0.00  0.00    +0.109 C 
ENDBRANCH   2  15
BRANCH   5  20
ATOM     20  C   UNL     1       8.517  -5.370  25.980  0.00  0.00    +0.372 C 
ATOM     21  O   UNL     1       7.776  -5.949  26.758  0.00  0.00    -0.242 OA
BRANCH  20  22
ATOM     22  O   UNL     1       9.712  -5.859  25.577  0.00  0.00    -0.475 OA
ATOM     23  H   UNL     1      10.426  -5.215  25.791  0.00  0.00    +0.296 HD
ENDBRANCH  20  22
ENDBRANCH   5  20
BRANCH   1  24
ATOM     24  C   UNL     1       6.904  -2.592  22.475  0.00  0.00    +0.187 C 
BRANCH  24  25
ATOM     25  O   UNL     1       6.029  -1.525  22.878  0.00  0.00    -0.385 OA
ATOM     26  H   UNL     1       5.321  -1.423  22.212  0.00  0.00    +0.210 HD
ENDBRANCH  24  25
BRANCH  24  27
ATOM     27  C   UNL     1       6.076  -3.903  22.383  0.00  0.00    +0.172 C 
BRANCH  27  28
ATOM     28  O   UNL     1       5.757  -4.224  21.018  0.00  0.00    -0.387 OA
ATOM     29  H   UNL     1       6.112  -3.502  20.468  0.00  0.00    +0.210 HD
ENDBRANCH  27  28
BRANCH  27  30
ATOM     30  C   UNL     1       4.773  -3.867  23.203  0.00  0.00    +0.189 C 
BRANCH  30  31
ATOM     31  O   UNL     1       5.039  -3.691  24.597  0.00  0.00    -0.392 OA
ATOM     32  H   UNL     1       4.523  -2.941  24.934  0.00  0.00    +0.210 HD
ENDBRANCH  30  31
ENDBRANCH  27  30
ENDBRANCH  24  27
ENDBRANCH   1  24
TORSDOF 10
ENDMDL
MODEL 7
REMARK VINA RESULT:      -5.5      3.110      5.604
REMARK  Name = 
REMARK  11 active torsions:
REMARK  status: ('A' for Active; 'I' for Inactive)
REMARK    1  A    between atoms: C_2  and  C_21
REMARK    2  A    between atoms: C_4  and  C_18
REMARK    3  A    between atoms: C_6  and  N_8
REMARK    4  A    between atoms: C_12  and  N_14
REMARK    5  A    between atoms: C_15  and  C_16
REMARK    6  A    between atoms: C_18  and  O_19
REMARK    7  A    between atoms: C_21  and  O_23
REMARK    8  A    between atoms: C_21  and  C_24
REMARK    9  A    between atoms: C_24  and  O_26
REMARK   10  A    between atoms: C_24  and  C_27
REMARK   11  A    between atoms: C_27  and  O_28
REMARK                            x       y       z     vdW  Elec       q    Type
REMARK                         _______ _______ _______ _____ _____    ______ ____
ROOT
ATOM      1  C   UNL     1       7.482   0.251  22.471  0.00  0.00    +0.229 C 
ATOM      2  C   UNL     1       7.096  -0.806  23.554  0.00  0.00    +0.160 C 
ATOM      3  C   UNL     1       6.507  -0.177  24.841  0.00  0.00    +0.238 C 
ATOM      4  C   UNL     1       5.745   1.067  24.581  0.00  0.00    +0.071 C 
ATOM      5  C   UNL     1       5.887   1.782  23.463  0.00  0.00    +0.204 C 
ATOM      6  O   UNL     1       6.750   1.481  22.447  0.00  0.00    -0.477 OA
ENDROOT
BRANCH   3   7
ATOM      7  N   UNL     1       7.596   0.117  25.779  0.00  0.00    -0.104 NA
ATOM      8  C   UNL     1       8.039  -0.815  26.541  0.00  0.00    +0.377 C 
ATOM      9  N   UNL     1       9.051  -0.561  27.401  0.00  0.00    -0.289 N 
ATOM     10  H   UNL     1       8.913  -0.985  28.313  0.00  0.00    +0.255 HD
ATOM     11  H   UNL     1       9.217   0.436  27.491  0.00  0.00    +0.255 HD
ATOM     12  N   UNL     1       7.665  -2.108  26.686  0.00  0.00    -0.289 N 
ATOM     13  H   UNL     1       8.437  -2.733  26.876  0.00  0.00    +0.255 HD
ATOM     14  H   UNL     1       7.030  -2.496  26.004  0.00  0.00    +0.255 HD
ENDBRANCH   3   7
BRANCH   2  15
ATOM     15  N   UNL     1       6.186  -1.849  23.026  0.00  0.00    -0.305 N 
ATOM     16  H   UNL     1       5.265  -1.906  23.444  0.00  0.00    +0.149 HD
ATOM     17  C   UNL     1       6.674  -3.050  22.552  0.00  0.00    +0.210 C 
ATOM     18  O   UNL     1       7.868  -3.295  22.410  0.00  0.00    -0.276 OA
ATOM     19  C   UNL     1       5.594  -4.049  22.245  0.00  0.00    +0.109 C 
ENDBRANCH   2  15
BRANCH   5  20
ATOM     20  C   UNL     1       5.052   3.008  23.289  0.00  0.00    +0.372 C 
ATOM     21  O   UNL     1       5.479   4.139  23.117  0.00  0.00    -0.242 OA
BRANCH  20  22
ATOM     22  O   UNL     1       3.736   2.711  23.391  0.00  0.00    -0.475 OA
ATOM     23  H   UNL     1       3.407   2.958  24.286  0.00  0.00    +0.296 HD
ENDBRANCH  20  22
ENDBRANCH   5  20
BRANCH   1  24
ATOM     24  C   UNL     1       9.011   0.507  22.468  0.00  0.00    +0.187 C 
BRANCH  24  25
ATOM     25  O   UNL     1       9.687  -0.252  23.485  0.00  0.00    -0.385 OA
ATOM     26  H   UNL     1      10.526  -0.595  23.123  0.00  0.00    +0.210 HD
ENDBRANCH  24  25
BRANCH  24  27
ATOM     27  C   UNL     1       9.426   1.998  22.607  0.00  0.00    +0.172 C 
BRANCH  27  28
ATOM     28  O   UNL     1      10.300   2.398  21.538  0.00  0.00    -0.387 OA
ATOM     29  H   UNL     1      10.838   1.619  21.307  0.00  0.00    +0.210 HD
ENDBRANCH  27  28
BRANCH  27  30
ATOM     30  C   UNL     1      10.101   2.326  23.951  0.00  0.00    +0.189 C 
BRANCH  30  31
ATOM     31  O   UNL     1       9.156   2.318  25.025  0.00  0.00    -0.392 OA
ATOM     32  H   UNL     1       9.622   2.438  25.868  0.00  0.00    +0.210 HD
ENDBRANCH  30  31
ENDBRANCH  27  30
ENDBRANCH  24  27
ENDBRANCH   1  24
TORSDOF 10
ENDMDL
MODEL 8
REMARK VINA RESULT:      -5.5      4.245      7.086
REMARK  Name = 
REMARK  11 active torsions:
REMARK  status: ('A' for Active; 'I' for Inactive)
REMARK    1  A    between atoms: C_2  and  C_21
REMARK    2  A    between atoms: C_4  and  C_18
REMARK    3  A    between atoms: C_6  and  N_8
REMARK    4  A    between atoms: C_12  and  N_14
REMARK    5  A    between atoms: C_15  and  C_16
REMARK    6  A    between atoms: C_18  and  O_19
REMARK    7  A    between atoms: C_21  and  O_23
REMARK    8  A    between atoms: C_21  and  C_24
REMARK    9  A    between atoms: C_24  and  O_26
REMARK   10  A    between atoms: C_24  and  C_27
REMARK   11  A    between atoms: C_27  and  O_28
REMARK                            x       y       z     vdW  Elec       q    Type
REMARK                         _______ _______ _______ _____ _____    ______ ____
ROOT
ATOM      1  C   UNL     1       9.720   1.718  24.312  0.00  0.00    +0.229 C 
ATOM      2  C   UNL     1       8.230   1.723  24.781  0.00  0.00    +0.160 C 
ATOM      3  C   UNL     1       7.316   0.810  23.927  0.00  0.00    +0.238 C 
ATOM      4  C   UNL     1       8.020  -0.382  23.398  0.00  0.00    +0.071 C 
ATOM      5  C   UNL     1       9.350  -0.459  23.313  0.00  0.00    +0.204 C 
ATOM      6  O   UNL     1      10.215   0.538  23.671  0.00  0.00    -0.477 OA
ENDROOT
BRANCH   3   7
ATOM      7  N   UNL     1       6.774   1.582  22.803  0.00  0.00    -0.104 NA
ATOM      8  C   UNL     1       5.672   2.220  22.953  0.00  0.00    +0.377 C 
ATOM      9  N   UNL     1       5.167   2.946  21.929  0.00  0.00    -0.289 N 
ATOM     10  H   UNL     1       4.163   2.846  21.829  0.00  0.00    +0.255 HD
ATOM     11  H   UNL     1       5.638   2.730  21.056  0.00  0.00    +0.255 HD
ATOM     12  N   UNL     1       4.829   2.319  24.007  0.00  0.00    -0.289 N 
ATOM     13  H   UNL     1       4.399   3.231  24.097  0.00  0.00    +0.255 HD
ATOM     14  H   UNL     1       5.143   1.965  24.898  0.00  0.00    +0.255 HD
ENDBRANCH   3   7
BRANCH   2  15
ATOM     15  N   UNL     1       8.089   1.394  26.218  0.00  0.00    -0.305 N 
ATOM     16  H   UNL     1       8.384   0.469  26.506  0.00  0.00    +0.149 HD
ATOM     17  C   UNL     1       7.070   1.931  26.979  0.00  0.00    +0.210 C 
ATOM     18  O   UNL     1       6.301   2.798  26.576  0.00  0.00    -0.276 OA
ATOM     19  C   UNL     1       6.976   1.331  28.353  0.00  0.00    +0.109 C 
ENDBRANCH   2  15
BRANCH   5  20
ATOM     20  C   UNL     1       9.962  -1.716  22.788  0.00  0.00    +0.372 C 
ATOM     21  O   UNL     1      10.247  -2.698  23.454  0.00  0.00    -0.242 OA
BRANCH  20  22
ATOM     22  O   UNL     1      10.208  -1.612  21.461  0.00  0.00    -0.475 OA
ATOM     23  H   UNL     1      11.135  -1.315  21.317  0.00  0.00    +0.296 HD
ENDBRANCH  20  22
ENDBRANCH   5  20
BRANCH   1  24
ATOM     24  C   UNL     1      10.042   2.987  23.481  0.00  0.00    +0.187 C 
BRANCH  24  25
ATOM     25  O   UNL     1      11.389   3.443  23.694  0.00  0.00    -0.385 OA
ATOM     26  H   UNL     1      11.971   2.670  23.830  0.00  0.00    +0.210 HD
ENDBRANCH  24  25
BRANCH  24  27
ATOM     27  C   UNL     1       9.075   4.181  23.708  0.00  0.00    +0.172 C 
BRANCH  27  28
ATOM     28  O   UNL     1       8.230   4.392  22.564  0.00  0.00    -0.387 OA
ATOM     29  H   UNL     1       7.761   5.233  22.710  0.00  0.00    +0.210 HD
ENDBRANCH  27  28
BRANCH  27  30
ATOM     30  C   UNL     1       9.793   5.500  24.046  0.00  0.00    +0.189 C 
BRANCH  30  31
ATOM     31  O   UNL     1      10.511   6.007  22.917  0.00  0.00    -0.392 OA
ATOM     32  H   UNL     1       9.893   6.434  22.304  0.00  0.00    +0.210 HD
ENDBRANCH  30  31
ENDBRANCH  27  30
ENDBRANCH  24  27
ENDBRANCH   1  24
TORSDOF 10
ENDMDL
MODEL 9
REMARK VINA RESULT:      -5.4      3.162      4.118
REMARK  Name = 
REMARK  11 active torsions:
REMARK  status: ('A' for Active; 'I' for Inactive)
REMARK    1  A    between atoms: C_2  and  C_21
REMARK    2  A    between atoms: C_4  and  C_18
REMARK    3  A    between atoms: C_6  and  N_8
REMARK    4  A    between atoms: C_12  and  N_14
REMARK    5  A    between atoms: C_15  and  C_16
REMARK    6  A    between atoms: C_18  and  O_19
REMARK    7  A    between atoms: C_21  and  O_23
REMARK    8  A    between atoms: C_21  and  C_24
REMARK    9  A    between atoms: C_24  and  O_26
REMARK   10  A    between atoms: C_24  and  C_27
REMARK   11  A    between atoms: C_27  and  O_28
REMARK                            x       y       z     vdW  Elec       q    Type
REMARK                         _______ _______ _______ _____ _____    ______ ____
ROOT
ATOM      1  C   UNL     1       5.876  -3.379  24.619  0.00  0.00    +0.229 C 
ATOM      2  C   UNL     1       5.143  -3.942  25.878  0.00  0.00    +0.160 C 
ATOM      3  C   UNL     1       5.711  -5.298  26.363  0.00  0.00    +0.238 C 
ATOM      4  C   UNL     1       7.165  -5.440  26.112  0.00  0.00    +0.071 C 
ATOM      5  C   UNL     1       7.823  -4.691  25.223  0.00  0.00    +0.204 C 
ATOM      6  O   UNL     1       7.250  -3.735  24.431  0.00  0.00    -0.477 OA
ENDROOT
BRANCH   3   7
ATOM      7  N   UNL     1       5.002  -6.390  25.688  0.00  0.00    -0.104 NA
ATOM      8  C   UNL     1       4.052  -6.996  26.300  0.00  0.00    +0.377 C 
ATOM      9  N   UNL     1       3.380  -7.996  25.684  0.00  0.00    -0.289 N 
ATOM     10  H   UNL     1       3.195  -8.784  26.296  0.00  0.00    +0.255 HD
ATOM     11  H   UNL     1       3.861  -8.300  24.844  0.00  0.00    +0.255 HD
ATOM     12  N   UNL     1       3.544  -6.839  27.545  0.00  0.00    -0.289 N 
ATOM     13  H   UNL     1       2.544  -6.985  27.595  0.00  0.00    +0.255 HD
ATOM     14  H   UNL     1       3.829  -6.028  28.073  0.00  0.00    +0.255 HD
ENDBRANCH   3   7
BRANCH   2  15
ATOM     15  N   UNL     1       5.109  -2.968  26.994  0.00  0.00    -0.305 N 
ATOM     16  H   UNL     1       5.489  -3.276  27.881  0.00  0.00    +0.149 HD
ATOM     17  C   UNL     1       4.097  -2.035  27.099  0.00  0.00    +0.210 C 
ATOM     18  O   UNL     1       3.243  -1.854  26.237  0.00  0.00    -0.276 OA
ATOM     19  C   UNL     1       4.126  -1.272  28.393  0.00  0.00    +0.109 C 
ENDBRANCH   2  15
BRANCH   5  20
ATOM     20  C   UNL     1       9.293  -4.896  25.064  0.00  0.00    +0.372 C 
ATOM     21  O   UNL     1      10.061  -4.127  24.509  0.00  0.00    -0.242 OA
BRANCH  20  22
ATOM     22  O   UNL     1       9.670  -6.088  25.583  0.00  0.00    -0.475 OA
ATOM     23  H   UNL     1      10.542  -6.352  25.212  0.00  0.00    +0.296 HD
ENDBRANCH  20  22
ENDBRANCH   5  20
BRANCH   1  24
ATOM     24  C   UNL     1       5.047  -3.637  23.334  0.00  0.00    +0.187 C 
BRANCH  24  25
ATOM     25  O   UNL     1       3.871  -4.420  23.600  0.00  0.00    -0.385 OA
ATOM     26  H   UNL     1       4.009  -4.936  24.419  0.00  0.00    +0.210 HD
ENDBRANCH  24  25
BRANCH  24  27
ATOM     27  C   UNL     1       5.832  -4.304  22.171  0.00  0.00    +0.172 C 
BRANCH  27  28
ATOM     28  O   UNL     1       5.703  -3.548  20.955  0.00  0.00    -0.387 OA
ATOM     29  H   UNL     1       6.606  -3.370  20.636  0.00  0.00    +0.210 HD
ENDBRANCH  27  28
BRANCH  27  30
ATOM     30  C   UNL     1       5.412  -5.760  21.900  0.00  0.00    +0.189 C 
BRANCH  30  31
ATOM     31  O   UNL     1       5.764  -6.616  22.990  0.00  0.00    -0.392 OA
ATOM     32  H   UNL     1       4.970  -6.830  23.504  0.00  0.00    +0.210 HD
ENDBRANCH  30  31
ENDBRANCH  27  30
ENDBRANCH  24  27
ENDBRANCH   1  24
TORSDOF 10
ENDMDL
