MODEL 1
REMARK VINA RESULT:      -6.8      0.000      0.000
REMARK  Name = 
REMARK  27 active torsions:
REMARK  status: ('A' for Active; 'I' for Inactive)
REMARK    1  A    between atoms: C_1  and  C_2
REMARK    2  A    between atoms: C_2  and  C_3
REMARK    3  A    between atoms: C_2  and  C_4
REMARK    4  A    between atoms: C_2  and  C_40
REMARK    5  A    between atoms: C_4  and  O_5
REMARK    6  A    between atoms: O_5  and  P_6
REMARK    7  A    between atoms: P_6  and  O_7
REMARK    8  A    between atoms: P_6  and  O_9
REMARK    9  A    between atoms: O_9  and  P_10
REMARK   10  A    between atoms: P_10  and  O_11
REMARK   11  A    between atoms: P_10  and  O_13
REMARK   12  A    between atoms: O_13  and  C_14
REMARK   13  A    between atoms: C_14  and  C_15
REMARK   14  A    between atoms: C_18  and  N_30
REMARK   15  A    between atoms: C_20  and  O_22
REMARK   16  A    between atoms: C_23  and  O_25
REMARK   17  A    between atoms: O_25  and  P_26
REMARK   18  A    between atoms: P_26  and  O_27
REMARK   19  A    between atoms: P_26  and  O_28
REMARK   20  A    between atoms: C_40  and  O_42
REMARK   21  A    between atoms: C_40  and  C_43
REMARK   22  A    between atoms: N_45  and  C_46
REMARK   23  A    between atoms: C_46  and  C_47
REMARK   24  A    between atoms: C_47  and  C_48
REMARK   25  A    between atoms: N_50  and  C_51
REMARK   26  A    between atoms: C_51  and  C_52
REMARK   27  A    between atoms: C_52  and  S_53
REMARK                            x       y       z     vdW  Elec       q    Type
REMARK                         _______ _______ _______ _____ _____    ______ ____
ROOT
ATOM      1  P   UNL     1       9.323  -2.386  23.709  0.00  0.00    +0.483 P 
ATOM      2  O   UNL     1      10.589  -2.287  22.909  0.00  0.00    -0.227 OA
ENDROOT
BRANCH   1   3
ATOM      3  O   UNL     1       8.191  -3.303  22.945  0.00  0.00    -0.302 OA
ATOM      4  H   UNL     1       7.572  -3.503  23.649  0.00  0.00    +0.222 HD
ENDBRANCH   1   3
BRANCH   1   5
ATOM      5  O   UNL     1       8.340  -1.357  22.977  0.00  0.00    -0.186 OA
BRANCH   5   6
ATOM      6  P   UNL     1       6.911  -0.607  23.598  0.00  0.00    +0.483 P 
ATOM      7  O   UNL     1       7.227  -1.057  25.024  0.00  0.00    -0.227 OA
BRANCH   6   8
ATOM      8  O   UNL     1       5.481   0.143  24.219  0.00  0.00    -0.302 OA
ATOM      9  H   UNL     1       5.802   1.025  24.501  0.00  0.00    +0.222 HD
ENDBRANCH   6   8
BRANCH   6  10
ATOM     10  O   UNL     1       7.575   0.857  23.309  0.00  0.00    -0.286 OA
BRANCH  10  11
ATOM     11  C   UNL     1       8.563   1.327  24.214  0.00  0.00    +0.181 C 
BRANCH  11  13
ATOM     12  C   UNL     1      11.033   0.842  24.455  0.00  0.00    +0.016 C 
ATOM     13  C   UNL     1       9.985   1.641  23.649  0.00  0.00    +0.024 C 
ATOM     14  C   UNL     1      10.193   1.243  22.170  0.00  0.00    +0.016 C 
BRANCH  13  15
ATOM     15  C   UNL     1      10.211   3.181  23.842  0.00  0.00    +0.208 C 
BRANCH  15  16
ATOM     16  C   UNL     1       8.885   3.993  23.770  0.00  0.00    +0.242 C 
ATOM     17  N   UNL     1       8.227   3.908  22.558  0.00  0.00    -0.313 N 
ATOM     18  H   UNL     1       8.392   3.067  22.018  0.00  0.00    +0.149 HD
ATOM     19  O   UNL     1       8.465   4.691  24.688  0.00  0.00    -0.273 OA
BRANCH  17  20
ATOM     20  C   UNL     1       6.955   4.593  22.359  0.00  0.00    +0.113 C 
BRANCH  20  21
ATOM     21  C   UNL     1       5.746   3.661  22.458  0.00  0.00    +0.114 C 
BRANCH  21  22
ATOM     22  C   UNL     1       5.047   3.803  23.791  0.00  0.00    +0.215 C 
ATOM     23  N   UNL     1       5.735   3.221  24.837  0.00  0.00    -0.314 N 
ATOM     24  H   UNL     1       6.563   2.671  24.643  0.00  0.00    +0.149 HD
ATOM     25  O   UNL     1       3.991   4.406  23.944  0.00  0.00    -0.276 OA
BRANCH  23  26
ATOM     26  C   UNL     1       5.230   3.250  26.202  0.00  0.00    +0.114 C 
BRANCH  26  27
ATOM     27  C   UNL     1       5.241   1.884  26.889  0.00  0.00    +0.084 C 
BRANCH  27  28
ATOM     28  S   UNL     1       6.813   1.586  27.765  0.00  0.00    -0.177 S 
ATOM     29  H   UNL     1       7.128   0.458  27.114  0.00  0.00    +0.102 HD
ENDBRANCH  27  28
ENDBRANCH  26  27
ENDBRANCH  23  26
ENDBRANCH  21  22
ENDBRANCH  20  21
ENDBRANCH  17  20
ENDBRANCH  15  16
BRANCH  15  30
ATOM     30  O   UNL     1      11.129   3.726  22.899  0.00  0.00    -0.382 OA
ATOM     31  H   UNL     1      10.712   4.494  22.474  0.00  0.00    +0.210 HD
ENDBRANCH  15  30
ENDBRANCH  13  15
ENDBRANCH  11  13
ENDBRANCH  10  11
ENDBRANCH   6  10
ENDBRANCH   5   6
ENDBRANCH   1   5
BRANCH   1  32
ATOM     32  O   UNL     1       9.414  -3.868  24.371  0.00  0.00    -0.284 OA
BRANCH  32  33
ATOM     33  C   UNL     1       9.067  -4.118  25.727  0.00  0.00    +0.206 C 
BRANCH  33  34
ATOM     34  C   UNL     1       7.967  -5.194  25.983  0.00  0.00    +0.179 C 
ATOM     35  C   UNL     1       6.932  -4.950  27.092  0.00  0.00    +0.194 C 
ATOM     36  C   UNL     1       5.778  -4.213  26.410  0.00  0.00    +0.196 C 
ATOM     37  C   UNL     1       6.020  -4.423  24.908  0.00  0.00    +0.253 C 
ATOM     38  O   UNL     1       7.154  -5.313  24.776  0.00  0.00    -0.346 OA
BRANCH  37  39
ATOM     39  N   UNL     1       4.873  -4.942  24.175  0.00  0.00    -0.286 N 
ATOM     40  C   UNL     1       3.560  -4.588  24.390  0.00  0.00    +0.167 A 
ATOM     41  N   UNL     1       3.073  -3.757  25.325  0.00  0.00    -0.216 NA
ATOM     42  C   UNL     1       1.731  -3.670  25.229  0.00  0.00    +0.225 A 
ATOM     43  N   UNL     1       0.908  -4.309  24.372  0.00  0.00    -0.219 NA
ATOM     44  C   UNL     1       1.442  -5.129  23.426  0.00  0.00    +0.147 A 
ATOM     45  N   UNL     1       0.603  -5.741  22.532  0.00  0.00    -0.341 N 
ATOM     46  H   UNL     1       1.054  -6.054  21.682  0.00  0.00    +0.144 HD
ATOM     47  H   UNL     1      -0.315  -5.298  22.489  0.00  0.00    +0.144 HD
ATOM     48  C   UNL     1       2.841  -5.280  23.424  0.00  0.00    +0.147 A 
ATOM     49  N   UNL     1       3.686  -6.009  22.613  0.00  0.00    -0.231 NA
ATOM     50  C   UNL     1       4.894  -5.772  23.084  0.00  0.00    +0.203 A 
ENDBRANCH  37  39
BRANCH  36  51
ATOM     51  O   UNL     1       5.810  -2.823  26.730  0.00  0.00    -0.385 OA
ATOM     52  H   UNL     1       5.119  -2.680  27.409  0.00  0.00    +0.210 HD
ENDBRANCH  36  51
BRANCH  35  53
ATOM     53  O   UNL     1       6.446  -6.247  27.464  0.00  0.00    -0.278 OA
BRANCH  53  54
ATOM     54  P   UNL     1       5.907  -6.501  28.948  0.00  0.00    +0.473 P 
ATOM     55  O   UNL     1       5.506  -5.322  29.758  0.00  0.00    -0.228 OA
BRANCH  54  56
ATOM     56  O   UNL     1       4.709  -7.510  28.638  0.00  0.00    -0.303 OA
ATOM     57  H   UNL     1       4.300  -7.820  29.467  0.00  0.00    +0.222 HD
ENDBRANCH  54  56
BRANCH  54  58
ATOM     58  O   UNL     1       6.962  -7.525  29.561  0.00  0.00    -0.303 OA
ATOM     59  H   UNL     1       6.494  -8.225  30.054  0.00  0.00    +0.222 HD
ENDBRANCH  54  58
ENDBRANCH  53  54
ENDBRANCH  35  53
ENDBRANCH  33  34
ENDBRANCH  32  33
ENDBRANCH   1  32
TORSDOF 25
ENDMDL
MODEL 2
REMARK VINA RESULT:      -6.7      2.972      4.407
REMARK  Name = 
REMARK  27 active torsions:
REMARK  status: ('A' for Active; 'I' for Inactive)
REMARK    1  A    between atoms: C_1  and  C_2
REMARK    2  A    between atoms: C_2  and  C_3
REMARK    3  A    between atoms: C_2  and  C_4
REMARK    4  A    between atoms: C_2  and  C_40
REMARK    5  A    between atoms: C_4  and  O_5
REMARK    6  A    between atoms: O_5  and  P_6
REMARK    7  A    between atoms: P_6  and  O_7
REMARK    8  A    between atoms: P_6  and  O_9
REMARK    9  A    between atoms: O_9  and  P_10
REMARK   10  A    between atoms: P_10  and  O_11
REMARK   11  A    between atoms: P_10  and  O_13
REMARK   12  A    between atoms: O_13  and  C_14
REMARK   13  A    between atoms: C_14  and  C_15
REMARK   14  A    between atoms: C_18  and  N_30
REMARK   15  A    between atoms: C_20  and  O_22
REMARK   16  A    between atoms: C_23  and  O_25
REMARK   17  A    between atoms: O_25  and  P_26
REMARK   18  A    between atoms: P_26  and  O_27
REMARK   19  A    between atoms: P_26  and  O_28
REMARK   20  A    between atoms: C_40  and  O_42
REMARK   21  A    between atoms: C_40  and  C_43
REMARK   22  A    between atoms: N_45  and  C_46
REMARK   23  A    between atoms: C_46  and  C_47
REMARK   24  A    between atoms: C_47  and  C_48
REMARK   25  A    between atoms: N_50  and  C_51
REMARK   26  A    between atoms: C_51  and  C_52
REMARK   27  A    between atoms: C_52  and  S_53
REMARK                            x       y       z     vdW  Elec       q    Type
REMARK                         _______ _______ _______ _____ _____    ______ ____
ROOT
ATOM      1  P   UNL     1      10.081   0.166  23.873  0.00  0.00    +0.483 P 
ATOM      2  O   UNL     1      11.386   0.562  24.498  0.00  0.00    -0.227 OA
ENDROOT
BRANCH   1   3
ATOM      3  O   UNL     1      10.301  -0.556  22.410  0.00  0.00    -0.302 OA
ATOM      4  H   UNL     1      10.920   0.033  21.976  0.00  0.00    +0.222 HD
ENDBRANCH   1   3
BRANCH   1   5
ATOM      5  O   UNL     1       9.835   1.304  22.775  0.00  0.00    -0.186 OA
BRANCH   5   6
ATOM      6  P   UNL     1       8.333   1.972  22.236  0.00  0.00    +0.483 P 
ATOM      7  O   UNL     1       7.567   0.709  22.625  0.00  0.00    -0.227 OA
BRANCH   6   8
ATOM      8  O   UNL     1       6.832   2.640  21.696  0.00  0.00    -0.302 OA
ATOM      9  H   UNL     1       6.556   2.017  20.992  0.00  0.00    +0.222 HD
ENDBRANCH   6   8
BRANCH   6  10
ATOM     10  O   UNL     1       8.368   3.018  23.490  0.00  0.00    -0.286 OA
BRANCH  10  11
ATOM     11  C   UNL     1       9.338   4.055  23.462  0.00  0.00    +0.181 C 
BRANCH  11  13
ATOM     12  C   UNL     1       8.434   5.173  25.542  0.00  0.00    +0.016 C 
ATOM     13  C   UNL     1       8.967   5.425  24.115  0.00  0.00    +0.024 C 
ATOM     14  C   UNL     1      10.152   6.406  24.270  0.00  0.00    +0.016 C 
BRANCH  13  15
ATOM     15  C   UNL     1       7.844   6.055  23.220  0.00  0.00    +0.208 C 
BRANCH  15  16
ATOM     16  C   UNL     1       6.417   5.816  23.794  0.00  0.00    +0.242 C 
ATOM     17  N   UNL     1       5.809   4.655  23.352  0.00  0.00    -0.313 N 
ATOM     18  H   UNL     1       6.430   3.903  23.076  0.00  0.00    +0.149 HD
ATOM     19  O   UNL     1       5.846   6.601  24.544  0.00  0.00    -0.273 OA
BRANCH  17  20
ATOM     20  C   UNL     1       4.483   4.288  23.833  0.00  0.00    +0.113 C 
BRANCH  20  21
ATOM     21  C   UNL     1       4.427   2.882  24.433  0.00  0.00    +0.114 C 
BRANCH  21  22
ATOM     22  C   UNL     1       5.435   2.717  25.549  0.00  0.00    +0.215 C 
ATOM     23  N   UNL     1       6.222   1.592  25.416  0.00  0.00    -0.314 N 
ATOM     24  H   UNL     1       6.017   0.925  24.683  0.00  0.00    +0.149 HD
ATOM     25  O   UNL     1       5.572   3.520  26.465  0.00  0.00    -0.276 OA
BRANCH  23  26
ATOM     26  C   UNL     1       7.255   1.255  26.386  0.00  0.00    +0.114 C 
BRANCH  26  27
ATOM     27  C   UNL     1       6.945  -0.002  27.199  0.00  0.00    +0.084 C 
BRANCH  27  28
ATOM     28  S   UNL     1       5.155  -0.187  27.495  0.00  0.00    -0.177 S 
ATOM     29  H   UNL     1       4.761   0.525  26.429  0.00  0.00    +0.102 HD
ENDBRANCH  27  28
ENDBRANCH  26  27
ENDBRANCH  23  26
ENDBRANCH  21  22
ENDBRANCH  20  21
ENDBRANCH  17  20
ENDBRANCH  15  16
BRANCH  15  30
ATOM     30  O   UNL     1       7.878   5.581  21.876  0.00  0.00    -0.382 OA
ATOM     31  H   UNL     1       8.410   6.198  21.347  0.00  0.00    +0.210 HD
ENDBRANCH  15  30
ENDBRANCH  13  15
ENDBRANCH  11  13
ENDBRANCH  10  11
ENDBRANCH   6  10
ENDBRANCH   5   6
ENDBRANCH   1   5
BRANCH   1  32
ATOM     32  O   UNL     1      10.009  -1.437  24.139  0.00  0.00    -0.284 OA
BRANCH  32  33
ATOM     33  C   UNL     1       9.078  -2.016  25.043  0.00  0.00    +0.206 C 
BRANCH  33  34
ATOM     34  C   UNL     1       7.753  -2.567  24.429  0.00  0.00    +0.179 C 
ATOM     35  C   UNL     1       7.824  -3.726  23.424  0.00  0.00    +0.194 C 
ATOM     36  C   UNL     1       7.732  -4.997  24.270  0.00  0.00    +0.196 C 
ATOM     37  C   UNL     1       7.220  -4.516  25.635  0.00  0.00    +0.253 C 
ATOM     38  O   UNL     1       6.935  -3.103  25.514  0.00  0.00    -0.346 OA
BRANCH  37  39
ATOM     39  N   UNL     1       6.054  -5.234  26.134  0.00  0.00    -0.286 N 
ATOM     40  C   UNL     1       5.949  -5.824  27.373  0.00  0.00    +0.167 A 
ATOM     41  N   UNL     1       6.888  -5.905  28.329  0.00  0.00    -0.216 NA
ATOM     42  C   UNL     1       6.415  -6.572  29.403  0.00  0.00    +0.225 A 
ATOM     43  N   UNL     1       5.201  -7.137  29.571  0.00  0.00    -0.219 NA
ATOM     44  C   UNL     1       4.271  -7.017  28.585  0.00  0.00    +0.147 A 
ATOM     45  N   UNL     1       3.026  -7.556  28.782  0.00  0.00    -0.341 N 
ATOM     46  H   UNL     1       2.304  -7.165  28.192  0.00  0.00    +0.144 HD
ATOM     47  H   UNL     1       2.834  -7.751  29.765  0.00  0.00    +0.144 HD
ATOM     48  C   UNL     1       4.654  -6.322  27.424  0.00  0.00    +0.147 A 
ATOM     49  N   UNL     1       3.967  -6.015  26.267  0.00  0.00    -0.231 NA
ATOM     50  C   UNL     1       4.832  -5.354  25.525  0.00  0.00    +0.203 A 
ENDBRANCH  37  39
BRANCH  36  51
ATOM     51  O   UNL     1       9.015  -5.606  24.405  0.00  0.00    -0.385 OA
ATOM     52  H   UNL     1       9.671  -4.927  24.144  0.00  0.00    +0.210 HD
ENDBRANCH  36  51
BRANCH  35  53
ATOM     53  O   UNL     1       6.620  -3.644  22.649  0.00  0.00    -0.278 OA
BRANCH  53  54
ATOM     54  P   UNL     1       6.291  -4.773  21.566  0.00  0.00    +0.473 P 
ATOM     55  O   UNL     1       7.299  -5.842  21.341  0.00  0.00    -0.228 OA
BRANCH  54  56
ATOM     56  O   UNL     1       4.899  -5.307  22.138  0.00  0.00    -0.303 OA
ATOM     57  H   UNL     1       4.184  -4.673  21.945  0.00  0.00    +0.222 HD
ENDBRANCH  54  56
BRANCH  54  58
ATOM     58  O   UNL     1       5.761  -3.948  20.311  0.00  0.00    -0.303 OA
ATOM     59  H   UNL     1       5.104  -4.479  19.821  0.00  0.00    +0.222 HD
ENDBRANCH  54  58
ENDBRANCH  53  54
ENDBRANCH  35  53
ENDBRANCH  33  34
ENDBRANCH  32  33
ENDBRANCH   1  32
TORSDOF 25
ENDMDL
MODEL 3
REMARK VINA RESULT:      -6.6      1.716      2.200
REMARK  Name = 
REMARK  27 active torsions:
REMARK  status: ('A' for Active; 'I' for Inactive)
REMARK    1  A    between atoms: C_1  and  C_2
REMARK    2  A    between atoms: C_2  and  C_3
REMARK    3  A    between atoms: C_2  and  C_4
REMARK    4  A    between atoms: C_2  and  C_40
REMARK    5  A    between atoms: C_4  and  O_5
REMARK    6  A    between atoms: O_5  and  P_6
REMARK    7  A    between atoms: P_6  and  O_7
REMARK    8  A    between atoms: P_6  and  O_9
REMARK    9  A    between atoms: O_9  and  P_10
REMARK   10  A    between atoms: P_10  and  O_11
REMARK   11  A    between atoms: P_10  and  O_13
REMARK   12  A    between atoms: O_13  and  C_14
REMARK   13  A    between atoms: C_14  and  C_15
REMARK   14  A    between atoms: C_18  and  N_30
REMARK   15  A    between atoms: C_20  and  O_22
REMARK   16  A    between atoms: C_23  and  O_25
REMARK   17  A    between atoms: O_25  and  P_26
REMARK   18  A    between atoms: P_26  and  O_27
REMARK   19  A    between atoms: P_26  and  O_28
REMARK   20  A    between atoms: C_40  and  O_42
REMARK   21  A    between atoms: C_40  and  C_43
REMARK   22  A    between atoms: N_45  and  C_46
REMARK   23  A    between atoms: C_46  and  C_47
REMARK   24  A    between atoms: C_47  and  C_48
REMARK   25  A    between atoms: N_50  and  C_51
REMARK   26  A    between atoms: C_51  and  C_52
REMARK   27  A    between atoms: C_52  and  S_53
REMARK                            x       y       z     vdW  Elec       q    Type
REMARK                         _______ _______ _______ _____ _____    ______ ____
ROOT
ATOM      1  P   UNL     1       9.388  -2.662  23.914  0.00  0.00    +0.483 P 
ATOM      2  O   UNL     1      10.631  -2.540  23.082  0.00  0.00    -0.227 OA
ENDROOT
BRANCH   1   3
ATOM      3  O   UNL     1       8.254  -3.599  23.177  0.00  0.00    -0.302 OA
ATOM      4  H   UNL     1       8.144  -4.323  23.796  0.00  0.00    +0.222 HD
ENDBRANCH   1   3
BRANCH   1   5
ATOM      5  O   UNL     1       8.368  -1.651  23.208  0.00  0.00    -0.186 OA
BRANCH   5   6
ATOM      6  P   UNL     1       6.920  -0.959  23.853  0.00  0.00    +0.483 P 
ATOM      7  O   UNL     1       7.362  -1.233  25.290  0.00  0.00    -0.227 OA
BRANCH   6   8
ATOM      8  O   UNL     1       5.471  -0.268  24.497  0.00  0.00    -0.302 OA
ATOM      9  H   UNL     1       5.731  -0.029  25.411  0.00  0.00    +0.222 HD
ENDBRANCH   6   8
BRANCH   6  10
ATOM     10  O   UNL     1       7.434   0.517  23.377  0.00  0.00    -0.286 OA
BRANCH  10  11
ATOM     11  C   UNL     1       8.783   0.644  22.955  0.00  0.00    +0.181 C 
BRANCH  11  13
ATOM     12  C   UNL     1       8.877   2.503  24.667  0.00  0.00    +0.016 C 
ATOM     13  C   UNL     1       9.732   1.555  23.798  0.00  0.00    +0.024 C 
ATOM     14  C   UNL     1      10.653   0.793  24.779  0.00  0.00    +0.016 C 
BRANCH  13  15
ATOM     15  C   UNL     1      10.584   2.380  22.772  0.00  0.00    +0.208 C 
BRANCH  15  16
ATOM     16  C   UNL     1      10.892   3.821  23.273  0.00  0.00    +0.242 C 
ATOM     17  N   UNL     1       9.843   4.711  23.135  0.00  0.00    -0.313 N 
ATOM     18  H   UNL     1       8.913   4.309  23.139  0.00  0.00    +0.149 HD
ATOM     19  O   UNL     1      11.982   4.168  23.716  0.00  0.00    -0.273 OA
BRANCH  17  20
ATOM     20  C   UNL     1       9.979   6.089  23.593  0.00  0.00    +0.113 C 
BRANCH  20  21
ATOM     21  C   UNL     1       8.637   6.768  23.870  0.00  0.00    +0.114 C 
BRANCH  21  22
ATOM     22  C   UNL     1       7.549   6.230  22.968  0.00  0.00    +0.215 C 
ATOM     23  N   UNL     1       6.409   5.853  23.648  0.00  0.00    -0.314 N 
ATOM     24  H   UNL     1       6.409   5.857  24.660  0.00  0.00    +0.149 HD
ATOM     25  O   UNL     1       7.648   6.165  21.748  0.00  0.00    -0.276 OA
BRANCH  23  26
ATOM     26  C   UNL     1       5.246   5.311  22.960  0.00  0.00    +0.114 C 
BRANCH  26  27
ATOM     27  C   UNL     1       5.142   3.788  23.037  0.00  0.00    +0.084 C 
BRANCH  27  28
ATOM     28  S   UNL     1       4.996   3.212  24.762  0.00  0.00    -0.177 S 
ATOM     29  H   UNL     1       6.288   2.888  24.914  0.00  0.00    +0.102 HD
ENDBRANCH  27  28
ENDBRANCH  26  27
ENDBRANCH  23  26
ENDBRANCH  21  22
ENDBRANCH  20  21
ENDBRANCH  17  20
ENDBRANCH  15  16
BRANCH  15  30
ATOM     30  O   UNL     1       9.971   2.466  21.489  0.00  0.00    -0.382 OA
ATOM     31  H   UNL     1       9.909   3.404  21.241  0.00  0.00    +0.210 HD
ENDBRANCH  15  30
ENDBRANCH  13  15
ENDBRANCH  11  13
ENDBRANCH  10  11
ENDBRANCH   6  10
ENDBRANCH   5   6
ENDBRANCH   1   5
BRANCH   1  32
ATOM     32  O   UNL     1       9.523  -4.143  24.571  0.00  0.00    -0.284 OA
BRANCH  32  33
ATOM     33  C   UNL     1       9.201  -4.404  25.931  0.00  0.00    +0.206 C 
BRANCH  33  34
ATOM     34  C   UNL     1       8.031  -5.401  26.197  0.00  0.00    +0.179 C 
ATOM     35  C   UNL     1       7.027  -5.088  27.316  0.00  0.00    +0.194 C 
ATOM     36  C   UNL     1       5.920  -4.273  26.645  0.00  0.00    +0.196 C 
ATOM     37  C   UNL     1       6.132  -4.497  25.141  0.00  0.00    +0.253 C 
ATOM     38  O   UNL     1       7.201  -5.462  24.998  0.00  0.00    -0.346 OA
BRANCH  37  39
ATOM     39  N   UNL     1       4.945  -4.935  24.419  0.00  0.00    -0.286 N 
ATOM     40  C   UNL     1       4.148  -6.003  24.764  0.00  0.00    +0.167 A 
ATOM     41  N   UNL     1       4.321  -6.867  25.775  0.00  0.00    -0.216 NA
ATOM     42  C   UNL     1       3.336  -7.788  25.786  0.00  0.00    +0.225 A 
ATOM     43  N   UNL     1       2.301  -7.920  24.929  0.00  0.00    -0.219 NA
ATOM     44  C   UNL     1       2.150  -7.012  23.928  0.00  0.00    +0.147 A 
ATOM     45  N   UNL     1       1.073  -7.128  23.088  0.00  0.00    -0.341 N 
ATOM     46  H   UNL     1       0.832  -6.276  22.598  0.00  0.00    +0.144 HD
ATOM     47  H   UNL     1       0.338  -7.721  23.473  0.00  0.00    +0.144 HD
ATOM     48  C   UNL     1       3.116  -5.993  23.834  0.00  0.00    +0.147 A 
ATOM     49  N   UNL     1       3.250  -4.930  22.965  0.00  0.00    -0.231 NA
ATOM     50  C   UNL     1       4.348  -4.313  23.353  0.00  0.00    +0.203 A 
ENDBRANCH  37  39
BRANCH  36  51
ATOM     51  O   UNL     1       6.050  -2.888  26.966  0.00  0.00    -0.385 OA
ATOM     52  H   UNL     1       5.306  -2.672  27.564  0.00  0.00    +0.210 HD
ENDBRANCH  36  51
BRANCH  35  53
ATOM     53  O   UNL     1       6.456  -6.349  27.692  0.00  0.00    -0.278 OA
BRANCH  53  54
ATOM     54  P   UNL     1       6.042  -6.616  29.213  0.00  0.00    +0.473 P 
ATOM     55  O   UNL     1       5.812  -5.440  30.092  0.00  0.00    -0.228 OA
BRANCH  54  56
ATOM     56  O   UNL     1       4.746  -7.522  28.993  0.00  0.00    -0.303 OA
ATOM     57  H   UNL     1       4.993  -8.388  28.618  0.00  0.00    +0.222 HD
ENDBRANCH  54  56
BRANCH  54  58
ATOM     58  O   UNL     1       7.069  -7.737  29.691  0.00  0.00    -0.303 OA
ATOM     59  H   UNL     1       6.668  -8.619  29.579  0.00  0.00    +0.222 HD
ENDBRANCH  54  58
ENDBRANCH  53  54
ENDBRANCH  35  53
ENDBRANCH  33  34
ENDBRANCH  32  33
ENDBRANCH   1  32
TORSDOF 25
ENDMDL
MODEL 4
REMARK VINA RESULT:      -6.5      2.931      7.907
REMARK  Name = 
REMARK  27 active torsions:
REMARK  status: ('A' for Active; 'I' for Inactive)
REMARK    1  A    between atoms: C_1  and  C_2
REMARK    2  A    between atoms: C_2  and  C_3
REMARK    3  A    between atoms: C_2  and  C_4
REMARK    4  A    between atoms: C_2  and  C_40
REMARK    5  A    between atoms: C_4  and  O_5
REMARK    6  A    between atoms: O_5  and  P_6
REMARK    7  A    between atoms: P_6  and  O_7
REMARK    8  A    between atoms: P_6  and  O_9
REMARK    9  A    between atoms: O_9  and  P_10
REMARK   10  A    between atoms: P_10  and  O_11
REMARK   11  A    between atoms: P_10  and  O_13
REMARK   12  A    between atoms: O_13  and  C_14
REMARK   13  A    between atoms: C_14  and  C_15
REMARK   14  A    between atoms: C_18  and  N_30
REMARK   15  A    between atoms: C_20  and  O_22
REMARK   16  A    between atoms: C_23  and  O_25
REMARK   17  A    between atoms: O_25  and  P_26
REMARK   18  A    between atoms: P_26  and  O_27
REMARK   19  A    between atoms: P_26  and  O_28
REMARK   20  A    between atoms: C_40  and  O_42
REMARK   21  A    between atoms: C_40  and  C_43
REMARK   22  A    between atoms: N_45  and  C_46
REMARK   23  A    between atoms: C_46  and  C_47
REMARK   24  A    between atoms: C_47  and  C_48
REMARK   25  A    between atoms: N_50  and  C_51
REMARK   26  A    between atoms: C_51  and  C_52
REMARK   27  A    between atoms: C_52  and  S_53
REMARK                            x       y       z     vdW  Elec       q    Type
REMARK                         _______ _______ _______ _____ _____    ______ ____
ROOT
ATOM      1  P   UNL     1       7.301  -4.642  26.373  0.00  0.00    +0.483 P 
ATOM      2  O   UNL     1       8.157  -5.874  26.327  0.00  0.00    -0.227 OA
ENDROOT
BRANCH   1   3
ATOM      3  O   UNL     1       6.665  -4.400  27.871  0.00  0.00    -0.302 OA
ATOM      4  H   UNL     1       7.171  -5.006  28.415  0.00  0.00    +0.222 HD
ENDBRANCH   1   3
BRANCH   1   5
ATOM      5  O   UNL     1       5.811  -5.225  26.322  0.00  0.00    -0.186 OA
BRANCH   5   6
ATOM      6  P   UNL     1       5.071  -6.380  27.376  0.00  0.00    +0.483 P 
ATOM      7  O   UNL     1       4.137  -5.324  27.968  0.00  0.00    -0.227 OA
BRANCH   6   8
ATOM      8  O   UNL     1       4.331  -7.534  28.430  0.00  0.00    -0.302 OA
ATOM      9  H   UNL     1       5.091  -7.877  28.946  0.00  0.00    +0.222 HD
ENDBRANCH   6   8
BRANCH   6  10
ATOM     10  O   UNL     1       4.371  -7.087  26.080  0.00  0.00    -0.286 OA
BRANCH  10  11
ATOM     11  C   UNL     1       4.419  -6.397  24.841  0.00  0.00    +0.181 C 
BRANCH  11  13
ATOM     12  C   UNL     1       2.652  -6.280  23.037  0.00  0.00    +0.016 C 
ATOM     13  C   UNL     1       3.130  -5.654  24.365  0.00  0.00    +0.024 C 
ATOM     14  C   UNL     1       1.933  -5.754  25.338  0.00  0.00    +0.016 C 
BRANCH  13  15
ATOM     15  C   UNL     1       3.536  -4.155  24.144  0.00  0.00    +0.208 C 
BRANCH  15  16
ATOM     16  C   UNL     1       4.700  -3.996  23.122  0.00  0.00    +0.242 C 
ATOM     17  N   UNL     1       5.563  -2.952  23.397  0.00  0.00    -0.313 N 
ATOM     18  H   UNL     1       5.637  -2.677  24.369  0.00  0.00    +0.149 HD
ATOM     19  O   UNL     1       4.831  -4.701  22.127  0.00  0.00    -0.273 OA
BRANCH  17  20
ATOM     20  C   UNL     1       6.718  -2.705  22.541  0.00  0.00    +0.113 C 
BRANCH  20  21
ATOM     21  C   UNL     1       7.873  -3.676  22.791  0.00  0.00    +0.114 C 
BRANCH  21  22
ATOM     22  C   UNL     1       9.084  -2.962  23.346  0.00  0.00    +0.215 C 
ATOM     23  N   UNL     1       9.117  -1.617  23.041  0.00  0.00    -0.314 N 
ATOM     24  H   UNL     1       8.425  -1.233  22.409  0.00  0.00    +0.149 HD
ATOM     25  O   UNL     1       9.941  -3.509  24.031  0.00  0.00    -0.276 OA
BRANCH  23  26
ATOM     26  C   UNL     1      10.200  -0.752  23.486  0.00  0.00    +0.114 C 
BRANCH  26  27
ATOM     27  C   UNL     1      10.158   0.648  22.873  0.00  0.00    +0.084 C 
BRANCH  27  28
ATOM     28  S   UNL     1       9.014   0.726  21.455  0.00  0.00    -0.177 S 
ATOM     29  H   UNL     1       8.659   2.007  21.629  0.00  0.00    +0.102 HD
ENDBRANCH  27  28
ENDBRANCH  26  27
ENDBRANCH  23  26
ENDBRANCH  21  22
ENDBRANCH  20  21
ENDBRANCH  17  20
ENDBRANCH  15  16
BRANCH  15  30
ATOM     30  O   UNL     1       3.901  -3.498  25.354  0.00  0.00    -0.382 OA
ATOM     31  H   UNL     1       3.204  -2.858  25.578  0.00  0.00    +0.210 HD
ENDBRANCH  15  30
ENDBRANCH  13  15
ENDBRANCH  11  13
ENDBRANCH  10  11
ENDBRANCH   6  10
ENDBRANCH   5   6
ENDBRANCH   1   5
BRANCH   1  32
ATOM     32  O   UNL     1       8.257  -3.549  27.103  0.00  0.00    -0.284 OA
BRANCH  32  33
ATOM     33  C   UNL     1       8.294  -2.185  26.704  0.00  0.00    +0.206 C 
BRANCH  33  34
ATOM     34  C   UNL     1       6.945  -1.552  26.241  0.00  0.00    +0.179 C 
ATOM     35  C   UNL     1       6.178  -0.642  27.212  0.00  0.00    +0.194 C 
ATOM     36  C   UNL     1       6.708   0.769  26.944  0.00  0.00    +0.196 C 
ATOM     37  C   UNL     1       7.434   0.658  25.596  0.00  0.00    +0.253 C 
ATOM     38  O   UNL     1       7.216  -0.683  25.098  0.00  0.00    -0.346 OA
BRANCH  37  39
ATOM     39  N   UNL     1       7.027   1.645  24.603  0.00  0.00    -0.286 N 
ATOM     40  C   UNL     1       7.655   2.847  24.368  0.00  0.00    +0.167 A 
ATOM     41  N   UNL     1       8.708   3.368  25.017  0.00  0.00    -0.216 NA
ATOM     42  C   UNL     1       9.031   4.573  24.506  0.00  0.00    +0.225 A 
ATOM     43  N   UNL     1       8.425   5.251  23.508  0.00  0.00    -0.219 NA
ATOM     44  C   UNL     1       7.373   4.680  22.862  0.00  0.00    +0.147 A 
ATOM     45  N   UNL     1       6.791   5.357  21.822  0.00  0.00    -0.341 N 
ATOM     46  H   UNL     1       6.260   4.773  21.189  0.00  0.00    +0.144 HD
ATOM     47  H   UNL     1       7.387   6.099  21.454  0.00  0.00    +0.144 HD
ATOM     48  C   UNL     1       6.961   3.410  23.305  0.00  0.00    +0.147 A 
ATOM     49  N   UNL     1       5.959   2.566  22.872  0.00  0.00    -0.231 NA
ATOM     50  C   UNL     1       6.038   1.515  23.664  0.00  0.00    +0.203 A 
ENDBRANCH  37  39
BRANCH  36  51
ATOM     51  O   UNL     1       7.617   1.168  27.968  0.00  0.00    -0.385 OA
ATOM     52  H   UNL     1       7.646   0.432  28.613  0.00  0.00    +0.210 HD
ENDBRANCH  36  51
BRANCH  35  53
ATOM     53  O   UNL     1       4.812  -0.671  26.777  0.00  0.00    -0.278 OA
BRANCH  53  54
ATOM     54  P   UNL     1       3.659  -1.097  27.800  0.00  0.00    +0.473 P 
ATOM     55  O   UNL     1       3.281  -0.135  28.868  0.00  0.00    -0.228 OA
BRANCH  54  56
ATOM     56  O   UNL     1       2.480  -1.416  26.771  0.00  0.00    -0.303 OA
ATOM     57  H   UNL     1       2.324  -0.653  26.183  0.00  0.00    +0.222 HD
ENDBRANCH  54  56
BRANCH  54  58
ATOM     58  O   UNL     1       4.055  -2.583  28.216  0.00  0.00    -0.303 OA
ATOM     59  H   UNL     1       3.357  -3.201  27.929  0.00  0.00    +0.222 HD
ENDBRANCH  54  58
ENDBRANCH  53  54
ENDBRANCH  35  53
ENDBRANCH  33  34
ENDBRANCH  32  33
ENDBRANCH   1  32
TORSDOF 25
ENDMDL
MODEL 5
REMARK VINA RESULT:      -6.5      2.758      9.009
REMARK  Name = 
REMARK  27 active torsions:
REMARK  status: ('A' for Active; 'I' for Inactive)
REMARK    1  A    between atoms: C_1  and  C_2
REMARK    2  A    between atoms: C_2  and  C_3
REMARK    3  A    between atoms: C_2  and  C_4
REMARK    4  A    between atoms: C_2  and  C_40
REMARK    5  A    between atoms: C_4  and  O_5
REMARK    6  A    between atoms: O_5  and  P_6
REMARK    7  A    between atoms: P_6  and  O_7
REMARK    8  A    between atoms: P_6  and  O_9
REMARK    9  A    between atoms: O_9  and  P_10
REMARK   10  A    between atoms: P_10  and  O_11
REMARK   11  A    between atoms: P_10  and  O_13
REMARK   12  A    between atoms: O_13  and  C_14
REMARK   13  A    between atoms: C_14  and  C_15
REMARK   14  A    between atoms: C_18  and  N_30
REMARK   15  A    between atoms: C_20  and  O_22
REMARK   16  A    between atoms: C_23  and  O_25
REMARK   17  A    between atoms: O_25  and  P_26
REMARK   18  A    between atoms: P_26  and  O_27
REMARK   19  A    between atoms: P_26  and  O_28
REMARK   20  A    between atoms: C_40  and  O_42
REMARK   21  A    between atoms: C_40  and  C_43
REMARK   22  A    between atoms: N_45  and  C_46
REMARK   23  A    between atoms: C_46  and  C_47
REMARK   24  A    between atoms: C_47  and  C_48
REMARK   25  A    between atoms: N_50  and  C_51
REMARK   26  A    between atoms: C_51  and  C_52
REMARK   27  A    between atoms: C_52  and  S_53
REMARK                            x       y       z     vdW  Elec       q    Type
REMARK                         _______ _______ _______ _____ _____    ______ ____
ROOT
ATOM      1  P   UNL     1       8.625  -4.633  24.686  0.00  0.00    +0.483 P 
ATOM      2  O   UNL     1       9.240  -5.981  24.447  0.00  0.00    -0.227 OA
ENDROOT
BRANCH   1   3
ATOM      3  O   UNL     1       9.044  -4.026  26.157  0.00  0.00    -0.302 OA
ATOM      4  H   UNL     1       9.997  -3.946  26.088  0.00  0.00    +0.222 HD
ENDBRANCH   1   3
BRANCH   1   5
ATOM      5  O   UNL     1       7.399  -4.953  25.664  0.00  0.00    -0.186 OA
BRANCH   5   6
ATOM      6  P   UNL     1       6.348  -3.841  26.472  0.00  0.00    +0.483 P 
ATOM      7  O   UNL     1       5.132  -4.337  25.690  0.00  0.00    -0.227 OA
BRANCH   6   8
ATOM      8  O   UNL     1       5.298  -2.729  27.278  0.00  0.00    -0.302 OA
ATOM      9  H   UNL     1       4.485  -2.760  26.731  0.00  0.00    +0.222 HD
ENDBRANCH   6   8
BRANCH   6  10
ATOM     10  O   UNL     1       6.522  -4.703  27.848  0.00  0.00    -0.286 OA
BRANCH  10  11
ATOM     11  C   UNL     1       5.490  -4.619  28.818  0.00  0.00    +0.181 C 
BRANCH  11  13
ATOM     12  C   UNL     1       5.030  -6.990  28.068  0.00  0.00    +0.016 C 
ATOM     13  C   UNL     1       4.559  -5.859  29.009  0.00  0.00    +0.024 C 
ATOM     14  C   UNL     1       4.570  -6.460  30.433  0.00  0.00    +0.016 C 
BRANCH  13  15
ATOM     15  C   UNL     1       3.113  -5.395  28.618  0.00  0.00    +0.208 C 
BRANCH  15  16
ATOM     16  C   UNL     1       2.395  -6.404  27.675  0.00  0.00    +0.242 C 
ATOM     17  N   UNL     1       2.322  -6.002  26.354  0.00  0.00    -0.313 N 
ATOM     18  H   UNL     1       3.048  -5.368  26.040  0.00  0.00    +0.149 HD
ATOM     19  O   UNL     1       1.892  -7.455  28.061  0.00  0.00    -0.273 OA
BRANCH  17  20
ATOM     20  C   UNL     1       1.705  -6.864  25.353  0.00  0.00    +0.113 C 
BRANCH  20  21
ATOM     21  C   UNL     1       2.206  -6.594  23.934  0.00  0.00    +0.114 C 
BRANCH  21  22
ATOM     22  C   UNL     1       3.703  -6.784  23.831  0.00  0.00    +0.215 C 
ATOM     23  N   UNL     1       4.294  -5.982  22.876  0.00  0.00    -0.314 N 
ATOM     24  H   UNL     1       3.711  -5.427  22.263  0.00  0.00    +0.149 HD
ATOM     25  O   UNL     1       4.341  -7.547  24.546  0.00  0.00    -0.276 OA
BRANCH  23  26
ATOM     26  C   UNL     1       5.727  -6.014  22.624  0.00  0.00    +0.114 C 
BRANCH  26  27
ATOM     27  C   UNL     1       6.193  -4.979  21.599  0.00  0.00    +0.084 C 
BRANCH  27  28
ATOM     28  S   UNL     1       5.795  -3.281  22.132  0.00  0.00    -0.177 S 
ATOM     29  H   UNL     1       5.983  -2.708  20.935  0.00  0.00    +0.102 HD
ENDBRANCH  27  28
ENDBRANCH  26  27
ENDBRANCH  23  26
ENDBRANCH  21  22
ENDBRANCH  20  21
ENDBRANCH  17  20
ENDBRANCH  15  16
BRANCH  15  30
ATOM     30  O   UNL     1       3.093  -4.109  28.006  0.00  0.00    -0.382 OA
ATOM     31  H   UNL     1       2.182  -3.770  28.033  0.00  0.00    +0.210 HD
ENDBRANCH  15  30
ENDBRANCH  13  15
ENDBRANCH  11  13
ENDBRANCH  10  11
ENDBRANCH   6  10
ENDBRANCH   5   6
ENDBRANCH   1   5
BRANCH   1  32
ATOM     32  O   UNL     1       9.858  -3.607  24.422  0.00  0.00    -0.284 OA
BRANCH  32  33
ATOM     33  C   UNL     1       9.678  -2.349  23.786  0.00  0.00    +0.206 C 
BRANCH  33  34
ATOM     34  C   UNL     1       8.461  -1.492  24.257  0.00  0.00    +0.179 C 
ATOM     35  C   UNL     1       8.605  -0.625  25.516  0.00  0.00    +0.194 C 
ATOM     36  C   UNL     1       9.116   0.728  25.017  0.00  0.00    +0.196 C 
ATOM     37  C   UNL     1       8.861   0.701  23.503  0.00  0.00    +0.253 C 
ATOM     38  O   UNL     1       8.151  -0.524  23.208  0.00  0.00    -0.346 OA
BRANCH  37  39
ATOM     39  N   UNL     1       8.131   1.854  22.990  0.00  0.00    -0.286 N 
ATOM     40  C   UNL     1       8.488   3.171  23.170  0.00  0.00    +0.167 A 
ATOM     41  N   UNL     1       9.521   3.655  23.877  0.00  0.00    -0.216 NA
ATOM     42  C   UNL     1       9.538   5.003  23.829  0.00  0.00    +0.225 A 
ATOM     43  N   UNL     1       8.669   5.831  23.211  0.00  0.00    -0.219 NA
ATOM     44  C   UNL     1       7.646   5.300  22.489  0.00  0.00    +0.147 A 
ATOM     45  N   UNL     1       6.793   6.147  21.830  0.00  0.00    -0.341 N 
ATOM     46  H   UNL     1       6.281   5.717  21.071  0.00  0.00    +0.144 HD
ATOM     47  H   UNL     1       7.180   7.084  21.718  0.00  0.00    +0.144 HD
ATOM     48  C   UNL     1       7.543   3.898  22.457  0.00  0.00    +0.147 A 
ATOM     49  N   UNL     1       6.653   3.055  21.825  0.00  0.00    -0.231 NA
ATOM     50  C   UNL     1       7.043   1.840  22.156  0.00  0.00    +0.203 A 
ENDBRANCH  37  39
BRANCH  36  51
ATOM     51  O   UNL     1      10.510   0.869  25.285  0.00  0.00    -0.385 OA
ATOM     52  H   UNL     1      10.582   1.218  26.198  0.00  0.00    +0.210 HD
ENDBRANCH  36  51
BRANCH  35  53
ATOM     53  O   UNL     1       7.272  -0.422  26.004  0.00  0.00    -0.278 OA
BRANCH  53  54
ATOM     54  P   UNL     1       6.997   0.662  27.148  0.00  0.00    +0.473 P 
ATOM     55  O   UNL     1       6.729   2.064  26.733  0.00  0.00    -0.228 OA
BRANCH  54  56
ATOM     56  O   UNL     1       5.774  -0.035  27.901  0.00  0.00    -0.303 OA
ATOM     57  H   UNL     1       5.803   0.164  28.856  0.00  0.00    +0.222 HD
ENDBRANCH  54  56
BRANCH  54  58
ATOM     58  O   UNL     1       8.152   0.388  28.210  0.00  0.00    -0.303 OA
ATOM     59  H   UNL     1       8.997   0.235  27.746  0.00  0.00    +0.222 HD
ENDBRANCH  54  58
ENDBRANCH  53  54
ENDBRANCH  35  53
ENDBRANCH  33  34
ENDBRANCH  32  33
ENDBRANCH   1  32
TORSDOF 25
ENDMDL
MODEL 6
REMARK VINA RESULT:      -6.3      2.815      8.559
REMARK  Name = 
REMARK  27 active torsions:
REMARK  status: ('A' for Active; 'I' for Inactive)
REMARK    1  A    between atoms: C_1  and  C_2
REMARK    2  A    between atoms: C_2  and  C_3
REMARK    3  A    between atoms: C_2  and  C_4
REMARK    4  A    between atoms: C_2  and  C_40
REMARK    5  A    between atoms: C_4  and  O_5
REMARK    6  A    between atoms: O_5  and  P_6
REMARK    7  A    between atoms: P_6  and  O_7
REMARK    8  A    between atoms: P_6  and  O_9
REMARK    9  A    between atoms: O_9  and  P_10
REMARK   10  A    between atoms: P_10  and  O_11
REMARK   11  A    between atoms: P_10  and  O_13
REMARK   12  A    between atoms: O_13  and  C_14
REMARK   13  A    between atoms: C_14  and  C_15
REMARK   14  A    between atoms: C_18  and  N_30
REMARK   15  A    between atoms: C_20  and  O_22
REMARK   16  A    between atoms: C_23  and  O_25
REMARK   17  A    between atoms: O_25  and  P_26
REMARK   18  A    between atoms: P_26  and  O_27
REMARK   19  A    between atoms: P_26  and  O_28
REMARK   20  A    between atoms: C_40  and  O_42
REMARK   21  A    between atoms: C_40  and  C_43
REMARK   22  A    between atoms: N_45  and  C_46
REMARK   23  A    between atoms: C_46  and  C_47
REMARK   24  A    between atoms: C_47  and  C_48
REMARK   25  A    between atoms: N_50  and  C_51
REMARK   26  A    between atoms: C_51  and  C_52
REMARK   27  A    between atoms: C_52  and  S_53
REMARK                            x       y       z     vdW  Elec       q    Type
REMARK                         _______ _______ _______ _____ _____    ______ ____
ROOT
ATOM      1  P   UNL     1       9.536  -0.963  21.835  0.00  0.00    +0.483 P 
ATOM      2  O   UNL     1      10.682  -1.681  22.486  0.00  0.00    -0.227 OA
ENDROOT
BRANCH   1   3
ATOM      3  O   UNL     1       8.329  -0.647  22.908  0.00  0.00    -0.302 OA
ATOM      4  H   UNL     1       8.252   0.308  22.863  0.00  0.00    +0.222 HD
ENDBRANCH   1   3
BRANCH   1   5
ATOM      5  O   UNL     1       8.445  -2.116  21.629  0.00  0.00    -0.186 OA
BRANCH   5   6
ATOM      6  P   UNL     1       7.125  -2.545  22.661  0.00  0.00    +0.483 P 
ATOM      7  O   UNL     1       6.378  -3.227  21.515  0.00  0.00    -0.227 OA
BRANCH   6   8
ATOM      8  O   UNL     1       5.805  -2.973  23.693  0.00  0.00    -0.302 OA
ATOM      9  H   UNL     1       5.455  -2.102  23.974  0.00  0.00    +0.222 HD
ENDBRANCH   6   8
BRANCH   6  10
ATOM     10  O   UNL     1       8.092  -3.620  23.422  0.00  0.00    -0.286 OA
BRANCH  10  11
ATOM     11  C   UNL     1       7.487  -4.532  24.326  0.00  0.00    +0.181 C 
BRANCH  11  13
ATOM     12  C   UNL     1       9.419  -4.950  25.904  0.00  0.00    +0.016 C 
ATOM     13  C   UNL     1       7.944  -4.497  25.819  0.00  0.00    +0.024 C 
ATOM     14  C   UNL     1       7.891  -3.098  26.476  0.00  0.00    +0.016 C 
BRANCH  13  15
ATOM     15  C   UNL     1       7.022  -5.504  26.591  0.00  0.00    +0.208 C 
BRANCH  15  16
ATOM     16  C   UNL     1       5.628  -4.899  26.929  0.00  0.00    +0.242 C 
ATOM     17  N   UNL     1       4.679  -5.060  25.936  0.00  0.00    -0.313 N 
ATOM     18  H   UNL     1       4.805  -5.857  25.323  0.00  0.00    +0.149 HD
ATOM     19  O   UNL     1       5.385  -4.290  27.966  0.00  0.00    -0.273 OA
BRANCH  17  20
ATOM     20  C   UNL     1       3.319  -4.571  26.130  0.00  0.00    +0.113 C 
BRANCH  20  21
ATOM     21  C   UNL     1       2.684  -4.030  24.848  0.00  0.00    +0.114 C 
BRANCH  21  22
ATOM     22  C   UNL     1       2.831  -5.008  23.704  0.00  0.00    +0.215 C 
ATOM     23  N   UNL     1       1.783  -5.901  23.607  0.00  0.00    -0.314 N 
ATOM     24  H   UNL     1       1.074  -5.916  24.330  0.00  0.00    +0.149 HD
ATOM     25  O   UNL     1       3.767  -4.994  22.914  0.00  0.00    -0.276 OA
BRANCH  23  26
ATOM     26  C   UNL     1       1.734  -6.922  22.571  0.00  0.00    +0.114 C 
BRANCH  26  27
ATOM     27  C   UNL     1       1.249  -8.282  23.072  0.00  0.00    +0.084 C 
BRANCH  27  28
ATOM     28  S   UNL     1       1.858  -8.633  24.755  0.00  0.00    -0.177 S 
ATOM     29  H   UNL     1       1.736  -9.966  24.676  0.00  0.00    +0.102 HD
ENDBRANCH  27  28
ENDBRANCH  26  27
ENDBRANCH  23  26
ENDBRANCH  21  22
ENDBRANCH  20  21
ENDBRANCH  17  20
ENDBRANCH  15  16
BRANCH  15  30
ATOM     30  O   UNL     1       7.614  -5.981  27.796  0.00  0.00    -0.382 OA
ATOM     31  H   UNL     1       7.077  -5.672  28.545  0.00  0.00    +0.210 HD
ENDBRANCH  15  30
ENDBRANCH  13  15
ENDBRANCH  11  13
ENDBRANCH  10  11
ENDBRANCH   6  10
ENDBRANCH   5   6
ENDBRANCH   1   5
BRANCH   1  32
ATOM     32  O   UNL     1       9.741   0.578  22.311  0.00  0.00    -0.284 OA
BRANCH  32  33
ATOM     33  C   UNL     1      10.164   0.918  23.625  0.00  0.00    +0.206 C 
BRANCH  33  34
ATOM     34  C   UNL     1       9.477   2.153  24.287  0.00  0.00    +0.179 C 
ATOM     35  C   UNL     1       8.825   3.212  23.386  0.00  0.00    +0.194 C 
ATOM     36  C   UNL     1       7.378   2.750  23.205  0.00  0.00    +0.196 C 
ATOM     37  C   UNL     1       7.167   1.699  24.305  0.00  0.00    +0.253 C 
ATOM     38  O   UNL     1       8.369   1.674  25.110  0.00  0.00    -0.346 OA
BRANCH  37  39
ATOM     39  N   UNL     1       5.995   1.922  25.141  0.00  0.00    -0.286 N 
ATOM     40  C   UNL     1       5.213   0.935  25.699  0.00  0.00    +0.167 A 
ATOM     41  N   UNL     1       5.333  -0.393  25.553  0.00  0.00    -0.216 NA
ATOM     42  C   UNL     1       4.372  -1.036  26.247  0.00  0.00    +0.225 A 
ATOM     43  N   UNL     1       3.375  -0.506  26.986  0.00  0.00    -0.219 NA
ATOM     44  C   UNL     1       3.299   0.845  27.126  0.00  0.00    +0.147 A 
ATOM     45  N   UNL     1       2.309   1.373  27.913  0.00  0.00    -0.341 N 
ATOM     46  H   UNL     1       2.492   2.312  28.241  0.00  0.00    +0.144 HD
ATOM     47  H   UNL     1       1.898   0.683  28.542  0.00  0.00    +0.144 HD
ATOM     48  C   UNL     1       4.266   1.615  26.455  0.00  0.00    +0.147 A 
ATOM     49  N   UNL     1       4.479   2.977  26.396  0.00  0.00    -0.231 NA
ATOM     50  C   UNL     1       5.528   3.122  25.611  0.00  0.00    +0.203 A 
ENDBRANCH  37  39
BRANCH  36  51
ATOM     51  O   UNL     1       7.194   2.166  21.916  0.00  0.00    -0.385 OA
ATOM     52  H   UNL     1       6.793   1.285  22.067  0.00  0.00    +0.210 HD
ENDBRANCH  36  51
BRANCH  35  53
ATOM     53  O   UNL     1       8.790   4.417  24.164  0.00  0.00    -0.278 OA
BRANCH  53  54
ATOM     54  P   UNL     1       8.606   5.830  23.438  0.00  0.00    +0.473 P 
ATOM     55  O   UNL     1       8.011   6.946  24.219  0.00  0.00    -0.228 OA
BRANCH  54  56
ATOM     56  O   UNL     1      10.109   6.098  22.969  0.00  0.00    -0.303 OA
ATOM     57  H   UNL     1      10.151   6.881  22.389  0.00  0.00    +0.222 HD
ENDBRANCH  54  56
BRANCH  54  58
ATOM     58  O   UNL     1       7.957   5.449  22.034  0.00  0.00    -0.303 OA
ATOM     59  H   UNL     1       7.460   4.613  22.117  0.00  0.00    +0.222 HD
ENDBRANCH  54  58
ENDBRANCH  53  54
ENDBRANCH  35  53
ENDBRANCH  33  34
ENDBRANCH  32  33
ENDBRANCH   1  32
TORSDOF 25
ENDMDL
MODEL 7
REMARK VINA RESULT:      -6.3      2.351      4.266
REMARK  Name = 
REMARK  27 active torsions:
REMARK  status: ('A' for Active; 'I' for Inactive)
REMARK    1  A    between atoms: C_1  and  C_2
REMARK    2  A    between atoms: C_2  and  C_3
REMARK    3  A    between atoms: C_2  and  C_4
REMARK    4  A    between atoms: C_2  and  C_40
REMARK    5  A    between atoms: C_4  and  O_5
REMARK    6  A    between atoms: O_5  and  P_6
REMARK    7  A    between atoms: P_6  and  O_7
REMARK    8  A    between atoms: P_6  and  O_9
REMARK    9  A    between atoms: O_9  and  P_10
REMARK   10  A    between atoms: P_10  and  O_11
REMARK   11  A    between atoms: P_10  and  O_13
REMARK   12  A    between atoms: O_13  and  C_14
REMARK   13  A    between atoms: C_14  and  C_15
REMARK   14  A    between atoms: C_18  and  N_30
REMARK   15  A    between atoms: C_20  and  O_22
REMARK   16  A    between atoms: C_23  and  O_25
REMARK   17  A    between atoms: O_25  and  P_26
REMARK   18  A    between atoms: P_26  and  O_27
REMARK   19  A    between atoms: P_26  and  O_28
REMARK   20  A    between atoms: C_40  and  O_42
REMARK   21  A    between atoms: C_40  and  C_43
REMARK   22  A    between atoms: N_45  and  C_46
REMARK   23  A    between atoms: C_46  and  C_47
REMARK   24  A    between atoms: C_47  and  C_48
REMARK   25  A    between atoms: N_50  and  C_51
REMARK   26  A    between atoms: C_51  and  C_52
REMARK   27  A    between atoms: C_52  and  S_53
REMARK                            x       y       z     vdW  Elec       q    Type
REMARK                         _______ _______ _______ _____ _____    ______ ____
ROOT
ATOM      1  P   UNL     1       6.248   1.299  25.086  0.00  0.00    +0.483 P 
ATOM      2  O   UNL     1       7.630   0.839  25.445  0.00  0.00    -0.227 OA
ENDROOT
BRANCH   1   3
ATOM      3  O   UNL     1       5.508   0.254  24.052  0.00  0.00    -0.302 OA
ATOM      4  H   UNL     1       5.724  -0.601  24.427  0.00  0.00    +0.222 HD
ENDBRANCH   1   3
BRANCH   1   5
ATOM      5  O   UNL     1       6.432   1.918  23.622  0.00  0.00    -0.186 OA
BRANCH   5   6
ATOM      6  P   UNL     1       5.423   3.060  22.801  0.00  0.00    +0.483 P 
ATOM      7  O   UNL     1       4.177   2.574  23.541  0.00  0.00    -0.227 OA
BRANCH   6   8
ATOM      8  O   UNL     1       4.415   4.201  21.981  0.00  0.00    -0.302 OA
ATOM      9  H   UNL     1       3.548   4.084  22.424  0.00  0.00    +0.222 HD
ENDBRANCH   6   8
BRANCH   6  10
ATOM     10  O   UNL     1       6.139   4.267  23.638  0.00  0.00    -0.286 OA
BRANCH  10  11
ATOM     11  C   UNL     1       7.296   4.867  23.077  0.00  0.00    +0.181 C 
BRANCH  11  13
ATOM     12  C   UNL     1       9.216   6.506  23.223  0.00  0.00    +0.016 C 
ATOM     13  C   UNL     1       8.299   5.574  24.044  0.00  0.00    +0.024 C 
ATOM     14  C   UNL     1       7.636   6.467  25.118  0.00  0.00    +0.016 C 
BRANCH  13  15
ATOM     15  C   UNL     1       9.143   4.437  24.719  0.00  0.00    +0.208 C 
BRANCH  15  16
ATOM     16  C   UNL     1       9.998   3.638  23.692  0.00  0.00    +0.242 C 
ATOM     17  N   UNL     1       9.389   2.497  23.205  0.00  0.00    -0.313 N 
ATOM     18  H   UNL     1       8.376   2.499  23.202  0.00  0.00    +0.149 HD
ATOM     19  O   UNL     1      11.137   3.956  23.363  0.00  0.00    -0.273 OA
BRANCH  17  20
ATOM     20  C   UNL     1      10.061   1.668  22.212  0.00  0.00    +0.113 C 
BRANCH  20  21
ATOM     21  C   UNL     1       9.128   0.669  21.528  0.00  0.00    +0.114 C 
BRANCH  21  22
ATOM     22  C   UNL     1       9.231  -0.702  22.156  0.00  0.00    +0.215 C 
ATOM     23  N   UNL     1       8.240  -0.958  23.082  0.00  0.00    -0.314 N 
ATOM     24  H   UNL     1       7.606  -0.216  23.350  0.00  0.00    +0.149 HD
ATOM     25  O   UNL     1      10.086  -1.526  21.853  0.00  0.00    -0.276 OA
BRANCH  23  26
ATOM     26  C   UNL     1       8.163  -2.224  23.797  0.00  0.00    +0.114 C 
BRANCH  26  27
ATOM     27  C   UNL     1       7.498  -3.343  22.994  0.00  0.00    +0.084 C 
BRANCH  27  28
ATOM     28  S   UNL     1       7.712  -4.965  23.800  0.00  0.00    -0.177 S 
ATOM     29  H   UNL     1       8.864  -5.276  23.190  0.00  0.00    +0.102 HD
ENDBRANCH  27  28
ENDBRANCH  26  27
ENDBRANCH  23  26
ENDBRANCH  21  22
ENDBRANCH  20  21
ENDBRANCH  17  20
ENDBRANCH  15  16
BRANCH  15  30
ATOM     30  O   UNL     1       8.342   3.518  25.456  0.00  0.00    -0.382 OA
ATOM     31  H   UNL     1       8.595   2.616  25.197  0.00  0.00    +0.210 HD
ENDBRANCH  15  30
ENDBRANCH  13  15
ENDBRANCH  11  13
ENDBRANCH  10  11
ENDBRANCH   6  10
ENDBRANCH   5   6
ENDBRANCH   1   5
BRANCH   1  32
ATOM     32  O   UNL     1       5.290   0.355  25.999  0.00  0.00    -0.284 OA
BRANCH  32  33
ATOM     33  C   UNL     1       5.812  -0.632  26.879  0.00  0.00    +0.206 C 
BRANCH  33  34
ATOM     34  C   UNL     1       5.676  -2.119  26.426  0.00  0.00    +0.179 C 
ATOM     35  C   UNL     1       5.365  -3.193  27.479  0.00  0.00    +0.194 C 
ATOM     36  C   UNL     1       3.838  -3.273  27.533  0.00  0.00    +0.196 C 
ATOM     37  C   UNL     1       3.369  -2.555  26.259  0.00  0.00    +0.253 C 
ATOM     38  O   UNL     1       4.552  -2.213  25.498  0.00  0.00    -0.346 OA
BRANCH  37  39
ATOM     39  N   UNL     1       2.436  -3.319  25.440  0.00  0.00    -0.286 N 
ATOM     40  C   UNL     1       2.783  -4.279  24.517  0.00  0.00    +0.167 A 
ATOM     41  N   UNL     1       4.017  -4.664  24.153  0.00  0.00    -0.216 NA
ATOM     42  C   UNL     1       3.954  -5.625  23.209  0.00  0.00    +0.225 A 
ATOM     43  N   UNL     1       2.859  -6.165  22.633  0.00  0.00    -0.219 NA
ATOM     44  C   UNL     1       1.626  -5.761  23.043  0.00  0.00    +0.147 A 
ATOM     45  N   UNL     1       0.520  -6.345  22.483  0.00  0.00    -0.341 N 
ATOM     46  H   UNL     1      -0.323  -6.259  23.036  0.00  0.00    +0.144 HD
ATOM     47  H   UNL     1       0.735  -7.225  22.015  0.00  0.00    +0.144 HD
ATOM     48  C   UNL     1       1.575  -4.770  24.040  0.00  0.00    +0.147 A 
ATOM     49  N   UNL     1       0.514  -4.160  24.676  0.00  0.00    -0.231 NA
ATOM     50  C   UNL     1       1.067  -3.307  25.515  0.00  0.00    +0.203 A 
ENDBRANCH  37  39
BRANCH  36  51
ATOM     51  O   UNL     1       3.340  -2.607  28.692  0.00  0.00    -0.385 OA
ATOM     52  H   UNL     1       3.730  -1.709  28.683  0.00  0.00    +0.210 HD
ENDBRANCH  36  51
BRANCH  35  53
ATOM     53  O   UNL     1       5.836  -4.430  26.926  0.00  0.00    -0.278 OA
BRANCH  53  54
ATOM     54  P   UNL     1       6.352  -5.592  27.896  0.00  0.00    +0.473 P 
ATOM     55  O   UNL     1       6.102  -5.448  29.354  0.00  0.00    -0.228 OA
BRANCH  54  56
ATOM     56  O   UNL     1       5.621  -6.848  27.235  0.00  0.00    -0.303 OA
ATOM     57  H   UNL     1       5.314  -7.466  27.924  0.00  0.00    +0.222 HD
ENDBRANCH  54  56
BRANCH  54  58
ATOM     58  O   UNL     1       7.841  -5.862  27.399  0.00  0.00    -0.303 OA
ATOM     59  H   UNL     1       7.890  -5.750  26.431  0.00  0.00    +0.222 HD
ENDBRANCH  54  58
ENDBRANCH  53  54
ENDBRANCH  35  53
ENDBRANCH  33  34
ENDBRANCH  32  33
ENDBRANCH   1  32
TORSDOF 25
ENDMDL
MODEL 8
REMARK VINA RESULT:      -6.3      3.167      8.646
REMARK  Name = 
REMARK  27 active torsions:
REMARK  status: ('A' for Active; 'I' for Inactive)
REMARK    1  A    between atoms: C_1  and  C_2
REMARK    2  A    between atoms: C_2  and  C_3
REMARK    3  A    between atoms: C_2  and  C_4
REMARK    4  A    between atoms: C_2  and  C_40
REMARK    5  A    between atoms: C_4  and  O_5
REMARK    6  A    between atoms: O_5  and  P_6
REMARK    7  A    between atoms: P_6  and  O_7
REMARK    8  A    between atoms: P_6  and  O_9
REMARK    9  A    between atoms: O_9  and  P_10
REMARK   10  A    between atoms: P_10  and  O_11
REMARK   11  A    between atoms: P_10  and  O_13
REMARK   12  A    between atoms: O_13  and  C_14
REMARK   13  A    between atoms: C_14  and  C_15
REMARK   14  A    between atoms: C_18  and  N_30
REMARK   15  A    between atoms: C_20  and  O_22
REMARK   16  A    between atoms: C_23  and  O_25
REMARK   17  A    between atoms: O_25  and  P_26
REMARK   18  A    between atoms: P_26  and  O_27
REMARK   19  A    between atoms: P_26  and  O_28
REMARK   20  A    between atoms: C_40  and  O_42
REMARK   21  A    between atoms: C_40  and  C_43
REMARK   22  A    between atoms: N_45  and  C_46
REMARK   23  A    between atoms: C_46  and  C_47
REMARK   24  A    between atoms: C_47  and  C_48
REMARK   25  A    between atoms: N_50  and  C_51
REMARK   26  A    between atoms: C_51  and  C_52
REMARK   27  A    between atoms: C_52  and  S_53
REMARK                            x       y       z     vdW  Elec       q    Type
REMARK                         _______ _______ _______ _____ _____    ______ ____
ROOT
ATOM      1  P   UNL     1       8.236  -4.000  23.916  0.00  0.00    +0.483 P 
ATOM      2  O   UNL     1       8.706  -5.339  24.404  0.00  0.00    -0.227 OA
ENDROOT
BRANCH   1   3
ATOM      3  O   UNL     1       7.165  -3.315  24.961  0.00  0.00    -0.302 OA
ATOM      4  H   UNL     1       6.655  -4.067  25.264  0.00  0.00    +0.222 HD
ENDBRANCH   1   3
BRANCH   1   5
ATOM      5  O   UNL     1       6.781  -4.311  23.327  0.00  0.00    -0.186 OA
BRANCH   5   6
ATOM      6  P   UNL     1       6.322  -4.581  21.681  0.00  0.00    +0.483 P 
ATOM      7  O   UNL     1       6.835  -6.020  21.716  0.00  0.00    -0.227 OA
BRANCH   6   8
ATOM      8  O   UNL     1       5.863  -4.851  20.035  0.00  0.00    -0.302 OA
ATOM      9  H   UNL     1       5.365  -5.693  20.083  0.00  0.00    +0.222 HD
ENDBRANCH   6   8
BRANCH   6  10
ATOM     10  O   UNL     1       4.752  -4.532  22.129  0.00  0.00    -0.286 OA
BRANCH  10  11
ATOM     11  C   UNL     1       4.459  -4.512  23.518  0.00  0.00    +0.181 C 
BRANCH  11  13
ATOM     12  C   UNL     1       2.638  -4.822  25.245  0.00  0.00    +0.016 C 
ATOM     13  C   UNL     1       3.358  -5.484  24.050  0.00  0.00    +0.024 C 
ATOM     14  C   UNL     1       2.252  -5.827  23.025  0.00  0.00    +0.016 C 
BRANCH  13  15
ATOM     15  C   UNL     1       4.099  -6.785  24.516  0.00  0.00    +0.208 C 
BRANCH  15  16
ATOM     16  C   UNL     1       4.707  -6.649  25.943  0.00  0.00    +0.242 C 
ATOM     17  N   UNL     1       5.895  -5.945  25.994  0.00  0.00    -0.313 N 
ATOM     18  H   UNL     1       6.040  -5.260  25.261  0.00  0.00    +0.149 HD
ATOM     19  O   UNL     1       4.209  -7.154  26.944  0.00  0.00    -0.273 OA
BRANCH  17  20
ATOM     20  C   UNL     1       6.560  -5.712  27.270  0.00  0.00    +0.113 C 
BRANCH  20  21
ATOM     21  C   UNL     1       5.953  -4.554  28.064  0.00  0.00    +0.114 C 
BRANCH  21  22
ATOM     22  C   UNL     1       5.323  -5.037  29.351  0.00  0.00    +0.215 C 
ATOM     23  N   UNL     1       3.961  -5.236  29.255  0.00  0.00    -0.314 N 
ATOM     24  H   UNL     1       3.476  -4.958  28.411  0.00  0.00    +0.149 HD
ATOM     25  O   UNL     1       5.958  -5.267  30.374  0.00  0.00    -0.276 OA
BRANCH  23  26
ATOM     26  C   UNL     1       3.169  -5.702  30.384  0.00  0.00    +0.114 C 
BRANCH  26  27
ATOM     27  C   UNL     1       3.082  -7.225  30.485  0.00  0.00    +0.084 C 
BRANCH  27  28
ATOM     28  S   UNL     1       1.684  -7.882  29.515  0.00  0.00    -0.177 S 
ATOM     29  H   UNL     1       1.161  -8.623  30.502  0.00  0.00    +0.102 HD
ENDBRANCH  27  28
ENDBRANCH  26  27
ENDBRANCH  23  26
ENDBRANCH  21  22
ENDBRANCH  20  21
ENDBRANCH  17  20
ENDBRANCH  15  16
BRANCH  15  30
ATOM     30  O   UNL     1       5.132  -7.183  23.619  0.00  0.00    -0.382 OA
ATOM     31  H   UNL     1       5.345  -6.430  23.043  0.00  0.00    +0.210 HD
ENDBRANCH  15  30
ENDBRANCH  13  15
ENDBRANCH  11  13
ENDBRANCH  10  11
ENDBRANCH   6  10
ENDBRANCH   5   6
ENDBRANCH   1   5
BRANCH   1  32
ATOM     32  O   UNL     1       9.088  -2.952  24.821  0.00  0.00    -0.284 OA
BRANCH  32  33
ATOM     33  C   UNL     1       8.465  -1.959  25.624  0.00  0.00    +0.206 C 
BRANCH  33  34
ATOM     34  C   UNL     1       8.524  -0.491  25.097  0.00  0.00    +0.179 C 
ATOM     35  C   UNL     1       8.326  -0.231  23.597  0.00  0.00    +0.194 C 
ATOM     36  C   UNL     1       6.820  -0.028  23.419  0.00  0.00    +0.196 C 
ATOM     37  C   UNL     1       6.293   0.214  24.841  0.00  0.00    +0.253 C 
ATOM     38  O   UNL     1       7.440   0.263  25.722  0.00  0.00    -0.346 OA
BRANCH  37  39
ATOM     39  N   UNL     1       5.480   1.414  24.992  0.00  0.00    -0.286 N 
ATOM     40  C   UNL     1       4.393   1.543  25.826  0.00  0.00    +0.167 A 
ATOM     41  N   UNL     1       3.842   0.604  26.612  0.00  0.00    -0.216 NA
ATOM     42  C   UNL     1       2.780   1.105  27.276  0.00  0.00    +0.225 A 
ATOM     43  N   UNL     1       2.255   2.347  27.203  0.00  0.00    -0.219 NA
ATOM     44  C   UNL     1       2.855   3.275  26.409  0.00  0.00    +0.147 A 
ATOM     45  N   UNL     1       2.341   4.545  26.374  0.00  0.00    -0.341 N 
ATOM     46  H   UNL     1       2.990   5.250  26.050  0.00  0.00    +0.144 HD
ATOM     47  H   UNL     1       1.727   4.742  27.165  0.00  0.00    +0.144 HD
ATOM     48  C   UNL     1       3.986   2.862  25.682  0.00  0.00    +0.147 A 
ATOM     49  N   UNL     1       4.818   3.539  24.814  0.00  0.00    -0.231 NA
ATOM     50  C   UNL     1       5.706   2.644  24.431  0.00  0.00    +0.203 A 
ENDBRANCH  37  39
BRANCH  36  51
ATOM     51  O   UNL     1       6.218  -1.192  22.856  0.00  0.00    -0.385 OA
ATOM     52  H   UNL     1       5.306  -0.938  22.605  0.00  0.00    +0.210 HD
ENDBRANCH  36  51
BRANCH  35  53
ATOM     53  O   UNL     1       8.958   1.029  23.333  0.00  0.00    -0.278 OA
BRANCH  53  54
ATOM     54  P   UNL     1       8.865   1.679  21.875  0.00  0.00    +0.473 P 
ATOM     55  O   UNL     1       7.732   2.598  21.589  0.00  0.00    -0.228 OA
BRANCH  54  56
ATOM     56  O   UNL     1      10.300   2.374  21.789  0.00  0.00    -0.303 OA
ATOM     57  H   UNL     1      10.660   2.524  22.683  0.00  0.00    +0.222 HD
ENDBRANCH  54  56
BRANCH  54  58
ATOM     58  O   UNL     1       9.112   0.445  20.898  0.00  0.00    -0.303 OA
ATOM     59  H   UNL     1       8.709  -0.359  21.275  0.00  0.00    +0.222 HD
ENDBRANCH  54  58
ENDBRANCH  53  54
ENDBRANCH  35  53
ENDBRANCH  33  34
ENDBRANCH  32  33
ENDBRANCH   1  32
TORSDOF 25
ENDMDL
MODEL 9
REMARK VINA RESULT:      -6.3      2.888      9.091
REMARK  Name = 
REMARK  27 active torsions:
REMARK  status: ('A' for Active; 'I' for Inactive)
REMARK    1  A    between atoms: C_1  and  C_2
REMARK    2  A    between atoms: C_2  and  C_3
REMARK    3  A    between atoms: C_2  and  C_4
REMARK    4  A    between atoms: C_2  and  C_40
REMARK    5  A    between atoms: C_4  and  O_5
REMARK    6  A    between atoms: O_5  and  P_6
REMARK    7  A    between atoms: P_6  and  O_7
REMARK    8  A    between atoms: P_6  and  O_9
REMARK    9  A    between atoms: O_9  and  P_10
REMARK   10  A    between atoms: P_10  and  O_11
REMARK   11  A    between atoms: P_10  and  O_13
REMARK   12  A    between atoms: O_13  and  C_14
REMARK   13  A    between atoms: C_14  and  C_15
REMARK   14  A    between atoms: C_18  and  N_30
REMARK   15  A    between atoms: C_20  and  O_22
REMARK   16  A    between atoms: C_23  and  O_25
REMARK   17  A    between atoms: O_25  and  P_26
REMARK   18  A    between atoms: P_26  and  O_27
REMARK   19  A    between atoms: P_26  and  O_28
REMARK   20  A    between atoms: C_40  and  O_42
REMARK   21  A    between atoms: C_40  and  C_43
REMARK   22  A    between atoms: N_45  and  C_46
REMARK   23  A    between atoms: C_46  and  C_47
REMARK   24  A    between atoms: C_47  and  C_48
REMARK   25  A    between atoms: N_50  and  C_51
REMARK   26  A    between atoms: C_51  and  C_52
REMARK   27  A    between atoms: C_52  and  S_53
REMARK                            x       y       z     vdW  Elec       q    Type
REMARK                         _______ _______ _______ _____ _____    ______ ____
ROOT
ATOM      1  P   UNL     1       9.487  -1.869  23.217  0.00  0.00    +0.483 P 
ATOM      2  O   UNL     1      10.221  -3.093  23.681  0.00  0.00    -0.227 OA
ENDROOT
BRANCH   1   3
ATOM      3  O   UNL     1       8.943  -0.970  24.484  0.00  0.00    -0.302 OA
ATOM      4  H   UNL     1       7.991  -1.019  24.384  0.00  0.00    +0.222 HD
ENDBRANCH   1   3
BRANCH   1   5
ATOM      5  O   UNL     1       7.949  -2.263  23.413  0.00  0.00    -0.186 OA
BRANCH   5   6
ATOM      6  P   UNL     1       6.639  -1.260  23.933  0.00  0.00    +0.483 P 
ATOM      7  O   UNL     1       6.922  -0.228  22.842  0.00  0.00    -0.227 OA
BRANCH   6   8
ATOM      8  O   UNL     1       5.330  -0.257  24.454  0.00  0.00    -0.302 OA
ATOM      9  H   UNL     1       5.646   0.645  24.240  0.00  0.00    +0.222 HD
ENDBRANCH   6   8
BRANCH   6  10
ATOM     10  O   UNL     1       5.585  -2.382  23.387  0.00  0.00    -0.286 OA
BRANCH  10  11
ATOM     11  C   UNL     1       6.102  -3.459  22.620  0.00  0.00    +0.181 C 
BRANCH  11  13
ATOM     12  C   UNL     1       6.439  -5.913  22.112  0.00  0.00    +0.016 C 
ATOM     13  C   UNL     1       5.830  -4.914  23.120  0.00  0.00    +0.024 C 
ATOM     14  C   UNL     1       6.462  -5.252  24.490  0.00  0.00    +0.016 C 
BRANCH  13  15
ATOM     15  C   UNL     1       4.272  -5.081  23.176  0.00  0.00    +0.208 C 
BRANCH  15  16
ATOM     16  C   UNL     1       3.693  -4.819  24.597  0.00  0.00    +0.242 C 
ATOM     17  N   UNL     1       3.467  -3.486  24.885  0.00  0.00    -0.313 N 
ATOM     18  H   UNL     1       3.286  -2.882  24.092  0.00  0.00    +0.149 HD
ATOM     19  O   UNL     1       3.489  -5.704  25.421  0.00  0.00    -0.273 OA
BRANCH  17  20
ATOM     20  C   UNL     1       2.896  -3.096  26.169  0.00  0.00    +0.113 C 
BRANCH  20  21
ATOM     21  C   UNL     1       3.867  -2.302  27.045  0.00  0.00    +0.114 C 
BRANCH  21  22
ATOM     22  C   UNL     1       5.113  -3.103  27.352  0.00  0.00    +0.215 C 
ATOM     23  N   UNL     1       4.850  -4.326  27.934  0.00  0.00    -0.314 N 
ATOM     24  H   UNL     1       3.902  -4.555  28.205  0.00  0.00    +0.149 HD
ATOM     25  O   UNL     1       6.247  -2.725  27.082  0.00  0.00    -0.276 OA
BRANCH  23  26
ATOM     26  C   UNL     1       5.915  -5.247  28.305  0.00  0.00    +0.114 C 
BRANCH  26  27
ATOM     27  C   UNL     1       5.529  -6.210  29.428  0.00  0.00    +0.084 C 
BRANCH  27  28
ATOM     28  S   UNL     1       3.821  -6.819  29.233  0.00  0.00    -0.177 S 
ATOM     29  H   UNL     1       4.083  -8.090  29.573  0.00  0.00    +0.102 HD
ENDBRANCH  27  28
ENDBRANCH  26  27
ENDBRANCH  23  26
ENDBRANCH  21  22
ENDBRANCH  20  21
ENDBRANCH  17  20
ENDBRANCH  15  16
BRANCH  15  30
ATOM     30  O   UNL     1       3.839  -6.367  22.740  0.00  0.00    -0.382 OA
ATOM     31  H   UNL     1       4.510  -6.727  22.136  0.00  0.00    +0.210 HD
ENDBRANCH  15  30
ENDBRANCH  13  15
ENDBRANCH  11  13
ENDBRANCH  10  11
ENDBRANCH   6  10
ENDBRANCH   5   6
ENDBRANCH   1   5
BRANCH   1  32
ATOM     32  O   UNL     1      10.573  -0.678  23.431  0.00  0.00    -0.284 OA
BRANCH  32  33
ATOM     33  C   UNL     1      10.408   0.613  22.859  0.00  0.00    +0.206 C 
BRANCH  33  34
ATOM     34  C   UNL     1      10.704   1.834  23.785  0.00  0.00    +0.179 C 
ATOM     35  C   UNL     1      10.625   3.250  23.196  0.00  0.00    +0.194 C 
ATOM     36  C   UNL     1       9.175   3.692  23.404  0.00  0.00    +0.196 C 
ATOM     37  C   UNL     1       8.614   2.700  24.433  0.00  0.00    +0.253 C 
ATOM     38  O   UNL     1       9.708   1.850  24.853  0.00  0.00    -0.346 OA
BRANCH  37  39
ATOM     39  N   UNL     1       7.973   3.318  25.587  0.00  0.00    -0.286 N 
ATOM     40  C   UNL     1       7.257   2.652  26.555  0.00  0.00    +0.167 A 
ATOM     41  N   UNL     1       6.965   1.343  26.610  0.00  0.00    -0.216 NA
ATOM     42  C   UNL     1       6.233   1.066  27.709  0.00  0.00    +0.225 A 
ATOM     43  N   UNL     1       5.786   1.918  28.655  0.00  0.00    -0.219 NA
ATOM     44  C   UNL     1       6.120   3.234  28.574  0.00  0.00    +0.147 A 
ATOM     45  N   UNL     1       5.698   4.085  29.562  0.00  0.00    -0.341 N 
ATOM     46  H   UNL     1       6.230   4.943  29.631  0.00  0.00    +0.144 HD
ATOM     47  H   UNL     1       5.412   3.592  30.409  0.00  0.00    +0.144 HD
ATOM     48  C   UNL     1       6.899   3.632  27.472  0.00  0.00    +0.147 A 
ATOM     49  N   UNL     1       7.410   4.858  27.102  0.00  0.00    -0.231 NA
ATOM     50  C   UNL     1       8.056   4.629  25.976  0.00  0.00    +0.203 A 
ENDBRANCH  37  39
BRANCH  36  51
ATOM     51  O   UNL     1       8.444   3.609  22.182  0.00  0.00    -0.385 OA
ATOM     52  H   UNL     1       8.188   2.670  22.076  0.00  0.00    +0.210 HD
ENDBRANCH  36  51
BRANCH  35  53
ATOM     53  O   UNL     1      11.443   4.071  24.042  0.00  0.00    -0.278 OA
BRANCH  53  54
ATOM     54  P   UNL     1      12.349   5.222  23.401  0.00  0.00    +0.473 P 
ATOM     55  O   UNL     1      13.495   4.816  22.545  0.00  0.00    -0.228 OA
BRANCH  54  56
ATOM     56  O   UNL     1      11.229   6.058  22.628  0.00  0.00    -0.303 OA
ATOM     57  H   UNL     1      10.358   5.629  22.722  0.00  0.00    +0.222 HD
ENDBRANCH  54  56
BRANCH  54  58
ATOM     58  O   UNL     1      12.620   6.210  24.621  0.00  0.00    -0.303 OA
ATOM     59  H   UNL     1      13.468   6.674  24.486  0.00  0.00    +0.222 HD
ENDBRANCH  54  58
ENDBRANCH  53  54
ENDBRANCH  35  53
ENDBRANCH  33  34
ENDBRANCH  32  33
ENDBRANCH   1  32
TORSDOF 25
ENDMDL
