MODEL 1
REMARK VINA RESULT:      -6.6      0.000      0.000
REMARK  Name = 
REMARK  8 active torsions:
REMARK  status: ('A' for Active; 'I' for Inactive)
REMARK    1  A    between atoms: C_1  and  O_2
REMARK    2  A    between atoms: O_2  and  C_3
REMARK    3  A    between atoms: C_5  and  N_6
REMARK    4  A    between atoms: N_13  and  C_16
REMARK    5  A    between atoms: C_23  and  O_24
REMARK    6  A    between atoms: O_24  and  C_25
REMARK    7  A    between atoms: C_26  and  O_27
REMARK    8  A    between atoms: O_27  and  C_28
REMARK                            x       y       z     vdW  Elec       q    Type
REMARK                         _______ _______ _______ _____ _____    ______ ____
ROOT
ATOM      1  N   UNL     1       9.022  -3.473  24.064  0.00  0.00    -0.283 N 
ATOM      2  H   UNL     1       9.772  -3.893  23.530  0.00  0.00    +0.155 HD
ATOM      3  C   UNL     1       9.208  -2.087  24.077  0.00  0.00    +0.221 A 
ATOM      4  N   UNL     1       8.401  -1.298  24.800  0.00  0.00    -0.196 NA
ATOM      5  C   UNL     1       8.674   0.018  24.724  0.00  0.00    +0.151 A 
ATOM      6  C   UNL     1       9.691   0.569  23.952  0.00  0.00    +0.037 A 
ATOM      7  C   UNL     1       9.644   1.972  24.107  0.00  0.00    +0.031 A 
ATOM      8  C   UNL     1       8.613   2.245  24.976  0.00  0.00    +0.095 A 
ATOM      9  C   UNL     1      10.477  -0.326  23.239  0.00  0.00    +0.126 A 
ATOM     10  N   UNL     1       7.998   1.058  25.359  0.00  0.00    -0.285 N 
ATOM     11  N   UNL     1      10.238  -1.653  23.329  0.00  0.00    -0.222 NA
ENDROOT
BRANCH   1  16
ATOM     12  C   UNL     1       6.346  -5.662  25.522  0.00  0.00    +0.167 A 
ATOM     13  C   UNL     1       5.565  -5.943  24.381  0.00  0.00    +0.204 A 
ATOM     14  C   UNL     1       5.950  -5.365  23.151  0.00  0.00    +0.167 A 
ATOM     15  C   UNL     1       7.095  -4.548  23.082  0.00  0.00    +0.073 A 
ATOM     16  C   UNL     1       7.865  -4.254  24.207  0.00  0.00    +0.041 A 
ATOM     17  C   UNL     1       7.477  -4.836  25.412  0.00  0.00    +0.073 A 
BRANCH  12  19
ATOM     18  C   UNL     1       6.470  -5.597  27.900  0.00  0.00    +0.277 C 
ATOM     19  O   UNL     1       6.054  -6.275  26.717  0.00  0.00    -0.491 OA
ENDBRANCH  12  19
BRANCH  13  20
ATOM     20  O   UNL     1       4.451  -6.738  24.351  0.00  0.00    -0.488 OA
ATOM     21  C   UNL     1       3.169  -6.204  24.635  0.00  0.00    +0.277 C 
ENDBRANCH  13  20
BRANCH  14  22
ATOM     22  O   UNL     1       5.353  -5.484  21.918  0.00  0.00    -0.491 OA
ATOM     23  C   UNL     1       6.147  -5.768  20.778  0.00  0.00    +0.277 C 
ENDBRANCH  14  22
ENDBRANCH   1  16
BRANCH  10  24
ATOM     24  C   UNL     1       6.856   1.012  26.227  0.00  0.00    +0.139 A 
ATOM     25  N   UNL     1       7.089   0.679  27.527  0.00  0.00    -0.238 NA
ATOM     26  C   UNL     1       6.041   0.675  28.380  0.00  0.00    +0.113 A 
ATOM     27  C   UNL     1       4.749   0.997  28.011  0.00  0.00    +0.020 A 
ATOM     28  C   UNL     1       4.515   1.319  26.681  0.00  0.00    +0.005 A 
ATOM     29  C   UNL     1       5.576   1.315  25.772  0.00  0.00    +0.047 A 
ENDBRANCH  10  24
TORSDOF 5
ENDMDL
MODEL 2
REMARK VINA RESULT:      -6.6      0.876      2.611
REMARK  Name = 
REMARK  8 active torsions:
REMARK  status: ('A' for Active; 'I' for Inactive)
REMARK    1  A    between atoms: C_1  and  O_2
REMARK    2  A    between atoms: O_2  and  C_3
REMARK    3  A    between atoms: C_5  and  N_6
REMARK    4  A    between atoms: N_13  and  C_16
REMARK    5  A    between atoms: C_23  and  O_24
REMARK    6  A    between atoms: O_24  and  C_25
REMARK    7  A    between atoms: C_26  and  O_27
REMARK    8  A    between atoms: O_27  and  C_28
REMARK                            x       y       z     vdW  Elec       q    Type
REMARK                         _______ _______ _______ _____ _____    ______ ____
ROOT
ATOM      1  N   UNL     1       9.588  -2.438  23.871  0.00  0.00    -0.283 N 
ATOM      2  H   UNL     1      10.416  -2.669  23.338  0.00  0.00    +0.155 HD
ATOM      3  C   UNL     1       9.527  -1.049  24.019  0.00  0.00    +0.221 A 
ATOM      4  N   UNL     1       8.572  -0.484  24.770  0.00  0.00    -0.196 NA
ATOM      5  C   UNL     1       8.612   0.860  24.827  0.00  0.00    +0.151 A 
ATOM      6  C   UNL     1       9.541   1.649  24.159  0.00  0.00    +0.037 A 
ATOM      7  C   UNL     1       9.244   3.002  24.438  0.00  0.00    +0.031 A 
ATOM      8  C   UNL     1       8.154   3.008  25.277  0.00  0.00    +0.095 A 
ATOM      9  C   UNL     1      10.494   0.977  23.406  0.00  0.00    +0.126 A 
ATOM     10  N   UNL     1       7.744   1.701  25.521  0.00  0.00    -0.285 N 
ATOM     11  N   UNL     1      10.488  -0.374  23.364  0.00  0.00    -0.222 NA
ENDROOT
BRANCH   1  16
ATOM     12  C   UNL     1       6.669  -4.579  22.884  0.00  0.00    +0.167 A 
ATOM     13  C   UNL     1       6.474  -5.340  24.056  0.00  0.00    +0.204 A 
ATOM     14  C   UNL     1       7.351  -5.127  25.143  0.00  0.00    +0.167 A 
ATOM     15  C   UNL     1       8.374  -4.164  25.046  0.00  0.00    +0.073 A 
ATOM     16  C   UNL     1       8.582  -3.416  23.887  0.00  0.00    +0.041 A 
ATOM     17  C   UNL     1       7.706  -3.633  22.826  0.00  0.00    +0.073 A 
BRANCH  12  19
ATOM     18  C   UNL     1       6.106  -5.655  20.834  0.00  0.00    +0.277 C 
ATOM     19  O   UNL     1       5.783  -4.696  21.839  0.00  0.00    -0.491 OA
ENDBRANCH  12  19
BRANCH  13  20
ATOM     20  O   UNL     1       5.498  -6.281  24.245  0.00  0.00    -0.488 OA
ATOM     21  C   UNL     1       4.203  -5.908  24.683  0.00  0.00    +0.277 C 
ENDBRANCH  13  20
BRANCH  14  22
ATOM     22  O   UNL     1       7.366  -5.743  26.372  0.00  0.00    -0.491 OA
ATOM     23  C   UNL     1       6.648  -5.171  27.453  0.00  0.00    +0.277 C 
ENDBRANCH  14  22
ENDBRANCH   1  16
BRANCH  10  24
ATOM     24  C   UNL     1       6.602   1.376  26.325  0.00  0.00    +0.139 A 
ATOM     25  N   UNL     1       6.844   1.019  27.617  0.00  0.00    -0.238 NA
ATOM     26  C   UNL     1       5.785   0.754  28.413  0.00  0.00    +0.113 A 
ATOM     27  C   UNL     1       4.471   0.832  27.994  0.00  0.00    +0.020 A 
ATOM     28  C   UNL     1       4.231   1.180  26.672  0.00  0.00    +0.005 A 
ATOM     29  C   UNL     1       5.306   1.443  25.821  0.00  0.00    +0.047 A 
ENDBRANCH  10  24
TORSDOF 5
ENDMDL
MODEL 3
REMARK VINA RESULT:      -6.5      2.545      2.971
REMARK  Name = 
REMARK  8 active torsions:
REMARK  status: ('A' for Active; 'I' for Inactive)
REMARK    1  A    between atoms: C_1  and  O_2
REMARK    2  A    between atoms: O_2  and  C_3
REMARK    3  A    between atoms: C_5  and  N_6
REMARK    4  A    between atoms: N_13  and  C_16
REMARK    5  A    between atoms: C_23  and  O_24
REMARK    6  A    between atoms: O_24  and  C_25
REMARK    7  A    between atoms: C_26  and  O_27
REMARK    8  A    between atoms: O_27  and  C_28
REMARK                            x       y       z     vdW  Elec       q    Type
REMARK                         _______ _______ _______ _____ _____    ______ ____
ROOT
ATOM      1  N   UNL     1       8.445  -1.732  24.737  0.00  0.00    -0.283 N 
ATOM      2  H   UNL     1       9.212  -2.348  24.973  0.00  0.00    +0.155 HD
ATOM      3  C   UNL     1       8.958  -0.451  24.509  0.00  0.00    +0.221 A 
ATOM      4  N   UNL     1       8.136   0.580  24.271  0.00  0.00    -0.196 NA
ATOM      5  C   UNL     1       8.748   1.760  24.058  0.00  0.00    +0.151 A 
ATOM      6  C   UNL     1      10.125   1.942  24.053  0.00  0.00    +0.037 A 
ATOM      7  C   UNL     1      10.384   3.301  23.765  0.00  0.00    +0.031 A 
ATOM      8  C   UNL     1       9.164   3.918  23.613  0.00  0.00    +0.095 A 
ATOM      9  C   UNL     1      10.898   0.818  24.312  0.00  0.00    +0.126 A 
ATOM     10  N   UNL     1       8.145   2.985  23.780  0.00  0.00    -0.285 N 
ATOM     11  N   UNL     1      10.298  -0.368  24.561  0.00  0.00    -0.222 NA
ENDROOT
BRANCH   1  16
ATOM     12  C   UNL     1       4.898  -2.920  24.439  0.00  0.00    +0.167 A 
ATOM     13  C   UNL     1       4.987  -3.785  23.328  0.00  0.00    +0.204 A 
ATOM     14  C   UNL     1       6.241  -3.925  22.692  0.00  0.00    +0.167 A 
ATOM     15  C   UNL     1       7.362  -3.227  23.179  0.00  0.00    +0.073 A 
ATOM     16  C   UNL     1       7.281  -2.360  24.269  0.00  0.00    +0.041 A 
ATOM     17  C   UNL     1       6.040  -2.236  24.890  0.00  0.00    +0.073 A 
BRANCH  12  19
ATOM     18  C   UNL     1       3.614  -3.606  26.325  0.00  0.00    +0.277 C 
ATOM     19  O   UNL     1       3.717  -2.825  25.137  0.00  0.00    -0.491 OA
ENDBRANCH  12  19
BRANCH  13  20
ATOM     20  O   UNL     1       3.957  -4.514  22.798  0.00  0.00    -0.488 OA
ATOM     21  C   UNL     1       3.667  -5.816  23.277  0.00  0.00    +0.277 C 
ENDBRANCH  13  20
BRANCH  14  22
ATOM     22  O   UNL     1       6.572  -4.694  21.601  0.00  0.00    -0.491 OA
ATOM     23  C   UNL     1       7.116  -5.989  21.794  0.00  0.00    +0.277 C 
ENDBRANCH  14  22
ENDBRANCH   1  16
BRANCH  10  24
ATOM     24  C   UNL     1       6.755   3.310  23.638  0.00  0.00    +0.139 A 
ATOM     25  N   UNL     1       6.173   3.980  24.671  0.00  0.00    -0.238 NA
ATOM     26  C   UNL     1       4.878   4.342  24.546  0.00  0.00    +0.113 A 
ATOM     27  C   UNL     1       4.112   4.080  23.427  0.00  0.00    +0.020 A 
ATOM     28  C   UNL     1       4.704   3.382  22.384  0.00  0.00    +0.005 A 
ATOM     29  C   UNL     1       6.038   2.979  22.491  0.00  0.00    +0.047 A 
ENDBRANCH  10  24
TORSDOF 5
ENDMDL
MODEL 4
REMARK VINA RESULT:      -6.5      2.275      3.436
REMARK  Name = 
REMARK  8 active torsions:
REMARK  status: ('A' for Active; 'I' for Inactive)
REMARK    1  A    between atoms: C_1  and  O_2
REMARK    2  A    between atoms: O_2  and  C_3
REMARK    3  A    between atoms: C_5  and  N_6
REMARK    4  A    between atoms: N_13  and  C_16
REMARK    5  A    between atoms: C_23  and  O_24
REMARK    6  A    between atoms: O_24  and  C_25
REMARK    7  A    between atoms: C_26  and  O_27
REMARK    8  A    between atoms: O_27  and  C_28
REMARK                            x       y       z     vdW  Elec       q    Type
REMARK                         _______ _______ _______ _____ _____    ______ ____
ROOT
ATOM      1  N   UNL     1       8.332  -2.151  24.618  0.00  0.00    -0.283 N 
ATOM      2  H   UNL     1       9.131  -2.736  24.826  0.00  0.00    +0.155 HD
ATOM      3  C   UNL     1       8.779  -0.842  24.417  0.00  0.00    +0.221 A 
ATOM      4  N   UNL     1       7.905   0.154  24.218  0.00  0.00    -0.196 NA
ATOM      5  C   UNL     1       8.456   1.367  24.026  0.00  0.00    +0.151 A 
ATOM      6  C   UNL     1       9.823   1.616  24.007  0.00  0.00    +0.037 A 
ATOM      7  C   UNL     1      10.012   2.992  23.751  0.00  0.00    +0.031 A 
ATOM      8  C   UNL     1       8.762   3.553  23.633  0.00  0.00    +0.095 A 
ATOM      9  C   UNL     1      10.653   0.524  24.225  0.00  0.00    +0.126 A 
ATOM     10  N   UNL     1       7.791   2.568  23.790  0.00  0.00    -0.285 N 
ATOM     11  N   UNL     1      10.114  -0.695  24.451  0.00  0.00    -0.222 NA
ENDROOT
BRANCH   1  16
ATOM     12  C   UNL     1       5.923  -3.991  22.405  0.00  0.00    +0.167 A 
ATOM     13  C   UNL     1       4.782  -4.057  23.231  0.00  0.00    +0.204 A 
ATOM     14  C   UNL     1       4.864  -3.500  24.527  0.00  0.00    +0.167 A 
ATOM     15  C   UNL     1       6.055  -2.883  24.956  0.00  0.00    +0.073 A 
ATOM     16  C   UNL     1       7.192  -2.823  24.151  0.00  0.00    +0.041 A 
ATOM     17  C   UNL     1       7.095  -3.372  22.873  0.00  0.00    +0.073 A 
BRANCH  12  19
ATOM     18  C   UNL     1       6.257  -5.794  20.883  0.00  0.00    +0.277 C 
ATOM     19  O   UNL     1       5.855  -4.444  21.109  0.00  0.00    -0.491 OA
ENDBRANCH  12  19
BRANCH  13  20
ATOM     20  O   UNL     1       3.581  -4.620  22.892  0.00  0.00    -0.488 OA
ATOM     21  C   UNL     1       3.318  -5.987  23.158  0.00  0.00    +0.277 C 
ENDBRANCH  13  20
BRANCH  14  22
ATOM     22  O   UNL     1       3.900  -3.449  25.506  0.00  0.00    -0.491 OA
ATOM     23  C   UNL     1       3.983  -4.323  26.620  0.00  0.00    +0.277 C 
ENDBRANCH  14  22
ENDBRANCH   1  16
BRANCH  10  24
ATOM     24  C   UNL     1       6.385   2.830  23.676  0.00  0.00    +0.139 A 
ATOM     25  N   UNL     1       5.669   2.841  24.834  0.00  0.00    -0.238 NA
ATOM     26  C   UNL     1       4.351   3.131  24.765  0.00  0.00    +0.113 A 
ATOM     27  C   UNL     1       3.691   3.427  23.588  0.00  0.00    +0.020 A 
ATOM     28  C   UNL     1       4.422   3.397  22.408  0.00  0.00    +0.005 A 
ATOM     29  C   UNL     1       5.783   3.083  22.447  0.00  0.00    +0.047 A 
ENDBRANCH  10  24
TORSDOF 5
ENDMDL
MODEL 5
REMARK VINA RESULT:      -6.5      1.503      1.950
REMARK  Name = 
REMARK  8 active torsions:
REMARK  status: ('A' for Active; 'I' for Inactive)
REMARK    1  A    between atoms: C_1  and  O_2
REMARK    2  A    between atoms: O_2  and  C_3
REMARK    3  A    between atoms: C_5  and  N_6
REMARK    4  A    between atoms: N_13  and  C_16
REMARK    5  A    between atoms: C_23  and  O_24
REMARK    6  A    between atoms: O_24  and  C_25
REMARK    7  A    between atoms: C_26  and  O_27
REMARK    8  A    between atoms: O_27  and  C_28
REMARK                            x       y       z     vdW  Elec       q    Type
REMARK                         _______ _______ _______ _____ _____    ______ ____
ROOT
ATOM      1  N   UNL     1       9.036  -3.800  24.780  0.00  0.00    -0.283 N 
ATOM      2  H   UNL     1       9.723  -4.476  24.472  0.00  0.00    +0.155 HD
ATOM      3  C   UNL     1       9.282  -2.588  24.129  0.00  0.00    +0.221 A 
ATOM      4  N   UNL     1       8.570  -1.494  24.432  0.00  0.00    -0.196 NA
ATOM      5  C   UNL     1       8.893  -0.391  23.732  0.00  0.00    +0.151 A 
ATOM      6  C   UNL     1       9.870  -0.343  22.744  0.00  0.00    +0.037 A 
ATOM      7  C   UNL     1       9.897   0.968  22.221  0.00  0.00    +0.031 A 
ATOM      8  C   UNL     1       8.950   1.693  22.906  0.00  0.00    +0.095 A 
ATOM      9  C   UNL     1      10.559  -1.524  22.500  0.00  0.00    +0.126 A 
ATOM     10  N   UNL     1       8.315   0.873  23.833  0.00  0.00    -0.285 N 
ATOM     11  N   UNL     1      10.269  -2.633  23.217  0.00  0.00    -0.222 NA
ENDROOT
BRANCH   1  16
ATOM     12  C   UNL     1       6.465  -5.007  27.233  0.00  0.00    +0.167 A 
ATOM     13  C   UNL     1       5.496  -5.561  26.370  0.00  0.00    +0.204 A 
ATOM     14  C   UNL     1       5.725  -5.490  24.978  0.00  0.00    +0.167 A 
ATOM     15  C   UNL     1       6.903  -4.895  24.485  0.00  0.00    +0.073 A 
ATOM     16  C   UNL     1       7.861  -4.334  25.330  0.00  0.00    +0.041 A 
ATOM     17  C   UNL     1       7.624  -4.417  26.701  0.00  0.00    +0.073 A 
BRANCH  12  19
ATOM     18  C   UNL     1       6.404  -6.456  29.124  0.00  0.00    +0.277 C 
ATOM     19  O   UNL     1       6.319  -5.134  28.594  0.00  0.00    -0.491 OA
ENDBRANCH  12  19
BRANCH  13  20
ATOM     20  O   UNL     1       4.335  -6.172  26.759  0.00  0.00    -0.488 OA
ATOM     21  C   UNL     1       3.162  -5.414  27.003  0.00  0.00    +0.277 C 
ENDBRANCH  13  20
BRANCH  14  22
ATOM     22  O   UNL     1       4.935  -5.946  23.949  0.00  0.00    -0.491 OA
ATOM     23  C   UNL     1       5.357  -5.768  22.607  0.00  0.00    +0.277 C 
ENDBRANCH  14  22
ENDBRANCH   1  16
BRANCH  10  24
ATOM     24  C   UNL     1       7.243   1.324  24.674  0.00  0.00    +0.139 A 
ATOM     25  N   UNL     1       6.028   1.490  24.082  0.00  0.00    -0.238 NA
ATOM     26  C   UNL     1       4.989   1.868  24.858  0.00  0.00    +0.113 A 
ATOM     27  C   UNL     1       5.086   2.087  26.218  0.00  0.00    +0.020 A 
ATOM     28  C   UNL     1       6.330   1.934  26.813  0.00  0.00    +0.005 A 
ATOM     29  C   UNL     1       7.428   1.561  26.033  0.00  0.00    +0.047 A 
ENDBRANCH  10  24
TORSDOF 5
ENDMDL
MODEL 6
REMARK VINA RESULT:      -6.3      1.322      2.880
REMARK  Name = 
REMARK  8 active torsions:
REMARK  status: ('A' for Active; 'I' for Inactive)
REMARK    1  A    between atoms: C_1  and  O_2
REMARK    2  A    between atoms: O_2  and  C_3
REMARK    3  A    between atoms: C_5  and  N_6
REMARK    4  A    between atoms: N_13  and  C_16
REMARK    5  A    between atoms: C_23  and  O_24
REMARK    6  A    between atoms: O_24  and  C_25
REMARK    7  A    between atoms: C_26  and  O_27
REMARK    8  A    between atoms: O_27  and  C_28
REMARK                            x       y       z     vdW  Elec       q    Type
REMARK                         _______ _______ _______ _____ _____    ______ ____
ROOT
ATOM      1  N   UNL     1       9.090  -3.965  24.627  0.00  0.00    -0.283 N 
ATOM      2  H   UNL     1       9.794  -4.595  24.267  0.00  0.00    +0.155 HD
ATOM      3  C   UNL     1       9.311  -2.695  24.084  0.00  0.00    +0.221 A 
ATOM      4  N   UNL     1       8.571  -1.648  24.474  0.00  0.00    -0.196 NA
ATOM      5  C   UNL     1       8.871  -0.482  23.873  0.00  0.00    +0.151 A 
ATOM      6  C   UNL     1       9.851  -0.327  22.900  0.00  0.00    +0.037 A 
ATOM      7  C   UNL     1       9.850   1.024  22.490  0.00  0.00    +0.031 A 
ATOM      8  C   UNL     1       8.882   1.665  23.228  0.00  0.00    +0.095 A 
ATOM      9  C   UNL     1      10.570  -1.466  22.561  0.00  0.00    +0.126 A 
ATOM     10  N   UNL     1       8.262   0.754  24.077  0.00  0.00    -0.285 N 
ATOM     11  N   UNL     1      10.303  -2.639  23.179  0.00  0.00    -0.222 NA
ENDROOT
BRANCH   1  16
ATOM     12  C   UNL     1       5.700  -5.562  24.824  0.00  0.00    +0.167 A 
ATOM     13  C   UNL     1       5.526  -5.673  26.219  0.00  0.00    +0.204 A 
ATOM     14  C   UNL     1       6.571  -5.228  27.059  0.00  0.00    +0.167 A 
ATOM     15  C   UNL     1       7.739  -4.674  26.500  0.00  0.00    +0.073 A 
ATOM     16  C   UNL     1       7.925  -4.571  25.121  0.00  0.00    +0.041 A 
ATOM     17  C   UNL     1       6.883  -5.009  24.305  0.00  0.00    +0.073 A 
BRANCH  12  19
ATOM     18  C   UNL     1       4.914  -5.746  22.582  0.00  0.00    +0.277 C 
ATOM     19  O   UNL     1       4.671  -5.904  23.978  0.00  0.00    -0.491 OA
ENDBRANCH  12  19
BRANCH  13  20
ATOM     20  O   UNL     1       4.422  -6.180  26.849  0.00  0.00    -0.488 OA
ATOM     21  C   UNL     1       3.306  -5.355  27.137  0.00  0.00    +0.277 C 
ENDBRANCH  13  20
BRANCH  14  22
ATOM     22  O   UNL     1       6.638  -5.238  28.432  0.00  0.00    -0.491 OA
ATOM     23  C   UNL     1       6.397  -6.445  29.138  0.00  0.00    +0.277 C 
ENDBRANCH  14  22
ENDBRANCH   1  16
BRANCH  10  24
ATOM     24  C   UNL     1       7.175   1.107  24.946  0.00  0.00    +0.139 A 
ATOM     25  N   UNL     1       7.480   1.307  26.257  0.00  0.00    -0.238 NA
ATOM     26  C   UNL     1       6.487   1.688  27.091  0.00  0.00    +0.113 A 
ATOM     27  C   UNL     1       5.182   1.893  26.687  0.00  0.00    +0.020 A 
ATOM     28  C   UNL     1       4.874   1.671  25.352  0.00  0.00    +0.005 A 
ATOM     29  C   UNL     1       5.876   1.261  24.470  0.00  0.00    +0.047 A 
ENDBRANCH  10  24
TORSDOF 5
ENDMDL
MODEL 7
REMARK VINA RESULT:      -6.2      4.684      8.013
REMARK  Name = 
REMARK  8 active torsions:
REMARK  status: ('A' for Active; 'I' for Inactive)
REMARK    1  A    between atoms: C_1  and  O_2
REMARK    2  A    between atoms: O_2  and  C_3
REMARK    3  A    between atoms: C_5  and  N_6
REMARK    4  A    between atoms: N_13  and  C_16
REMARK    5  A    between atoms: C_23  and  O_24
REMARK    6  A    between atoms: O_24  and  C_25
REMARK    7  A    between atoms: C_26  and  O_27
REMARK    8  A    between atoms: O_27  and  C_28
REMARK                            x       y       z     vdW  Elec       q    Type
REMARK                         _______ _______ _______ _____ _____    ______ ____
ROOT
ATOM      1  N   UNL     1       9.780   1.364  22.511  0.00  0.00    -0.283 N 
ATOM      2  H   UNL     1      10.343   1.224  21.682  0.00  0.00    +0.155 HD
ATOM      3  C   UNL     1       9.605   0.129  23.143  0.00  0.00    +0.221 A 
ATOM      4  N   UNL     1       8.814   0.019  24.219  0.00  0.00    -0.196 NA
ATOM      5  C   UNL     1       8.733  -1.217  24.744  0.00  0.00    +0.151 A 
ATOM      6  C   UNL     1       9.415  -2.326  24.257  0.00  0.00    +0.037 A 
ATOM      7  C   UNL     1       9.102  -3.428  25.082  0.00  0.00    +0.031 A 
ATOM      8  C   UNL     1       8.230  -2.973  26.044  0.00  0.00    +0.095 A 
ATOM      9  C   UNL     1      10.209  -2.118  23.137  0.00  0.00    +0.126 A 
ATOM     10  N   UNL     1       7.998  -1.614  25.860  0.00  0.00    -0.285 N 
ATOM     11  N   UNL     1      10.276  -0.889  22.577  0.00  0.00    -0.222 NA
ENDROOT
BRANCH   1  16
ATOM     12  C   UNL     1       8.569   4.715  23.689  0.00  0.00    +0.167 A 
ATOM     13  C   UNL     1       9.788   5.388  23.911  0.00  0.00    +0.204 A 
ATOM     14  C   UNL     1      10.990   4.683  23.681  0.00  0.00    +0.167 A 
ATOM     15  C   UNL     1      10.952   3.352  23.225  0.00  0.00    +0.073 A 
ATOM     16  C   UNL     1       9.752   2.674  23.013  0.00  0.00    +0.041 A 
ATOM     17  C   UNL     1       8.574   3.383  23.239  0.00  0.00    +0.073 A 
BRANCH  12  19
ATOM     18  C   UNL     1       6.704   5.732  22.609  0.00  0.00    +0.277 C 
ATOM     19  O   UNL     1       7.380   5.394  23.818  0.00  0.00    -0.491 OA
ENDBRANCH  12  19
BRANCH  13  20
ATOM     20  O   UNL     1       9.920   6.682  24.336  0.00  0.00    -0.488 OA
ATOM     21  C   UNL     1       9.938   6.996  25.718  0.00  0.00    +0.277 C 
ENDBRANCH  13  20
BRANCH  14  22
ATOM     22  O   UNL     1      12.286   5.117  23.832  0.00  0.00    -0.491 OA
ATOM     23  C   UNL     1      13.089   5.345  22.684  0.00  0.00    +0.277 C 
ENDBRANCH  14  22
ENDBRANCH   1  16
BRANCH  10  24
ATOM     24  C   UNL     1       7.165  -0.836  26.731  0.00  0.00    +0.139 A 
ATOM     25  N   UNL     1       7.791   0.081  27.519  0.00  0.00    -0.238 NA
ATOM     26  C   UNL     1       7.029   0.863  28.315  0.00  0.00    +0.113 A 
ATOM     27  C   UNL     1       5.650   0.789  28.370  0.00  0.00    +0.020 A 
ATOM     28  C   UNL     1       5.019  -0.159  27.578  0.00  0.00    +0.005 A 
ATOM     29  C   UNL     1       5.782  -0.993  26.757  0.00  0.00    +0.047 A 
ENDBRANCH  10  24
TORSDOF 5
ENDMDL
MODEL 8
REMARK VINA RESULT:      -6.0      4.572      7.830
REMARK  Name = 
REMARK  8 active torsions:
REMARK  status: ('A' for Active; 'I' for Inactive)
REMARK    1  A    between atoms: C_1  and  O_2
REMARK    2  A    between atoms: O_2  and  C_3
REMARK    3  A    between atoms: C_5  and  N_6
REMARK    4  A    between atoms: N_13  and  C_16
REMARK    5  A    between atoms: C_23  and  O_24
REMARK    6  A    between atoms: O_24  and  C_25
REMARK    7  A    between atoms: C_26  and  O_27
REMARK    8  A    between atoms: O_27  and  C_28
REMARK                            x       y       z     vdW  Elec       q    Type
REMARK                         _______ _______ _______ _____ _____    ______ ____
ROOT
ATOM      1  N   UNL     1       9.783   1.303  22.374  0.00  0.00    -0.283 N 
ATOM      2  H   UNL     1      10.322   1.158  21.530  0.00  0.00    +0.155 HD
ATOM      3  C   UNL     1       9.612   0.069  23.010  0.00  0.00    +0.221 A 
ATOM      4  N   UNL     1       8.849  -0.034  24.107  0.00  0.00    -0.196 NA
ATOM      5  C   UNL     1       8.770  -1.270  24.633  0.00  0.00    +0.151 A 
ATOM      6  C   UNL     1       9.427  -2.385  24.126  0.00  0.00    +0.037 A 
ATOM      7  C   UNL     1       9.125  -3.485  24.959  0.00  0.00    +0.031 A 
ATOM      8  C   UNL     1       8.284  -3.022  25.944  0.00  0.00    +0.095 A 
ATOM      9  C   UNL     1      10.193  -2.184  22.985  0.00  0.00    +0.126 A 
ATOM     10  N   UNL     1       8.061  -1.661  25.767  0.00  0.00    -0.285 N 
ATOM     11  N   UNL     1      10.257  -0.956  22.426  0.00  0.00    -0.222 NA
ENDROOT
BRANCH   1  16
ATOM     12  C   UNL     1      10.922   4.629  23.685  0.00  0.00    +0.167 A 
ATOM     13  C   UNL     1       9.692   5.226  24.033  0.00  0.00    +0.204 A 
ATOM     14  C   UNL     1       8.506   4.498  23.793  0.00  0.00    +0.167 A 
ATOM     15  C   UNL     1       8.571   3.206  23.237  0.00  0.00    +0.073 A 
ATOM     16  C   UNL     1       9.781   2.612  22.878  0.00  0.00    +0.041 A 
ATOM     17  C   UNL     1      10.943   3.340  23.126  0.00  0.00    +0.073 A 
BRANCH  12  19
ATOM     18  C   UNL     1      13.117   5.233  22.985  0.00  0.00    +0.277 C 
ATOM     19  O   UNL     1      12.100   5.271  23.984  0.00  0.00    -0.491 OA
ENDBRANCH  12  19
BRANCH  13  20
ATOM     20  O   UNL     1       9.535   6.466  24.592  0.00  0.00    -0.488 OA
ATOM     21  C   UNL     1       9.616   6.646  25.996  0.00  0.00    +0.277 C 
ENDBRANCH  13  20
BRANCH  14  22
ATOM     22  O   UNL     1       7.203   4.865  24.038  0.00  0.00    -0.491 OA
ATOM     23  C   UNL     1       6.293   4.987  22.957  0.00  0.00    +0.277 C 
ENDBRANCH  14  22
ENDBRANCH   1  16
BRANCH  10  24
ATOM     24  C   UNL     1       7.259  -0.875  26.661  0.00  0.00    +0.139 A 
ATOM     25  N   UNL     1       7.923  -0.017  27.485  0.00  0.00    -0.238 NA
ATOM     26  C   UNL     1       7.193   0.771  28.304  0.00  0.00    +0.113 A 
ATOM     27  C   UNL     1       5.812   0.762  28.348  0.00  0.00    +0.020 A 
ATOM     28  C   UNL     1       5.142  -0.127  27.519  0.00  0.00    +0.005 A 
ATOM     29  C   UNL     1       5.870  -0.966  26.673  0.00  0.00    +0.047 A 
ENDBRANCH  10  24
TORSDOF 5
ENDMDL
MODEL 9
REMARK VINA RESULT:      -6.0      3.643      7.742
REMARK  Name = 
REMARK  8 active torsions:
REMARK  status: ('A' for Active; 'I' for Inactive)
REMARK    1  A    between atoms: C_1  and  O_2
REMARK    2  A    between atoms: O_2  and  C_3
REMARK    3  A    between atoms: C_5  and  N_6
REMARK    4  A    between atoms: N_13  and  C_16
REMARK    5  A    between atoms: C_23  and  O_24
REMARK    6  A    between atoms: O_24  and  C_25
REMARK    7  A    between atoms: C_26  and  O_27
REMARK    8  A    between atoms: O_27  and  C_28
REMARK                            x       y       z     vdW  Elec       q    Type
REMARK                         _______ _______ _______ _____ _____    ______ ____
ROOT
ATOM      1  N   UNL     1       6.213  -0.686  26.728  0.00  0.00    -0.283 N 
ATOM      2  H   UNL     1       5.981  -0.145  27.551  0.00  0.00    +0.155 HD
ATOM      3  C   UNL     1       5.125  -1.505  26.415  0.00  0.00    +0.221 A 
ATOM      4  N   UNL     1       5.207  -2.398  25.418  0.00  0.00    -0.196 NA
ATOM      5  C   UNL     1       4.092  -3.121  25.207  0.00  0.00    +0.151 A 
ATOM      6  C   UNL     1       2.911  -2.977  25.926  0.00  0.00    +0.037 A 
ATOM      7  C   UNL     1       1.965  -3.882  25.396  0.00  0.00    +0.031 A 
ATOM      8  C   UNL     1       2.589  -4.565  24.378  0.00  0.00    +0.095 A 
ATOM      9  C   UNL     1       2.919  -2.029  26.941  0.00  0.00    +0.126 A 
ATOM     10  N   UNL     1       3.895  -4.105  24.239  0.00  0.00    -0.285 N 
ATOM     11  N   UNL     1       4.041  -1.318  27.188  0.00  0.00    -0.222 NA
ENDROOT
BRANCH   1  16
ATOM     12  C   UNL     1       9.246  -0.424  24.535  0.00  0.00    +0.167 A 
ATOM     13  C   UNL     1       9.392   0.975  24.428  0.00  0.00    +0.204 A 
ATOM     14  C   UNL     1       8.444   1.795  25.081  0.00  0.00    +0.167 A 
ATOM     15  C   UNL     1       7.402   1.214  25.828  0.00  0.00    +0.073 A 
ATOM     16  C   UNL     1       7.243  -0.168  25.929  0.00  0.00    +0.041 A 
ATOM     17  C   UNL     1       8.188  -0.965  25.284  0.00  0.00    +0.073 A 
BRANCH  12  19
ATOM     18  C   UNL     1       9.902  -1.799  22.703  0.00  0.00    +0.277 C 
ATOM     19  O   UNL     1      10.197  -1.252  23.987  0.00  0.00    -0.491 OA
ENDBRANCH  12  19
BRANCH  13  20
ATOM     20  O   UNL     1      10.380   1.626  23.741  0.00  0.00    -0.488 OA
ATOM     21  C   UNL     1      10.233   1.923  22.363  0.00  0.00    +0.277 C 
ENDBRANCH  13  20
BRANCH  14  22
ATOM     22  O   UNL     1       8.372   3.168  25.117  0.00  0.00    -0.491 OA
ATOM     23  C   UNL     1       7.510   3.802  26.049  0.00  0.00    +0.277 C 
ENDBRANCH  14  22
ENDBRANCH   1  16
BRANCH  10  24
ATOM     24  C   UNL     1       4.793  -4.590  23.231  0.00  0.00    +0.139 A 
ATOM     25  N   UNL     1       5.139  -3.714  22.247  0.00  0.00    -0.238 NA
ATOM     26  C   UNL     1       6.021  -4.126  21.310  0.00  0.00    +0.113 A 
ATOM     27  C   UNL     1       6.598  -5.382  21.298  0.00  0.00    +0.020 A 
ATOM     28  C   UNL     1       6.228  -6.276  22.293  0.00  0.00    +0.005 A 
ATOM     29  C   UNL     1       5.305  -5.884  23.266  0.00  0.00    +0.047 A 
ENDBRANCH  10  24
TORSDOF 5
ENDMDL
