MODEL 1
REMARK VINA RESULT:      -6.8      0.000      0.000
REMARK  Name = 
REMARK  8 active torsions:
REMARK  status: ('A' for Active; 'I' for Inactive)
REMARK    1  A    between atoms: C_2  and  C_3
REMARK    2  A    between atoms: C_2  and  O_4
REMARK    3  A    between atoms: C_2  and  C_5
REMARK    4  A    between atoms: C_5  and  C_7
REMARK    5  A    between atoms: C_5  and  N_19
REMARK    6  A    between atoms: C_7  and  C_8
REMARK    7  A    between atoms: C_8  and  C_9
REMARK    8  A    between atoms: C_22  and  C_24
REMARK                            x       y       z     vdW  Elec       q    Type
REMARK                         _______ _______ _______ _____ _____    ______ ____
ROOT
ATOM      1  C   UNL     1       8.477  -1.187  23.227  0.00  0.00    +0.117 C 
ENDROOT
BRANCH   1   2
ATOM      2  N   UNL     1       8.067  -2.585  23.077  0.00  0.00    -0.331 N 
ATOM      3  C   UNL     1       7.217  -3.069  22.120  0.00  0.00    +0.120 A 
ATOM      4  C   UNL     1       7.102  -4.422  22.371  0.00  0.00    +0.143 A 
ATOM      5  N   UNL     1       7.893  -4.767  23.458  0.00  0.00    -0.231 NA
ATOM      6  C   UNL     1       8.460  -3.644  23.849  0.00  0.00    +0.200 A 
BRANCH   4   7
ATOM      7  C   UNL     1       6.277  -5.378  21.637  0.00  0.00    +0.261 C 
ATOM      8  O   UNL     1       5.961  -5.258  20.459  0.00  0.00    -0.269 OA
ATOM      9  N   UNL     1       5.859  -6.436  22.392  0.00  0.00    -0.324 N 
ATOM     10  H   UNL     1       5.255  -7.131  21.987  0.00  0.00    +0.145 HD
ATOM     11  H   UNL     1       6.122  -6.475  23.372  0.00  0.00    +0.145 HD
ENDBRANCH   4   7
ENDBRANCH   1   2
BRANCH   1  12
ATOM     12  C   UNL     1       8.905  -0.888  24.692  0.00  0.00    +0.134 C 
ATOM     13  C   UNL     1       8.116   0.258  25.319  0.00  0.00    +0.040 C 
BRANCH  12  14
ATOM     14  O   UNL     1      10.291  -0.539  24.751  0.00  0.00    -0.390 OA
ATOM     15  H   UNL     1      10.432  -0.019  25.561  0.00  0.00    +0.210 HD
ENDBRANCH  12  14
ENDBRANCH   1  12
BRANCH   1  16
ATOM     16  C   UNL     1       9.548  -0.778  22.195  0.00  0.00    +0.032 C 
BRANCH  16  17
ATOM     17  C   UNL     1       9.166   0.452  21.364  0.00  0.00    +0.038 C 
BRANCH  17  18
ATOM     18  C   UNL     1       9.293   1.722  22.186  0.00  0.00    -0.040 A 
ATOM     19  C   UNL     1       8.179   2.557  22.485  0.00  0.00    -0.015 A 
ATOM     20  C   UNL     1       6.855   2.293  22.057  0.00  0.00    +0.009 A 
ATOM     21  C   UNL     1       5.797   3.152  22.364  0.00  0.00    +0.001 A 
ATOM     22  C   UNL     1       6.028   4.295  23.117  0.00  0.00    +0.001 A 
ATOM     23  C   UNL     1       7.318   4.579  23.560  0.00  0.00    +0.008 A 
ATOM     24  C   UNL     1       8.394   3.731  23.251  0.00  0.00    -0.018 A 
ATOM     25  C   UNL     1       9.686   4.051  23.695  0.00  0.00    +0.008 A 
ATOM     26  C   UNL     1      10.772   3.243  23.375  0.00  0.00    +0.001 A 
ATOM     27  C   UNL     1      10.578   2.090  22.623  0.00  0.00    +0.004 A 
ENDBRANCH  17  18
ENDBRANCH  16  17
ENDBRANCH   1  16
TORSDOF 7
ENDMDL
MODEL 2
REMARK VINA RESULT:      -6.7      1.876      3.081
REMARK  Name = 
REMARK  8 active torsions:
REMARK  status: ('A' for Active; 'I' for Inactive)
REMARK    1  A    between atoms: C_2  and  C_3
REMARK    2  A    between atoms: C_2  and  O_4
REMARK    3  A    between atoms: C_2  and  C_5
REMARK    4  A    between atoms: C_5  and  C_7
REMARK    5  A    between atoms: C_5  and  N_19
REMARK    6  A    between atoms: C_7  and  C_8
REMARK    7  A    between atoms: C_8  and  C_9
REMARK    8  A    between atoms: C_22  and  C_24
REMARK                            x       y       z     vdW  Elec       q    Type
REMARK                         _______ _______ _______ _____ _____    ______ ____
ROOT
ATOM      1  C   UNL     1       8.866  -0.666  23.906  0.00  0.00    +0.117 C 
ENDROOT
BRANCH   1   2
ATOM      2  N   UNL     1       8.707  -2.119  24.004  0.00  0.00    -0.331 N 
ATOM      3  C   UNL     1       8.836  -2.861  25.147  0.00  0.00    +0.120 A 
ATOM      4  C   UNL     1       8.625  -4.172  24.767  0.00  0.00    +0.143 A 
ATOM      5  N   UNL     1       8.345  -4.229  23.409  0.00  0.00    -0.231 NA
ATOM      6  C   UNL     1       8.396  -2.982  22.988  0.00  0.00    +0.200 A 
BRANCH   4   7
ATOM      7  C   UNL     1       8.687  -5.350  25.629  0.00  0.00    +0.261 C 
ATOM      8  O   UNL     1       7.774  -5.726  26.354  0.00  0.00    -0.269 OA
ATOM      9  N   UNL     1       9.883  -6.007  25.575  0.00  0.00    -0.324 N 
ATOM     10  H   UNL     1      10.038  -6.811  26.160  0.00  0.00    +0.145 HD
ATOM     11  H   UNL     1      10.620  -5.639  24.981  0.00  0.00    +0.145 HD
ENDBRANCH   4   7
ENDBRANCH   1   2
BRANCH   1  12
ATOM     12  C   UNL     1       9.057  -0.034  25.314  0.00  0.00    +0.134 C 
ATOM     13  C   UNL     1       8.000   1.019  25.639  0.00  0.00    +0.040 C 
BRANCH  12  14
ATOM     14  O   UNL     1      10.337   0.596  25.414  0.00  0.00    -0.390 OA
ATOM     15  H   UNL     1      10.800   0.464  24.568  0.00  0.00    +0.210 HD
ENDBRANCH  12  14
ENDBRANCH   1  12
BRANCH   1  16
ATOM     16  C   UNL     1       9.979  -0.266  22.914  0.00  0.00    +0.032 C 
BRANCH  16  17
ATOM     17  C   UNL     1       9.469   0.518  21.700  0.00  0.00    +0.038 C 
BRANCH  17  18
ATOM     18  C   UNL     1       8.685   1.742  22.136  0.00  0.00    -0.040 A 
ATOM     19  C   UNL     1       9.305   2.882  22.721  0.00  0.00    -0.015 A 
ATOM     20  C   UNL     1      10.697   2.995  22.952  0.00  0.00    +0.009 A 
ATOM     21  C   UNL     1      11.255   4.130  23.544  0.00  0.00    +0.001 A 
ATOM     22  C   UNL     1      10.441   5.191  23.913  0.00  0.00    +0.001 A 
ATOM     23  C   UNL     1       9.068   5.115  23.692  0.00  0.00    +0.008 A 
ATOM     24  C   UNL     1       8.489   3.977  23.108  0.00  0.00    -0.018 A 
ATOM     25  C   UNL     1       7.101   3.919  22.914  0.00  0.00    +0.008 A 
ATOM     26  C   UNL     1       6.502   2.790  22.366  0.00  0.00    +0.001 A 
ATOM     27  C   UNL     1       7.287   1.708  21.984  0.00  0.00    +0.004 A 
ENDBRANCH  17  18
ENDBRANCH  16  17
ENDBRANCH   1  16
TORSDOF 7
ENDMDL
MODEL 3
REMARK VINA RESULT:      -6.7      1.791      2.204
REMARK  Name = 
REMARK  8 active torsions:
REMARK  status: ('A' for Active; 'I' for Inactive)
REMARK    1  A    between atoms: C_2  and  C_3
REMARK    2  A    between atoms: C_2  and  O_4
REMARK    3  A    between atoms: C_2  and  C_5
REMARK    4  A    between atoms: C_5  and  C_7
REMARK    5  A    between atoms: C_5  and  N_19
REMARK    6  A    between atoms: C_7  and  C_8
REMARK    7  A    between atoms: C_8  and  C_9
REMARK    8  A    between atoms: C_22  and  C_24
REMARK                            x       y       z     vdW  Elec       q    Type
REMARK                         _______ _______ _______ _____ _____    ______ ____
ROOT
ATOM      1  C   UNL     1       8.891  -0.541  23.953  0.00  0.00    +0.117 C 
ENDROOT
BRANCH   1   2
ATOM      2  N   UNL     1       8.632  -1.982  24.022  0.00  0.00    -0.331 N 
ATOM      3  C   UNL     1       8.929  -2.795  25.081  0.00  0.00    +0.120 A 
ATOM      4  C   UNL     1       8.535  -4.063  24.701  0.00  0.00    +0.143 A 
ATOM      5  N   UNL     1       7.980  -4.021  23.429  0.00  0.00    -0.231 NA
ATOM      6  C   UNL     1       8.049  -2.759  23.059  0.00  0.00    +0.200 A 
BRANCH   4   7
ATOM      7  C   UNL     1       8.673  -5.290  25.482  0.00  0.00    +0.261 C 
ATOM      8  O   UNL     1       7.751  -5.842  26.072  0.00  0.00    -0.269 OA
ATOM      9  N   UNL     1       9.948  -5.777  25.519  0.00  0.00    -0.324 N 
ATOM     10  H   UNL     1      10.153  -6.599  26.062  0.00  0.00    +0.145 HD
ATOM     11  H   UNL     1      10.683  -5.268  25.038  0.00  0.00    +0.145 HD
ENDBRANCH   4   7
ENDBRANCH   1   2
BRANCH   1  12
ATOM     12  C   UNL     1       9.065   0.060  25.376  0.00  0.00    +0.134 C 
ATOM     13  C   UNL     1       8.105   1.214  25.654  0.00  0.00    +0.040 C 
BRANCH  12  14
ATOM     14  O   UNL     1      10.395   0.554  25.555  0.00  0.00    -0.390 OA
ATOM     15  H   UNL     1      11.013  -0.146  25.277  0.00  0.00    +0.210 HD
ENDBRANCH  12  14
ENDBRANCH   1  12
BRANCH   1  16
ATOM     16  C   UNL     1      10.066  -0.203  23.012  0.00  0.00    +0.032 C 
BRANCH  16  17
ATOM     17  C   UNL     1       9.720   0.837  21.941  0.00  0.00    +0.038 C 
BRANCH  17  18
ATOM     18  C   UNL     1       9.588   2.220  22.552  0.00  0.00    -0.040 A 
ATOM     19  C   UNL     1       8.347   2.914  22.618  0.00  0.00    -0.015 A 
ATOM     20  C   UNL     1       7.123   2.395  22.132  0.00  0.00    +0.009 A 
ATOM     21  C   UNL     1       5.933   3.123  22.208  0.00  0.00    +0.001 A 
ATOM     22  C   UNL     1       5.928   4.387  22.779  0.00  0.00    +0.001 A 
ATOM     23  C   UNL     1       7.115   4.924  23.274  0.00  0.00    +0.008 A 
ATOM     24  C   UNL     1       8.321   4.209  23.197  0.00  0.00    -0.018 A 
ATOM     25  C   UNL     1       9.505   4.781  23.686  0.00  0.00    +0.008 A 
ATOM     26  C   UNL     1      10.717   4.106  23.592  0.00  0.00    +0.001 A 
ATOM     27  C   UNL     1      10.760   2.837  23.026  0.00  0.00    +0.004 A 
ENDBRANCH  17  18
ENDBRANCH  16  17
ENDBRANCH   1  16
TORSDOF 7
ENDMDL
MODEL 4
REMARK VINA RESULT:      -6.7      3.046      4.948
REMARK  Name = 
REMARK  8 active torsions:
REMARK  status: ('A' for Active; 'I' for Inactive)
REMARK    1  A    between atoms: C_2  and  C_3
REMARK    2  A    between atoms: C_2  and  O_4
REMARK    3  A    between atoms: C_2  and  C_5
REMARK    4  A    between atoms: C_5  and  C_7
REMARK    5  A    between atoms: C_5  and  N_19
REMARK    6  A    between atoms: C_7  and  C_8
REMARK    7  A    between atoms: C_8  and  C_9
REMARK    8  A    between atoms: C_22  and  C_24
REMARK                            x       y       z     vdW  Elec       q    Type
REMARK                         _______ _______ _______ _____ _____    ______ ____
ROOT
ATOM      1  C   UNL     1       6.710  -4.696  23.519  0.00  0.00    +0.117 C 
ENDROOT
BRANCH   1   2
ATOM      2  N   UNL     1       6.577  -5.237  24.874  0.00  0.00    -0.331 N 
ATOM      3  C   UNL     1       5.440  -5.782  25.406  0.00  0.00    +0.120 A 
ATOM      4  C   UNL     1       5.766  -6.134  26.701  0.00  0.00    +0.143 A 
ATOM      5  N   UNL     1       7.097  -5.829  26.950  0.00  0.00    -0.231 NA
ATOM      6  C   UNL     1       7.550  -5.300  25.833  0.00  0.00    +0.200 A 
BRANCH   4   7
ATOM      7  C   UNL     1       4.874  -6.730  27.693  0.00  0.00    +0.261 C 
ATOM      8  O   UNL     1       3.669  -6.519  27.755  0.00  0.00    -0.269 OA
ATOM      9  N   UNL     1       5.510  -7.550  28.581  0.00  0.00    -0.324 N 
ATOM     10  H   UNL     1       4.988  -7.980  29.326  0.00  0.00    +0.145 HD
ATOM     11  H   UNL     1       6.515  -7.670  28.506  0.00  0.00    +0.145 HD
ENDBRANCH   4   7
ENDBRANCH   1   2
BRANCH   1  12
ATOM     12  C   UNL     1       5.763  -5.434  22.531  0.00  0.00    +0.134 C 
ATOM     13  C   UNL     1       6.446  -5.802  21.217  0.00  0.00    +0.040 C 
BRANCH  12  14
ATOM     14  O   UNL     1       4.632  -4.619  22.214  0.00  0.00    -0.390 OA
ATOM     15  H   UNL     1       4.930  -3.917  21.609  0.00  0.00    +0.210 HD
ENDBRANCH  12  14
ENDBRANCH   1  12
BRANCH   1  16
ATOM     16  C   UNL     1       6.538  -3.163  23.482  0.00  0.00    +0.032 C 
BRANCH  16  17
ATOM     17  C   UNL     1       7.714  -2.426  22.833  0.00  0.00    +0.038 C 
BRANCH  17  18
ATOM     18  C   UNL     1       8.355  -1.459  23.811  0.00  0.00    -0.040 A 
ATOM     19  C   UNL     1       8.983  -0.251  23.397  0.00  0.00    -0.015 A 
ATOM     20  C   UNL     1       9.072   0.172  22.048  0.00  0.00    +0.009 A 
ATOM     21  C   UNL     1       9.712   1.361  21.691  0.00  0.00    +0.001 A 
ATOM     22  C   UNL     1      10.274   2.168  22.670  0.00  0.00    +0.001 A 
ATOM     23  C   UNL     1      10.197   1.784  24.007  0.00  0.00    +0.008 A 
ATOM     24  C   UNL     1       9.566   0.587  24.382  0.00  0.00    -0.018 A 
ATOM     25  C   UNL     1       9.519   0.215  25.734  0.00  0.00    +0.008 A 
ATOM     26  C   UNL     1       8.927  -0.981  26.126  0.00  0.00    +0.001 A 
ATOM     27  C   UNL     1       8.353  -1.814  25.173  0.00  0.00    +0.004 A 
ENDBRANCH  17  18
ENDBRANCH  16  17
ENDBRANCH   1  16
TORSDOF 7
ENDMDL
MODEL 5
REMARK VINA RESULT:      -6.6      3.273      7.919
REMARK  Name = 
REMARK  8 active torsions:
REMARK  status: ('A' for Active; 'I' for Inactive)
REMARK    1  A    between atoms: C_2  and  C_3
REMARK    2  A    between atoms: C_2  and  O_4
REMARK    3  A    between atoms: C_2  and  C_5
REMARK    4  A    between atoms: C_5  and  C_7
REMARK    5  A    between atoms: C_5  and  N_19
REMARK    6  A    between atoms: C_7  and  C_8
REMARK    7  A    between atoms: C_8  and  C_9
REMARK    8  A    between atoms: C_22  and  C_24
REMARK                            x       y       z     vdW  Elec       q    Type
REMARK                         _______ _______ _______ _____ _____    ______ ____
ROOT
ATOM      1  C   UNL     1       7.814  -1.867  24.301  0.00  0.00    +0.117 C 
ENDROOT
BRANCH   1   2
ATOM      2  N   UNL     1       8.722  -0.718  24.282  0.00  0.00    -0.331 N 
ATOM      3  C   UNL     1       8.820   0.205  23.276  0.00  0.00    +0.120 A 
ATOM      4  C   UNL     1       9.809   1.084  23.670  0.00  0.00    +0.143 A 
ATOM      5  N   UNL     1      10.295   0.716  24.917  0.00  0.00    -0.231 NA
ATOM      6  C   UNL     1       9.617  -0.361  25.253  0.00  0.00    +0.200 A 
BRANCH   4   7
ATOM      7  C   UNL     1      10.306   2.233  22.916  0.00  0.00    +0.261 C 
ATOM      8  O   UNL     1      10.983   3.135  23.395  0.00  0.00    -0.269 OA
ATOM      9  N   UNL     1       9.931   2.231  21.603  0.00  0.00    -0.324 N 
ATOM     10  H   UNL     1      10.193   2.999  21.008  0.00  0.00    +0.145 HD
ATOM     11  H   UNL     1       9.345   1.476  21.260  0.00  0.00    +0.145 HD
ENDBRANCH   4   7
ENDBRANCH   1   2
BRANCH   1  12
ATOM     12  C   UNL     1       6.361  -1.431  23.955  0.00  0.00    +0.134 C 
ATOM     13  C   UNL     1       5.330  -1.966  24.945  0.00  0.00    +0.040 C 
BRANCH  12  14
ATOM     14  O   UNL     1       5.992  -1.897  22.655  0.00  0.00    -0.390 OA
ATOM     15  H   UNL     1       6.625  -1.527  22.015  0.00  0.00    +0.210 HD
ENDBRANCH  12  14
ENDBRANCH   1  12
BRANCH   1  16
ATOM     16  C   UNL     1       8.318  -3.025  23.415  0.00  0.00    +0.032 C 
BRANCH  16  17
ATOM     17  C   UNL     1       8.471  -4.353  24.165  0.00  0.00    +0.038 C 
BRANCH  17  18
ATOM     18  C   UNL     1       7.143  -5.082  24.253  0.00  0.00    -0.040 A 
ATOM     19  C   UNL     1       6.567  -5.481  25.493  0.00  0.00    -0.015 A 
ATOM     20  C   UNL     1       7.161  -5.239  26.755  0.00  0.00    +0.009 A 
ATOM     21  C   UNL     1       6.561  -5.664  27.944  0.00  0.00    +0.001 A 
ATOM     22  C   UNL     1       5.346  -6.333  27.907  0.00  0.00    +0.001 A 
ATOM     23  C   UNL     1       4.732  -6.579  26.681  0.00  0.00    +0.008 A 
ATOM     24  C   UNL     1       5.326  -6.168  25.477  0.00  0.00    -0.018 A 
ATOM     25  C   UNL     1       4.694  -6.445  24.256  0.00  0.00    +0.008 A 
ATOM     26  C   UNL     1       5.279  -6.075  23.048  0.00  0.00    +0.001 A 
ATOM     27  C   UNL     1       6.495  -5.403  23.046  0.00  0.00    +0.004 A 
ENDBRANCH  17  18
ENDBRANCH  16  17
ENDBRANCH   1  16
TORSDOF 7
ENDMDL
MODEL 6
REMARK VINA RESULT:      -6.6      3.147      5.006
REMARK  Name = 
REMARK  8 active torsions:
REMARK  status: ('A' for Active; 'I' for Inactive)
REMARK    1  A    between atoms: C_2  and  C_3
REMARK    2  A    between atoms: C_2  and  O_4
REMARK    3  A    between atoms: C_2  and  C_5
REMARK    4  A    between atoms: C_5  and  C_7
REMARK    5  A    between atoms: C_5  and  N_19
REMARK    6  A    between atoms: C_7  and  C_8
REMARK    7  A    between atoms: C_8  and  C_9
REMARK    8  A    between atoms: C_22  and  C_24
REMARK                            x       y       z     vdW  Elec       q    Type
REMARK                         _______ _______ _______ _____ _____    ______ ____
ROOT
ATOM      1  C   UNL     1       6.624  -4.468  23.966  0.00  0.00    +0.117 C 
ENDROOT
BRANCH   1   2
ATOM      2  N   UNL     1       6.880  -4.971  25.319  0.00  0.00    -0.331 N 
ATOM      3  C   UNL     1       5.925  -5.357  26.219  0.00  0.00    +0.120 A 
ATOM      4  C   UNL     1       6.614  -5.733  27.356  0.00  0.00    +0.143 A 
ATOM      5  N   UNL     1       7.979  -5.600  27.143  0.00  0.00    -0.231 NA
ATOM      6  C   UNL     1       8.099  -5.149  25.912  0.00  0.00    +0.200 A 
BRANCH   4   7
ATOM      7  C   UNL     1       6.033  -6.195  28.614  0.00  0.00    +0.261 C 
ATOM      8  O   UNL     1       6.101  -5.584  29.674  0.00  0.00    -0.269 OA
ATOM      9  N   UNL     1       5.406  -7.405  28.518  0.00  0.00    -0.324 N 
ATOM     10  H   UNL     1       5.005  -7.826  29.339  0.00  0.00    +0.145 HD
ATOM     11  H   UNL     1       5.402  -7.886  27.624  0.00  0.00    +0.145 HD
ENDBRANCH   4   7
ENDBRANCH   1   2
BRANCH   1  12
ATOM     12  C   UNL     1       5.749  -5.468  23.159  0.00  0.00    +0.134 C 
ATOM     13  C   UNL     1       6.495  -6.095  21.984  0.00  0.00    +0.040 C 
BRANCH  12  14
ATOM     14  O   UNL     1       4.591  -4.814  22.634  0.00  0.00    -0.390 OA
ATOM     15  H   UNL     1       4.142  -5.438  22.037  0.00  0.00    +0.210 HD
ENDBRANCH  12  14
ENDBRANCH   1  12
BRANCH   1  16
ATOM     16  C   UNL     1       6.046  -3.037  23.974  0.00  0.00    +0.032 C 
BRANCH  16  17
ATOM     17  C   UNL     1       6.924  -2.022  24.714  0.00  0.00    +0.038 C 
BRANCH  17  18
ATOM     18  C   UNL     1       8.021  -1.494  23.809  0.00  0.00    -0.040 A 
ATOM     19  C   UNL     1       7.909  -0.262  23.104  0.00  0.00    -0.015 A 
ATOM     20  C   UNL     1       6.780   0.589  23.174  0.00  0.00    +0.009 A 
ATOM     21  C   UNL     1       6.712   1.782  22.451  0.00  0.00    +0.001 A 
ATOM     22  C   UNL     1       7.773   2.165  21.643  0.00  0.00    +0.001 A 
ATOM     23  C   UNL     1       8.902   1.354  21.558  0.00  0.00    +0.008 A 
ATOM     24  C   UNL     1       8.982   0.146  22.271  0.00  0.00    -0.018 A 
ATOM     25  C   UNL     1      10.123  -0.661  22.153  0.00  0.00    +0.008 A 
ATOM     26  C   UNL     1      10.212  -1.876  22.825  0.00  0.00    +0.001 A 
ATOM     27  C   UNL     1       9.168  -2.292  23.643  0.00  0.00    +0.004 A 
ENDBRANCH  17  18
ENDBRANCH  16  17
ENDBRANCH   1  16
TORSDOF 7
ENDMDL
MODEL 7
REMARK VINA RESULT:      -6.4      2.787      3.639
REMARK  Name = 
REMARK  8 active torsions:
REMARK  status: ('A' for Active; 'I' for Inactive)
REMARK    1  A    between atoms: C_2  and  C_3
REMARK    2  A    between atoms: C_2  and  O_4
REMARK    3  A    between atoms: C_2  and  C_5
REMARK    4  A    between atoms: C_5  and  C_7
REMARK    5  A    between atoms: C_5  and  N_19
REMARK    6  A    between atoms: C_7  and  C_8
REMARK    7  A    between atoms: C_8  and  C_9
REMARK    8  A    between atoms: C_22  and  C_24
REMARK                            x       y       z     vdW  Elec       q    Type
REMARK                         _______ _______ _______ _____ _____    ______ ____
ROOT
ATOM      1  C   UNL     1      10.153  -0.941  23.745  0.00  0.00    +0.117 C 
ENDROOT
BRANCH   1   2
ATOM      2  N   UNL     1       9.523  -1.939  24.614  0.00  0.00    -0.331 N 
ATOM      3  C   UNL     1       9.639  -3.296  24.484  0.00  0.00    +0.120 A 
ATOM      4  C   UNL     1       8.869  -3.835  25.496  0.00  0.00    +0.143 A 
ATOM      5  N   UNL     1       8.307  -2.816  26.253  0.00  0.00    -0.231 NA
ATOM      6  C   UNL     1       8.726  -1.697  25.699  0.00  0.00    +0.200 A 
BRANCH   4   7
ATOM      7  C   UNL     1       8.645  -5.255  25.760  0.00  0.00    +0.261 C 
ATOM      8  O   UNL     1       7.584  -5.727  26.150  0.00  0.00    -0.269 OA
ATOM      9  N   UNL     1       9.747  -6.033  25.547  0.00  0.00    -0.324 N 
ATOM     10  H   UNL     1       9.704  -7.020  25.735  0.00  0.00    +0.145 HD
ATOM     11  H   UNL     1      10.611  -5.590  25.251  0.00  0.00    +0.145 HD
ENDBRANCH   4   7
ENDBRANCH   1   2
BRANCH   1  12
ATOM     12  C   UNL     1       9.334  -0.750  22.437  0.00  0.00    +0.134 C 
ATOM     13  C   UNL     1       7.842  -1.004  22.629  0.00  0.00    +0.040 C 
BRANCH  12  14
ATOM     14  O   UNL     1       9.795  -1.643  21.419  0.00  0.00    -0.390 OA
ATOM     15  H   UNL     1      10.480  -2.213  21.812  0.00  0.00    +0.210 HD
ENDBRANCH  12  14
ENDBRANCH   1  12
BRANCH   1  16
ATOM     16  C   UNL     1      10.424   0.387  24.482  0.00  0.00    +0.032 C 
BRANCH  16  17
ATOM     17  C   UNL     1      10.059   1.631  23.664  0.00  0.00    +0.038 C 
BRANCH  17  18
ATOM     18  C   UNL     1       9.166   2.562  24.464  0.00  0.00    -0.040 A 
ATOM     19  C   UNL     1       9.333   3.976  24.461  0.00  0.00    -0.015 A 
ATOM     20  C   UNL     1      10.332   4.653  23.721  0.00  0.00    +0.009 A 
ATOM     21  C   UNL     1      10.464   6.043  23.764  0.00  0.00    +0.001 A 
ATOM     22  C   UNL     1       9.596   6.799  24.538  0.00  0.00    +0.001 A 
ATOM     23  C   UNL     1       8.596   6.163  25.272  0.00  0.00    +0.008 A 
ATOM     24  C   UNL     1       8.457   4.766  25.248  0.00  0.00    -0.018 A 
ATOM     25  C   UNL     1       7.453   4.151  26.011  0.00  0.00    +0.008 A 
ATOM     26  C   UNL     1       7.315   2.767  26.028  0.00  0.00    +0.001 A 
ATOM     27  C   UNL     1       8.167   1.978  25.264  0.00  0.00    +0.004 A 
ENDBRANCH  17  18
ENDBRANCH  16  17
ENDBRANCH   1  16
TORSDOF 7
ENDMDL
MODEL 8
REMARK VINA RESULT:      -6.3      2.385      3.152
REMARK  Name = 
REMARK  8 active torsions:
REMARK  status: ('A' for Active; 'I' for Inactive)
REMARK    1  A    between atoms: C_2  and  C_3
REMARK    2  A    between atoms: C_2  and  O_4
REMARK    3  A    between atoms: C_2  and  C_5
REMARK    4  A    between atoms: C_5  and  C_7
REMARK    5  A    between atoms: C_5  and  N_19
REMARK    6  A    between atoms: C_7  and  C_8
REMARK    7  A    between atoms: C_8  and  C_9
REMARK    8  A    between atoms: C_22  and  C_24
REMARK                            x       y       z     vdW  Elec       q    Type
REMARK                         _______ _______ _______ _____ _____    ______ ____
ROOT
ATOM      1  C   UNL     1       8.682  -0.451  25.065  0.00  0.00    +0.117 C 
ENDROOT
BRANCH   1   2
ATOM      2  N   UNL     1       8.703  -1.906  24.902  0.00  0.00    -0.331 N 
ATOM      3  C   UNL     1       8.560  -2.823  25.907  0.00  0.00    +0.120 A 
ATOM      4  C   UNL     1       8.667  -4.061  25.302  0.00  0.00    +0.143 A 
ATOM      5  N   UNL     1       8.848  -3.901  23.935  0.00  0.00    -0.231 NA
ATOM      6  C   UNL     1       8.858  -2.600  23.733  0.00  0.00    +0.200 A 
BRANCH   4   7
ATOM      7  C   UNL     1       8.612  -5.362  25.964  0.00  0.00    +0.261 C 
ATOM      8  O   UNL     1       7.812  -5.658  26.843  0.00  0.00    -0.269 OA
ATOM      9  N   UNL     1       9.562  -6.241  25.525  0.00  0.00    -0.324 N 
ATOM     10  H   UNL     1       9.629  -7.153  25.945  0.00  0.00    +0.145 HD
ATOM     11  H   UNL     1      10.221  -5.938  24.815  0.00  0.00    +0.145 HD
ENDBRANCH   4   7
ENDBRANCH   1   2
BRANCH   1  12
ATOM     12  C   UNL     1       7.508  -0.013  25.986  0.00  0.00    +0.134 C 
ATOM     13  C   UNL     1       6.342   0.596  25.212  0.00  0.00    +0.040 C 
BRANCH  12  14
ATOM     14  O   UNL     1       7.949   0.961  26.936  0.00  0.00    -0.390 OA
ATOM     15  H   UNL     1       8.907   1.085  26.812  0.00  0.00    +0.210 HD
ENDBRANCH  12  14
ENDBRANCH   1  12
BRANCH   1  16
ATOM     16  C   UNL     1      10.045   0.105  25.527  0.00  0.00    +0.032 C 
BRANCH  16  17
ATOM     17  C   UNL     1      10.774   0.921  24.453  0.00  0.00    +0.038 C 
BRANCH  17  18
ATOM     18  C   UNL     1       9.817   1.352  23.357  0.00  0.00    -0.040 A 
ATOM     19  C   UNL     1       8.980   2.497  23.477  0.00  0.00    -0.015 A 
ATOM     20  C   UNL     1       8.954   3.343  24.612  0.00  0.00    +0.009 A 
ATOM     21  C   UNL     1       8.103   4.449  24.687  0.00  0.00    +0.001 A 
ATOM     22  C   UNL     1       7.259   4.747  23.627  0.00  0.00    +0.001 A 
ATOM     23  C   UNL     1       7.266   3.939  22.492  0.00  0.00    +0.008 A 
ATOM     24  C   UNL     1       8.108   2.819  22.405  0.00  0.00    -0.018 A 
ATOM     25  C   UNL     1       8.081   2.011  21.258  0.00  0.00    +0.008 A 
ATOM     26  C   UNL     1       8.884   0.879  21.162  0.00  0.00    +0.001 A 
ATOM     27  C   UNL     1       9.742   0.549  22.205  0.00  0.00    +0.004 A 
ENDBRANCH  17  18
ENDBRANCH  16  17
ENDBRANCH   1  16
TORSDOF 7
ENDMDL
MODEL 9
REMARK VINA RESULT:      -6.2      3.152      6.542
REMARK  Name = 
REMARK  8 active torsions:
REMARK  status: ('A' for Active; 'I' for Inactive)
REMARK    1  A    between atoms: C_2  and  C_3
REMARK    2  A    between atoms: C_2  and  O_4
REMARK    3  A    between atoms: C_2  and  C_5
REMARK    4  A    between atoms: C_5  and  C_7
REMARK    5  A    between atoms: C_5  and  N_19
REMARK    6  A    between atoms: C_7  and  C_8
REMARK    7  A    between atoms: C_8  and  C_9
REMARK    8  A    between atoms: C_22  and  C_24
REMARK                            x       y       z     vdW  Elec       q    Type
REMARK                         _______ _______ _______ _____ _____    ______ ____
ROOT
ATOM      1  C   UNL     1       8.529  -1.015  23.342  0.00  0.00    +0.117 C 
ENDROOT
BRANCH   1   2
ATOM      2  N   UNL     1       8.587  -1.936  24.480  0.00  0.00    -0.331 N 
ATOM      3  C   UNL     1       8.890  -3.269  24.413  0.00  0.00    +0.120 A 
ATOM      4  C   UNL     1       8.804  -3.737  25.709  0.00  0.00    +0.143 A 
ATOM      5  N   UNL     1       8.475  -2.695  26.565  0.00  0.00    -0.231 NA
ATOM      6  C   UNL     1       8.360  -1.633  25.795  0.00  0.00    +0.200 A 
BRANCH   4   7
ATOM      7  C   UNL     1       9.010  -5.114  26.154  0.00  0.00    +0.261 C 
ATOM      8  O   UNL     1       8.195  -5.761  26.801  0.00  0.00    -0.269 OA
ATOM      9  N   UNL     1      10.222  -5.630  25.797  0.00  0.00    -0.324 N 
ATOM     10  H   UNL     1      10.474  -6.560  26.088  0.00  0.00    +0.145 HD
ATOM     11  H   UNL     1      10.875  -5.044  25.287  0.00  0.00    +0.145 HD
ENDBRANCH   4   7
ENDBRANCH   1   2
BRANCH   1  12
ATOM     12  C   UNL     1       9.954  -0.729  22.788  0.00  0.00    +0.134 C 
ATOM     13  C   UNL     1      10.112   0.697  22.266  0.00  0.00    +0.040 C 
BRANCH  12  14
ATOM     14  O   UNL     1      10.263  -1.618  21.711  0.00  0.00    -0.390 OA
ATOM     15  H   UNL     1      10.866  -1.152  21.105  0.00  0.00    +0.210 HD
ENDBRANCH  12  14
ENDBRANCH   1  12
BRANCH   1  16
ATOM     16  C   UNL     1       7.547  -1.494  22.253  0.00  0.00    +0.032 C 
BRANCH  16  17
ATOM     17  C   UNL     1       6.170  -1.891  22.796  0.00  0.00    +0.038 C 
BRANCH  17  18
ATOM     18  C   UNL     1       5.968  -3.393  22.714  0.00  0.00    -0.040 A 
ATOM     19  C   UNL     1       5.514  -4.167  23.819  0.00  0.00    -0.015 A 
ATOM     20  C   UNL     1       5.204  -3.626  25.090  0.00  0.00    +0.009 A 
ATOM     21  C   UNL     1       4.775  -4.432  26.148  0.00  0.00    +0.001 A 
ATOM     22  C   UNL     1       4.634  -5.800  25.965  0.00  0.00    +0.001 A 
ATOM     23  C   UNL     1       4.923  -6.363  24.724  0.00  0.00    +0.008 A 
ATOM     24  C   UNL     1       5.365  -5.568  23.653  0.00  0.00    -0.018 A 
ATOM     25  C   UNL     1       5.668  -6.164  22.420  0.00  0.00    +0.008 A 
ATOM     26  C   UNL     1       6.137  -5.402  21.354  0.00  0.00    +0.001 A 
ATOM     27  C   UNL     1       6.290  -4.028  21.501  0.00  0.00    +0.004 A 
ENDBRANCH  17  18
ENDBRANCH  16  17
ENDBRANCH   1  16
TORSDOF 7
ENDMDL
