MODEL 1
REMARK VINA RESULT:      -7.0      0.000      0.000
REMARK  Name = 
REMARK  5 active torsions:
REMARK  status: ('A' for Active; 'I' for Inactive)
REMARK    1  A    between atoms: C_2  and  C_17
REMARK    2  A    between atoms: C_7  and  C_9
REMARK    3  A    between atoms: C_10  and  O_11
REMARK    4  A    between atoms: C_13  and  O_14
REMARK    5  A    between atoms: C_22  and  C_23
REMARK                            x       y       z     vdW  Elec       q    Type
REMARK                         _______ _______ _______ _____ _____    ______ ____
ROOT
ATOM      1  C   UNL     1       7.059  -3.585  24.841  0.00  0.00    +0.107 C 
ATOM      2  N   UNL     1       8.050  -2.538  24.513  0.00  0.00    -0.290 N 
ATOM      3  C   UNL     1       7.767  -1.572  23.540  0.00  0.00    +0.251 C 
ATOM      4  O   UNL     1       6.774  -1.650  22.812  0.00  0.00    -0.270 OA
ATOM      5  C   UNL     1       9.017  -2.419  25.596  0.00  0.00    +0.109 C 
ATOM      6  C   UNL     1       8.473  -3.256  26.735  0.00  0.00    +0.021 C 
ATOM      7  C   UNL     1       7.697  -4.343  26.014  0.00  0.00    +0.029 C 
ENDROOT
BRANCH   1   8
ATOM      8  C   UNL     1       6.637  -4.523  23.725  0.00  0.00    -0.024 A 
ATOM      9  C   UNL     1       5.269  -4.720  23.410  0.00  0.00    -0.046 A 
ATOM     10  C   UNL     1       4.157  -4.158  24.258  0.00  0.00    +0.044 C 
ATOM     11  C   UNL     1       4.922  -5.473  22.276  0.00  0.00    +0.004 A 
ATOM     12  C   UNL     1       5.902  -6.069  21.486  0.00  0.00    +0.000 A 
ATOM     13  C   UNL     1       7.240  -5.959  21.846  0.00  0.00    +0.000 A 
ATOM     14  C   UNL     1       7.603  -5.201  22.960  0.00  0.00    +0.006 A 
ENDBRANCH   1   8
BRANCH   3  15
ATOM     15  C   UNL     1       8.595  -0.332  23.378  0.00  0.00    +0.078 A 
ATOM     16  C   UNL     1       8.697   0.677  24.350  0.00  0.00    +0.020 A 
ATOM     17  C   UNL     1       9.304   1.905  24.059  0.00  0.00    +0.046 A 
ATOM     18  C   UNL     1       9.907   2.101  22.825  0.00  0.00    +0.120 A 
ATOM     19  C   UNL     1       9.947   1.078  21.890  0.00  0.00    +0.091 A 
ATOM     20  C   UNL     1       9.304  -0.132  22.173  0.00  0.00    +0.132 A 
BRANCH  18  21
ATOM     21  O   UNL     1      10.464   3.320  22.579  0.00  0.00    -0.507 OA
ATOM     22  H   UNL     1      10.477   3.828  23.408  0.00  0.00    +0.292 HD
ENDBRANCH  18  21
BRANCH  20  23
ATOM     23  O   UNL     1       9.413  -1.093  21.200  0.00  0.00    -0.506 OA
ATOM     24  H   UNL     1       8.845  -0.811  20.445  0.00  0.00    +0.292 HD
ENDBRANCH  20  23
ENDBRANCH   3  15
TORSDOF 4
ENDMDL
MODEL 2
REMARK VINA RESULT:      -6.8      1.711      3.659
REMARK  Name = 
REMARK  5 active torsions:
REMARK  status: ('A' for Active; 'I' for Inactive)
REMARK    1  A    between atoms: C_2  and  C_17
REMARK    2  A    between atoms: C_7  and  C_9
REMARK    3  A    between atoms: C_10  and  O_11
REMARK    4  A    between atoms: C_13  and  O_14
REMARK    5  A    between atoms: C_22  and  C_23
REMARK                            x       y       z     vdW  Elec       q    Type
REMARK                         _______ _______ _______ _____ _____    ______ ____
ROOT
ATOM      1  C   UNL     1       6.778  -4.849  24.034  0.00  0.00    +0.107 C 
ATOM      2  N   UNL     1       6.975  -3.602  23.264  0.00  0.00    -0.290 N 
ATOM      3  C   UNL     1       7.595  -2.495  23.854  0.00  0.00    +0.251 C 
ATOM      4  O   UNL     1       7.846  -2.453  25.062  0.00  0.00    -0.270 OA
ATOM      5  C   UNL     1       6.878  -3.884  21.838  0.00  0.00    +0.109 C 
ATOM      6  C   UNL     1       6.852  -5.393  21.711  0.00  0.00    +0.021 C 
ATOM      7  C   UNL     1       6.192  -5.828  23.006  0.00  0.00    +0.029 C 
ENDROOT
BRANCH   1   8
ATOM      8  C   UNL     1       5.926  -4.771  25.288  0.00  0.00    -0.024 A 
ATOM      9  C   UNL     1       6.493  -4.962  26.572  0.00  0.00    -0.046 A 
ATOM     10  C   UNL     1       7.915  -5.421  26.767  0.00  0.00    +0.044 C 
ATOM     11  C   UNL     1       5.710  -4.730  27.716  0.00  0.00    +0.004 A 
ATOM     12  C   UNL     1       4.371  -4.363  27.602  0.00  0.00    +0.000 A 
ATOM     13  C   UNL     1       3.786  -4.267  26.346  0.00  0.00    +0.000 A 
ATOM     14  C   UNL     1       4.553  -4.479  25.200  0.00  0.00    +0.006 A 
ENDBRANCH   1   8
BRANCH   3  15
ATOM     15  C   UNL     1       8.083  -1.327  23.049  0.00  0.00    +0.078 A 
ATOM     16  C   UNL     1       9.264  -1.335  22.289  0.00  0.00    +0.020 A 
ATOM     17  C   UNL     1       9.780  -0.155  21.738  0.00  0.00    +0.046 A 
ATOM     18  C   UNL     1       9.067   1.029  21.854  0.00  0.00    +0.120 A 
ATOM     19  C   UNL     1       7.829   1.048  22.478  0.00  0.00    +0.091 A 
ATOM     20  C   UNL     1       7.339  -0.127  23.059  0.00  0.00    +0.132 A 
BRANCH  18  21
ATOM     21  O   UNL     1       9.619   2.156  21.322  0.00  0.00    -0.507 OA
ATOM     22  H   UNL     1       9.245   2.929  21.779  0.00  0.00    +0.292 HD
ENDBRANCH  18  21
BRANCH  20  23
ATOM     23  O   UNL     1       6.098  -0.020  23.636  0.00  0.00    -0.506 OA
ATOM     24  H   UNL     1       5.805   0.915  23.528  0.00  0.00    +0.292 HD
ENDBRANCH  20  23
ENDBRANCH   3  15
TORSDOF 4
ENDMDL
MODEL 3
REMARK VINA RESULT:      -6.6      1.373      2.058
REMARK  Name = 
REMARK  5 active torsions:
REMARK  status: ('A' for Active; 'I' for Inactive)
REMARK    1  A    between atoms: C_2  and  C_17
REMARK    2  A    between atoms: C_7  and  C_9
REMARK    3  A    between atoms: C_10  and  O_11
REMARK    4  A    between atoms: C_13  and  O_14
REMARK    5  A    between atoms: C_22  and  C_23
REMARK                            x       y       z     vdW  Elec       q    Type
REMARK                         _______ _______ _______ _____ _____    ______ ____
ROOT
ATOM      1  C   UNL     1       7.324  -4.108  24.956  0.00  0.00    +0.107 C 
ATOM      2  N   UNL     1       8.007  -3.106  24.109  0.00  0.00    -0.290 N 
ATOM      3  C   UNL     1       7.328  -1.962  23.676  0.00  0.00    +0.251 C 
ATOM      4  O   UNL     1       6.111  -1.824  23.836  0.00  0.00    -0.270 OA
ATOM      5  C   UNL     1       9.450  -3.266  24.225  0.00  0.00    +0.109 C 
ATOM      6  C   UNL     1       9.672  -4.245  25.359  0.00  0.00    +0.021 C 
ATOM      7  C   UNL     1       8.430  -5.115  25.300  0.00  0.00    +0.029 C 
ENDROOT
BRANCH   1   8
ATOM      8  C   UNL     1       6.098  -4.792  24.380  0.00  0.00    -0.024 A 
ATOM      9  C   UNL     1       4.887  -4.864  25.112  0.00  0.00    -0.046 A 
ATOM     10  C   UNL     1       4.787  -4.432  26.552  0.00  0.00    +0.044 C 
ATOM     11  C   UNL     1       3.731  -5.367  24.490  0.00  0.00    +0.004 A 
ATOM     12  C   UNL     1       3.772  -5.839  23.181  0.00  0.00    +0.000 A 
ATOM     13  C   UNL     1       4.978  -5.859  22.491  0.00  0.00    +0.000 A 
ATOM     14  C   UNL     1       6.132  -5.349  23.088  0.00  0.00    +0.006 A 
ENDBRANCH   1   8
BRANCH   3  15
ATOM     15  C   UNL     1       8.041  -0.786  23.076  0.00  0.00    +0.078 A 
ATOM     16  C   UNL     1       8.707  -0.819  21.840  0.00  0.00    +0.020 A 
ATOM     17  C   UNL     1       9.534   0.235  21.435  0.00  0.00    +0.046 A 
ATOM     18  C   UNL     1       9.626   1.380  22.214  0.00  0.00    +0.120 A 
ATOM     19  C   UNL     1       8.875   1.504  23.373  0.00  0.00    +0.091 A 
ATOM     20  C   UNL     1       8.080   0.431  23.791  0.00  0.00    +0.132 A 
BRANCH  18  21
ATOM     21  O   UNL     1      10.461   2.370  21.791  0.00  0.00    -0.507 OA
ATOM     22  H   UNL     1       9.930   3.060  21.359  0.00  0.00    +0.292 HD
ENDBRANCH  18  21
BRANCH  20  23
ATOM     23  O   UNL     1       7.357   0.651  24.936  0.00  0.00    -0.506 OA
ATOM     24  H   UNL     1       6.524   0.128  24.861  0.00  0.00    +0.292 HD
ENDBRANCH  20  23
ENDBRANCH   3  15
TORSDOF 4
ENDMDL
MODEL 4
REMARK VINA RESULT:      -6.5      4.280      8.434
REMARK  Name = 
REMARK  5 active torsions:
REMARK  status: ('A' for Active; 'I' for Inactive)
REMARK    1  A    between atoms: C_2  and  C_17
REMARK    2  A    between atoms: C_7  and  C_9
REMARK    3  A    between atoms: C_10  and  O_11
REMARK    4  A    between atoms: C_13  and  O_14
REMARK    5  A    between atoms: C_22  and  C_23
REMARK                            x       y       z     vdW  Elec       q    Type
REMARK                         _______ _______ _______ _____ _____    ______ ____
ROOT
ATOM      1  C   UNL     1       9.744   5.362  23.555  0.00  0.00    +0.107 C 
ATOM      2  N   UNL     1      10.024   3.919  23.719  0.00  0.00    -0.290 N 
ATOM      3  C   UNL     1       9.008   2.974  23.536  0.00  0.00    +0.251 C 
ATOM      4  O   UNL     1       7.826   3.304  23.402  0.00  0.00    -0.270 OA
ATOM      5  C   UNL     1      11.457   3.681  23.615  0.00  0.00    +0.109 C 
ATOM      6  C   UNL     1      12.064   4.985  23.141  0.00  0.00    +0.021 C 
ATOM      7  C   UNL     1      11.120   6.025  23.715  0.00  0.00    +0.029 C 
ENDROOT
BRANCH   1   8
ATOM      8  C   UNL     1       8.708   5.983  24.475  0.00  0.00    -0.024 A 
ATOM      9  C   UNL     1       7.545   6.604  23.955  0.00  0.00    -0.046 A 
ATOM     10  C   UNL     1       7.347   6.841  22.481  0.00  0.00    +0.044 C 
ATOM     11  C   UNL     1       6.536   7.029  24.836  0.00  0.00    +0.004 A 
ATOM     12  C   UNL     1       6.686   6.893  26.214  0.00  0.00    +0.000 A 
ATOM     13  C   UNL     1       7.866   6.373  26.732  0.00  0.00    +0.000 A 
ATOM     14  C   UNL     1       8.872   5.930  25.871  0.00  0.00    +0.006 A 
ENDBRANCH   1   8
BRANCH   3  15
ATOM     15  C   UNL     1       9.293   1.509  23.397  0.00  0.00    +0.078 A 
ATOM     16  C   UNL     1       9.573   0.657  24.478  0.00  0.00    +0.020 A 
ATOM     17  C   UNL     1      10.043  -0.646  24.272  0.00  0.00    +0.046 A 
ATOM     18  C   UNL     1      10.143  -1.147  22.982  0.00  0.00    +0.120 A 
ATOM     19  C   UNL     1       9.744  -0.382  21.897  0.00  0.00    +0.091 A 
ATOM     20  C   UNL     1       9.312   0.932  22.108  0.00  0.00    +0.132 A 
BRANCH  18  21
ATOM     21  O   UNL     1      10.628  -2.411  22.829  0.00  0.00    -0.507 OA
ATOM     22  H   UNL     1       9.898  -2.993  22.556  0.00  0.00    +0.292 HD
ENDBRANCH  18  21
BRANCH  20  23
ATOM     23  O   UNL     1       8.918   1.606  20.980  0.00  0.00    -0.506 OA
ATOM     24  H   UNL     1       9.703   2.101  20.646  0.00  0.00    +0.292 HD
ENDBRANCH  20  23
ENDBRANCH   3  15
TORSDOF 4
ENDMDL
MODEL 5
REMARK VINA RESULT:      -6.5      2.221      6.525
REMARK  Name = 
REMARK  5 active torsions:
REMARK  status: ('A' for Active; 'I' for Inactive)
REMARK    1  A    between atoms: C_2  and  C_17
REMARK    2  A    between atoms: C_7  and  C_9
REMARK    3  A    between atoms: C_10  and  O_11
REMARK    4  A    between atoms: C_13  and  O_14
REMARK    5  A    between atoms: C_22  and  C_23
REMARK                            x       y       z     vdW  Elec       q    Type
REMARK                         _______ _______ _______ _____ _____    ______ ____
ROOT
ATOM      1  C   UNL     1       7.878  -0.371  25.154  0.00  0.00    +0.107 C 
ATOM      2  N   UNL     1       6.872  -1.443  24.986  0.00  0.00    -0.290 N 
ATOM      3  C   UNL     1       7.119  -2.519  24.126  0.00  0.00    +0.251 C 
ATOM      4  O   UNL     1       8.087  -2.535  23.360  0.00  0.00    -0.270 OA
ATOM      5  C   UNL     1       5.943  -1.425  26.107  0.00  0.00    +0.109 C 
ATOM      6  C   UNL     1       6.528  -0.463  27.120  0.00  0.00    +0.021 C 
ATOM      7  C   UNL     1       7.282   0.525  26.249  0.00  0.00    +0.029 C 
ENDROOT
BRANCH   1   8
ATOM      8  C   UNL     1       8.264   0.425  23.921  0.00  0.00    -0.024 A 
ATOM      9  C   UNL     1       9.623   0.675  23.605  0.00  0.00    -0.046 A 
ATOM     10  C   UNL     1      10.747   0.327  24.546  0.00  0.00    +0.044 C 
ATOM     11  C   UNL     1       9.948   1.281  22.380  0.00  0.00    +0.004 A 
ATOM     12  C   UNL     1       8.951   1.682  21.494  0.00  0.00    +0.000 A 
ATOM     13  C   UNL     1       7.615   1.525  21.841  0.00  0.00    +0.000 A 
ATOM     14  C   UNL     1       7.274   0.912  23.047  0.00  0.00    +0.006 A 
ENDBRANCH   1   8
BRANCH   3  15
ATOM     15  C   UNL     1       6.282  -3.764  24.141  0.00  0.00    +0.078 A 
ATOM     16  C   UNL     1       6.218  -4.654  25.226  0.00  0.00    +0.020 A 
ATOM     17  C   UNL     1       5.596  -5.903  25.102  0.00  0.00    +0.046 A 
ATOM     18  C   UNL     1       4.944  -6.236  23.924  0.00  0.00    +0.120 A 
ATOM     19  C   UNL     1       4.869  -5.326  22.880  0.00  0.00    +0.091 A 
ATOM     20  C   UNL     1       5.525  -4.096  22.996  0.00  0.00    +0.132 A 
BRANCH  18  21
ATOM     21  O   UNL     1       4.374  -7.471  23.841  0.00  0.00    -0.507 OA
ATOM     22  H   UNL     1       4.421  -7.772  22.918  0.00  0.00    +0.292 HD
ENDBRANCH  18  21
BRANCH  20  23
ATOM     23  O   UNL     1       5.379  -3.252  21.924  0.00  0.00    -0.506 OA
ATOM     24  H   UNL     1       4.764  -2.532  22.200  0.00  0.00    +0.292 HD
ENDBRANCH  20  23
ENDBRANCH   3  15
TORSDOF 4
ENDMDL
MODEL 6
REMARK VINA RESULT:      -6.4      2.588      6.677
REMARK  Name = 
REMARK  5 active torsions:
REMARK  status: ('A' for Active; 'I' for Inactive)
REMARK    1  A    between atoms: C_2  and  C_17
REMARK    2  A    between atoms: C_7  and  C_9
REMARK    3  A    between atoms: C_10  and  O_11
REMARK    4  A    between atoms: C_13  and  O_14
REMARK    5  A    between atoms: C_22  and  C_23
REMARK                            x       y       z     vdW  Elec       q    Type
REMARK                         _______ _______ _______ _____ _____    ______ ____
ROOT
ATOM      1  C   UNL     1       8.173   0.221  25.516  0.00  0.00    +0.107 C 
ATOM      2  N   UNL     1       7.370  -1.015  25.642  0.00  0.00    -0.290 N 
ATOM      3  C   UNL     1       7.809  -2.209  25.057  0.00  0.00    +0.251 C 
ATOM      4  O   UNL     1       8.773  -2.244  24.287  0.00  0.00    -0.270 OA
ATOM      5  C   UNL     1       6.441  -0.886  26.756  0.00  0.00    +0.109 C 
ATOM      6  C   UNL     1       6.840   0.378  27.489  0.00  0.00    +0.021 C 
ATOM      7  C   UNL     1       7.420   1.240  26.382  0.00  0.00    +0.029 C 
ENDROOT
BRANCH   1   8
ATOM      8  C   UNL     1       8.428   0.749  24.116  0.00  0.00    -0.024 A 
ATOM      9  C   UNL     1       9.747   0.908  23.621  0.00  0.00    -0.046 A 
ATOM     10  C   UNL     1      10.963   0.733  24.493  0.00  0.00    +0.044 C 
ATOM     11  C   UNL     1       9.943   1.252  22.273  0.00  0.00    +0.004 A 
ATOM     12  C   UNL     1       8.859   1.487  21.430  0.00  0.00    +0.000 A 
ATOM     13  C   UNL     1       7.566   1.426  21.935  0.00  0.00    +0.000 A 
ATOM     14  C   UNL     1       7.353   1.070  23.268  0.00  0.00    +0.006 A 
ENDBRANCH   1   8
BRANCH   3  15
ATOM     15  C   UNL     1       7.200  -3.537  25.397  0.00  0.00    +0.078 A 
ATOM     16  C   UNL     1       6.010  -4.023  24.832  0.00  0.00    +0.020 A 
ATOM     17  C   UNL     1       5.378  -5.163  25.344  0.00  0.00    +0.046 A 
ATOM     18  C   UNL     1       5.981  -5.889  26.361  0.00  0.00    +0.120 A 
ATOM     19  C   UNL     1       7.224  -5.517  26.850  0.00  0.00    +0.091 A 
ATOM     20  C   UNL     1       7.831  -4.355  26.360  0.00  0.00    +0.132 A 
BRANCH  18  21
ATOM     21  O   UNL     1       5.318  -6.977  26.843  0.00  0.00    -0.507 OA
ATOM     22  H   UNL     1       5.502  -7.056  27.795  0.00  0.00    +0.292 HD
ENDBRANCH  18  21
BRANCH  20  23
ATOM     23  O   UNL     1       9.068  -4.076  26.886  0.00  0.00    -0.506 OA
ATOM     24  H   UNL     1       9.566  -3.564  26.206  0.00  0.00    +0.292 HD
ENDBRANCH  20  23
ENDBRANCH   3  15
TORSDOF 4
ENDMDL
MODEL 7
REMARK VINA RESULT:      -6.3      2.102      6.525
REMARK  Name = 
REMARK  5 active torsions:
REMARK  status: ('A' for Active; 'I' for Inactive)
REMARK    1  A    between atoms: C_2  and  C_17
REMARK    2  A    between atoms: C_7  and  C_9
REMARK    3  A    between atoms: C_10  and  O_11
REMARK    4  A    between atoms: C_13  and  O_14
REMARK    5  A    between atoms: C_22  and  C_23
REMARK                            x       y       z     vdW  Elec       q    Type
REMARK                         _______ _______ _______ _____ _____    ______ ____
ROOT
ATOM      1  C   UNL     1       8.304  -0.067  25.534  0.00  0.00    +0.107 C 
ATOM      2  N   UNL     1       7.512  -1.090  24.818  0.00  0.00    -0.290 N 
ATOM      3  C   UNL     1       7.998  -1.667  23.639  0.00  0.00    +0.251 C 
ATOM      4  O   UNL     1       9.004  -1.237  23.068  0.00  0.00    -0.270 OA
ATOM      5  C   UNL     1       6.519  -1.662  25.718  0.00  0.00    +0.109 C 
ATOM      6  C   UNL     1       6.860  -1.143  27.100  0.00  0.00    +0.021 C 
ATOM      7  C   UNL     1       7.491   0.205  26.807  0.00  0.00    +0.029 C 
ENDROOT
BRANCH   1   8
ATOM      8  C   UNL     1       8.631   1.214  24.788  0.00  0.00    -0.024 A 
ATOM      9  C   UNL     1       9.956   1.507  24.379  0.00  0.00    -0.046 A 
ATOM     10  C   UNL     1      11.135   0.670  24.803  0.00  0.00    +0.044 C 
ATOM     11  C   UNL     1      10.196   2.623  23.560  0.00  0.00    +0.004 A 
ATOM     12  C   UNL     1       9.156   3.471  23.184  0.00  0.00    +0.000 A 
ATOM     13  C   UNL     1       7.872   3.241  23.661  0.00  0.00    +0.000 A 
ATOM     14  C   UNL     1       7.613   2.129  24.463  0.00  0.00    +0.006 A 
ENDBRANCH   1   8
BRANCH   3  15
ATOM     15  C   UNL     1       7.389  -2.900  23.042  0.00  0.00    +0.078 A 
ATOM     16  C   UNL     1       6.270  -2.892  22.193  0.00  0.00    +0.020 A 
ATOM     17  C   UNL     1       5.617  -4.080  21.843  0.00  0.00    +0.046 A 
ATOM     18  C   UNL     1       6.134  -5.299  22.255  0.00  0.00    +0.120 A 
ATOM     19  C   UNL     1       7.315  -5.354  22.980  0.00  0.00    +0.091 A 
ATOM     20  C   UNL     1       7.941  -4.161  23.358  0.00  0.00    +0.132 A 
BRANCH  18  21
ATOM     21  O   UNL     1       5.451  -6.427  21.911  0.00  0.00    -0.507 OA
ATOM     22  H   UNL     1       4.907  -6.233  21.129  0.00  0.00    +0.292 HD
ENDBRANCH  18  21
BRANCH  20  23
ATOM     23  O   UNL     1       9.114  -4.312  24.054  0.00  0.00    -0.506 OA
ATOM     24  H   UNL     1       9.840  -3.965  23.483  0.00  0.00    +0.292 HD
ENDBRANCH  20  23
ENDBRANCH   3  15
TORSDOF 4
ENDMDL
MODEL 8
REMARK VINA RESULT:      -6.2      1.871      3.272
REMARK  Name = 
REMARK  5 active torsions:
REMARK  status: ('A' for Active; 'I' for Inactive)
REMARK    1  A    between atoms: C_2  and  C_17
REMARK    2  A    between atoms: C_7  and  C_9
REMARK    3  A    between atoms: C_10  and  O_11
REMARK    4  A    between atoms: C_13  and  O_14
REMARK    5  A    between atoms: C_22  and  C_23
REMARK                            x       y       z     vdW  Elec       q    Type
REMARK                         _______ _______ _______ _____ _____    ______ ____
ROOT
ATOM      1  C   UNL     1       6.581  -5.081  23.814  0.00  0.00    +0.107 C 
ATOM      2  N   UNL     1       6.828  -3.721  23.286  0.00  0.00    -0.290 N 
ATOM      3  C   UNL     1       7.588  -2.803  24.019  0.00  0.00    +0.251 C 
ATOM      4  O   UNL     1       7.934  -3.022  25.183  0.00  0.00    -0.270 OA
ATOM      5  C   UNL     1       6.596  -3.703  21.848  0.00  0.00    +0.109 C 
ATOM      6  C   UNL     1       6.426  -5.150  21.434  0.00  0.00    +0.021 C 
ATOM      7  C   UNL     1       5.833  -5.788  22.676  0.00  0.00    +0.029 C 
ENDROOT
BRANCH   1   8
ATOM      8  C   UNL     1       5.840  -5.195  25.134  0.00  0.00    -0.024 A 
ATOM      9  C   UNL     1       4.520  -4.700  25.278  0.00  0.00    -0.046 A 
ATOM     10  C   UNL     1       3.841  -3.886  24.207  0.00  0.00    +0.044 C 
ATOM     11  C   UNL     1       3.810  -4.959  26.463  0.00  0.00    +0.004 A 
ATOM     12  C   UNL     1       4.404  -5.653  27.515  0.00  0.00    +0.000 A 
ATOM     13  C   UNL     1       5.729  -6.057  27.414  0.00  0.00    +0.000 A 
ATOM     14  C   UNL     1       6.444  -5.821  26.239  0.00  0.00    +0.006 A 
ENDBRANCH   1   8
BRANCH   3  15
ATOM     15  C   UNL     1       8.113  -1.535  23.413  0.00  0.00    +0.078 A 
ATOM     16  C   UNL     1       7.355  -0.362  23.265  0.00  0.00    +0.020 A 
ATOM     17  C   UNL     1       7.825   0.713  22.501  0.00  0.00    +0.046 A 
ATOM     18  C   UNL     1       9.101   0.669  21.959  0.00  0.00    +0.120 A 
ATOM     19  C   UNL     1       9.931  -0.416  22.200  0.00  0.00    +0.091 A 
ATOM     20  C   UNL     1       9.441  -1.502  22.932  0.00  0.00    +0.132 A 
BRANCH  18  21
ATOM     21  O   UNL     1       9.506   1.728  21.203  0.00  0.00    -0.507 OA
ATOM     22  H   UNL     1       8.897   1.822  20.451  0.00  0.00    +0.292 HD
ENDBRANCH  18  21
BRANCH  20  23
ATOM     23  O   UNL     1      10.337  -2.520  23.139  0.00  0.00    -0.506 OA
ATOM     24  H   UNL     1      11.157  -2.294  22.639  0.00  0.00    +0.292 HD
ENDBRANCH  20  23
ENDBRANCH   3  15
TORSDOF 4
ENDMDL
MODEL 9
REMARK VINA RESULT:      -6.2      2.217      6.611
REMARK  Name = 
REMARK  5 active torsions:
REMARK  status: ('A' for Active; 'I' for Inactive)
REMARK    1  A    between atoms: C_2  and  C_17
REMARK    2  A    between atoms: C_7  and  C_9
REMARK    3  A    between atoms: C_10  and  O_11
REMARK    4  A    between atoms: C_13  and  O_14
REMARK    5  A    between atoms: C_22  and  C_23
REMARK                            x       y       z     vdW  Elec       q    Type
REMARK                         _______ _______ _______ _____ _____    ______ ____
ROOT
ATOM      1  C   UNL     1       8.789  -0.537  23.263  0.00  0.00    +0.107 C 
ATOM      2  N   UNL     1       8.149  -1.792  23.711  0.00  0.00    -0.290 N 
ATOM      3  C   UNL     1       6.777  -1.995  23.525  0.00  0.00    +0.251 C 
ATOM      4  O   UNL     1       6.028  -1.091  23.143  0.00  0.00    -0.270 OA
ATOM      5  C   UNL     1       9.161  -2.824  23.888  0.00  0.00    +0.109 C 
ATOM      6  C   UNL     1      10.441  -2.258  23.308  0.00  0.00    +0.021 C 
ATOM      7  C   UNL     1      10.282  -0.766  23.535  0.00  0.00    +0.029 C 
ENDROOT
BRANCH   1   8
ATOM      8  C   UNL     1       8.295   0.759  23.881  0.00  0.00    -0.024 A 
ATOM      9  C   UNL     1       7.867   1.841  23.071  0.00  0.00    -0.046 A 
ATOM     10  C   UNL     1       8.035   1.844  21.574  0.00  0.00    +0.044 C 
ATOM     11  C   UNL     1       7.274   2.963  23.674  0.00  0.00    +0.004 A 
ATOM     12  C   UNL     1       7.146   3.047  25.058  0.00  0.00    +0.000 A 
ATOM     13  C   UNL     1       7.651   2.032  25.861  0.00  0.00    +0.000 A 
ATOM     14  C   UNL     1       8.229   0.903  25.278  0.00  0.00    +0.006 A 
ENDBRANCH   1   8
BRANCH   3  15
ATOM     15  C   UNL     1       6.138  -3.343  23.684  0.00  0.00    +0.078 A 
ATOM     16  C   UNL     1       6.028  -4.021  24.909  0.00  0.00    +0.020 A 
ATOM     17  C   UNL     1       5.622  -5.360  24.963  0.00  0.00    +0.046 A 
ATOM     18  C   UNL     1       5.224  -6.008  23.802  0.00  0.00    +0.120 A 
ATOM     19  C   UNL     1       5.189  -5.328  22.594  0.00  0.00    +0.091 A 
ATOM     20  C   UNL     1       5.632  -4.002  22.542  0.00  0.00    +0.132 A 
BRANCH  18  21
ATOM     21  O   UNL     1       4.861  -7.317  23.900  0.00  0.00    -0.507 OA
ATOM     22  H   UNL     1       5.420  -7.840  23.300  0.00  0.00    +0.292 HD
ENDBRANCH  18  21
BRANCH  20  23
ATOM     23  O   UNL     1       5.541  -3.404  21.310  0.00  0.00    -0.506 OA
ATOM     24  H   UNL     1       4.884  -2.673  21.388  0.00  0.00    +0.292 HD
ENDBRANCH  20  23
ENDBRANCH   3  15
TORSDOF 4
ENDMDL
