MODEL 1
REMARK VINA RESULT:      -7.9      0.000      0.000
REMARK  Name = 
REMARK  3 active torsions:
REMARK  status: ('A' for Active; 'I' for Inactive)
REMARK    1  A    between atoms: C_4  and  C_8
REMARK    2  A    between atoms: N_10  and  C_11
REMARK    3  A    between atoms: C_15  and  C_17
REMARK                            x       y       z     vdW  Elec       q    Type
REMARK                         _______ _______ _______ _____ _____    ______ ____
ROOT
ATOM      1  C   UNL     1       6.850  -3.677  24.145  0.00  0.00    +0.034 A 
ATOM      2  C   UNL     1       6.914  -4.314  25.394  0.00  0.00    +0.035 A 
ATOM      3  C   UNL     1       6.172  -5.488  25.653  0.00  0.00    +0.022 A 
ATOM      4  C   UNL     1       5.398  -6.039  24.623  0.00  0.00    +0.012 A 
ATOM      5  C   UNL     1       5.361  -5.436  23.370  0.00  0.00    +0.002 A 
ATOM      6  C   UNL     1       6.084  -4.269  23.136  0.00  0.00    +0.023 A 
ENDROOT
BRANCH   3   7
ATOM      7  C   UNL     1       6.196  -6.096  26.985  0.00  0.00    +0.179 A 
ATOM      8  N   UNL     1       5.329  -7.061  27.434  0.00  0.00    -0.239 N 
ATOM      9  H   UNL     1       4.561  -7.517  26.962  0.00  0.00    +0.192 HD
ATOM     10  N   UNL     1       5.601  -7.387  28.703  0.00  0.00    -0.046 NA
ATOM     11  N   UNL     1       6.632  -6.627  29.036  0.00  0.00    -0.023 NA
ATOM     12  N   UNL     1       7.012  -5.825  27.986  0.00  0.00    -0.108 NA
ENDBRANCH   3   7
BRANCH   1  14
ATOM     13  C   UNL     1       8.942  -2.364  23.874  0.00  0.00    +0.248 C 
ATOM     14  N   UNL     1       7.557  -2.458  23.946  0.00  0.00    -0.281 N 
ATOM     15  H   UNL     1       7.008  -1.652  23.676  0.00  0.00    +0.155 HD
ATOM     16  O   UNL     1       9.724  -3.309  23.920  0.00  0.00    -0.270 OA
BRANCH  13  22
ATOM     17  F   UNL     1       9.797   1.690  21.271  0.00  0.00    -0.205 F 
ATOM     18  C   UNL     1       9.927   0.992  22.407  0.00  0.00    +0.124 A 
ATOM     19  C   UNL     1      10.538   1.595  23.505  0.00  0.00    +0.038 A 
ATOM     20  C   UNL     1      10.659   0.890  24.697  0.00  0.00    +0.004 A 
ATOM     21  C   UNL     1      10.160  -0.410  24.775  0.00  0.00    +0.013 A 
ATOM     22  C   UNL     1       9.543  -1.019  23.666  0.00  0.00    +0.040 A 
ATOM     23  C   UNL     1       9.428  -0.309  22.469  0.00  0.00    +0.051 A 
ENDBRANCH  13  22
ENDBRANCH   1  14
TORSDOF 3
ENDMDL
MODEL 2
REMARK VINA RESULT:      -7.5      1.486      2.000
REMARK  Name = 
REMARK  3 active torsions:
REMARK  status: ('A' for Active; 'I' for Inactive)
REMARK    1  A    between atoms: C_4  and  C_8
REMARK    2  A    between atoms: N_10  and  C_11
REMARK    3  A    between atoms: C_15  and  C_17
REMARK                            x       y       z     vdW  Elec       q    Type
REMARK                         _______ _______ _______ _____ _____    ______ ____
ROOT
ATOM      1  C   UNL     1       7.344  -3.065  23.514  0.00  0.00    +0.034 A 
ATOM      2  C   UNL     1       7.234  -3.710  24.756  0.00  0.00    +0.035 A 
ATOM      3  C   UNL     1       6.812  -5.056  24.844  0.00  0.00    +0.022 A 
ATOM      4  C   UNL     1       6.545  -5.759  23.662  0.00  0.00    +0.012 A 
ATOM      5  C   UNL     1       6.691  -5.139  22.425  0.00  0.00    +0.002 A 
ATOM      6  C   UNL     1       7.090  -3.807  22.356  0.00  0.00    +0.023 A 
ENDROOT
BRANCH   3   7
ATOM      7  C   UNL     1       6.633  -5.687  26.153  0.00  0.00    +0.179 A 
ATOM      8  N   UNL     1       7.538  -5.647  27.186  0.00  0.00    -0.239 N 
ATOM      9  H   UNL     1       8.440  -5.197  27.243  0.00  0.00    +0.192 HD
ATOM     10  N   UNL     1       7.086  -6.343  28.236  0.00  0.00    -0.046 NA
ATOM     11  N   UNL     1       5.909  -6.809  27.855  0.00  0.00    -0.023 NA
ATOM     12  N   UNL     1       5.613  -6.413  26.572  0.00  0.00    -0.108 NA
ENDBRANCH   3   7
BRANCH   1  14
ATOM     13  C   UNL     1       9.010  -1.229  23.350  0.00  0.00    +0.248 C 
ATOM     14  N   UNL     1       7.703  -1.689  23.471  0.00  0.00    -0.281 N 
ATOM     15  H   UNL     1       6.949  -1.024  23.355  0.00  0.00    +0.155 HD
ATOM     16  O   UNL     1      10.004  -1.936  23.214  0.00  0.00    -0.270 OA
BRANCH  13  22
ATOM     17  F   UNL     1       8.841   3.259  25.291  0.00  0.00    -0.205 F 
ATOM     18  C   UNL     1       9.194   2.440  24.291  0.00  0.00    +0.124 A 
ATOM     19  C   UNL     1       9.929   2.954  23.224  0.00  0.00    +0.038 A 
ATOM     20  C   UNL     1      10.322   2.109  22.191  0.00  0.00    +0.004 A 
ATOM     21  C   UNL     1       9.977   0.759  22.245  0.00  0.00    +0.013 A 
ATOM     22  C   UNL     1       9.235   0.242  23.323  0.00  0.00    +0.040 A 
ATOM     23  C   UNL     1       8.838   1.093  24.355  0.00  0.00    +0.051 A 
ENDBRANCH  13  22
ENDBRANCH   1  14
TORSDOF 3
ENDMDL
MODEL 3
REMARK VINA RESULT:      -7.1      1.583      1.670
REMARK  Name = 
REMARK  3 active torsions:
REMARK  status: ('A' for Active; 'I' for Inactive)
REMARK    1  A    between atoms: C_4  and  C_8
REMARK    2  A    between atoms: N_10  and  C_11
REMARK    3  A    between atoms: C_15  and  C_17
REMARK                            x       y       z     vdW  Elec       q    Type
REMARK                         _______ _______ _______ _____ _____    ______ ____
ROOT
ATOM      1  C   UNL     1       7.601  -3.155  23.671  0.00  0.00    +0.034 A 
ATOM      2  C   UNL     1       7.526  -3.813  24.909  0.00  0.00    +0.035 A 
ATOM      3  C   UNL     1       6.827  -5.034  25.044  0.00  0.00    +0.022 A 
ATOM      4  C   UNL     1       6.242  -5.607  23.907  0.00  0.00    +0.012 A 
ATOM      5  C   UNL     1       6.347  -4.981  22.669  0.00  0.00    +0.002 A 
ATOM      6  C   UNL     1       7.023  -3.769  22.556  0.00  0.00    +0.023 A 
ENDROOT
BRANCH   3   7
ATOM      7  C   UNL     1       6.699  -5.668  26.358  0.00  0.00    +0.179 A 
ATOM      8  N   UNL     1       5.697  -6.529  26.731  0.00  0.00    -0.239 N 
ATOM      9  H   UNL     1       4.909  -6.879  26.204  0.00  0.00    +0.192 HD
ATOM     10  N   UNL     1       5.853  -6.912  28.004  0.00  0.00    -0.046 NA
ATOM     11  N   UNL     1       6.946  -6.291  28.415  0.00  0.00    -0.023 NA
ATOM     12  N   UNL     1       7.482  -5.519  27.410  0.00  0.00    -0.108 NA
ENDBRANCH   3   7
BRANCH   1  14
ATOM     13  C   UNL     1       7.698  -0.700  24.042  0.00  0.00    +0.248 C 
ATOM     14  N   UNL     1       8.253  -1.893  23.591  0.00  0.00    -0.281 N 
ATOM     15  H   UNL     1       9.235  -1.901  23.345  0.00  0.00    +0.155 HD
ATOM     16  O   UNL     1       6.614  -0.587  24.607  0.00  0.00    -0.270 OA
BRANCH  13  22
ATOM     17  F   UNL     1      10.802   2.242  21.665  0.00  0.00    -0.205 F 
ATOM     18  C   UNL     1       9.986   2.012  22.702  0.00  0.00    +0.124 A 
ATOM     19  C   UNL     1       9.760   3.033  23.623  0.00  0.00    +0.038 A 
ATOM     20  C   UNL     1       8.897   2.815  24.691  0.00  0.00    +0.004 A 
ATOM     21  C   UNL     1       8.268   1.577  24.819  0.00  0.00    +0.013 A 
ATOM     22  C   UNL     1       8.497   0.546  23.888  0.00  0.00    +0.040 A 
ATOM     23  C   UNL     1       9.368   0.767  22.820  0.00  0.00    +0.051 A 
ENDBRANCH  13  22
ENDBRANCH   1  14
TORSDOF 3
ENDMDL
MODEL 4
REMARK VINA RESULT:      -7.0      3.433      4.938
REMARK  Name = 
REMARK  3 active torsions:
REMARK  status: ('A' for Active; 'I' for Inactive)
REMARK    1  A    between atoms: C_4  and  C_8
REMARK    2  A    between atoms: N_10  and  C_11
REMARK    3  A    between atoms: C_15  and  C_17
REMARK                            x       y       z     vdW  Elec       q    Type
REMARK                         _______ _______ _______ _____ _____    ______ ____
ROOT
ATOM      1  C   UNL     1       9.819  -0.111  22.993  0.00  0.00    +0.034 A 
ATOM      2  C   UNL     1       9.874  -1.106  23.982  0.00  0.00    +0.035 A 
ATOM      3  C   UNL     1       9.271  -2.368  23.781  0.00  0.00    +0.022 A 
ATOM      4  C   UNL     1       8.648  -2.631  22.553  0.00  0.00    +0.012 A 
ATOM      5  C   UNL     1       8.625  -1.664  21.553  0.00  0.00    +0.002 A 
ATOM      6  C   UNL     1       9.208  -0.419  21.774  0.00  0.00    +0.023 A 
ENDROOT
BRANCH   3   7
ATOM      7  C   UNL     1       9.277  -3.366  24.852  0.00  0.00    +0.179 A 
ATOM      8  N   UNL     1       8.609  -3.255  26.046  0.00  0.00    -0.239 N 
ATOM      9  H   UNL     1       8.016  -2.515  26.394  0.00  0.00    +0.192 HD
ATOM     10  N   UNL     1       8.839  -4.324  26.817  0.00  0.00    -0.046 NA
ATOM     11  N   UNL     1       9.643  -5.093  26.102  0.00  0.00    -0.023 NA
ATOM     12  N   UNL     1       9.922  -4.517  24.885  0.00  0.00    -0.108 NA
ENDBRANCH   3   7
BRANCH   1  14
ATOM     13  C   UNL     1       9.631   2.340  23.360  0.00  0.00    +0.248 C 
ATOM     14  N   UNL     1      10.377   1.170  23.261  0.00  0.00    -0.281 N 
ATOM     15  H   UNL     1      11.344   1.194  23.558  0.00  0.00    +0.155 HD
ATOM     16  O   UNL     1       8.408   2.413  23.283  0.00  0.00    -0.270 OA
BRANCH  13  22
ATOM     17  F   UNL     1      13.533   5.285  23.183  0.00  0.00    -0.205 F 
ATOM     18  C   UNL     1      12.253   5.074  23.517  0.00  0.00    +0.124 A 
ATOM     19  C   UNL     1      11.507   6.132  24.032  0.00  0.00    +0.038 A 
ATOM     20  C   UNL     1      10.170   5.934  24.361  0.00  0.00    +0.004 A 
ATOM     21  C   UNL     1       9.598   4.678  24.162  0.00  0.00    +0.013 A 
ATOM     22  C   UNL     1      10.353   3.610  23.642  0.00  0.00    +0.040 A 
ATOM     23  C   UNL     1      11.695   3.812  23.318  0.00  0.00    +0.051 A 
ENDBRANCH  13  22
ENDBRANCH   1  14
TORSDOF 3
ENDMDL
MODEL 5
REMARK VINA RESULT:      -7.0      2.040      3.059
REMARK  Name = 
REMARK  3 active torsions:
REMARK  status: ('A' for Active; 'I' for Inactive)
REMARK    1  A    between atoms: C_4  and  C_8
REMARK    2  A    between atoms: N_10  and  C_11
REMARK    3  A    between atoms: C_15  and  C_17
REMARK                            x       y       z     vdW  Elec       q    Type
REMARK                         _______ _______ _______ _____ _____    ______ ____
ROOT
ATOM      1  C   UNL     1       7.227  -3.530  25.370  0.00  0.00    +0.034 A 
ATOM      2  C   UNL     1       6.153  -4.238  24.808  0.00  0.00    +0.035 A 
ATOM      3  C   UNL     1       5.703  -5.452  25.376  0.00  0.00    +0.022 A 
ATOM      4  C   UNL     1       6.320  -5.920  26.544  0.00  0.00    +0.012 A 
ATOM      5  C   UNL     1       7.357  -5.203  27.130  0.00  0.00    +0.002 A 
ATOM      6  C   UNL     1       7.801  -4.019  26.548  0.00  0.00    +0.023 A 
ENDROOT
BRANCH   3   7
ATOM      7  C   UNL     1       4.630  -6.212  24.733  0.00  0.00    +0.179 A 
ATOM      8  N   UNL     1       3.813  -5.745  23.733  0.00  0.00    -0.239 N 
ATOM      9  H   UNL     1       3.799  -4.847  23.269  0.00  0.00    +0.192 HD
ATOM     10  N   UNL     1       2.919  -6.676  23.380  0.00  0.00    -0.046 NA
ATOM     11  N   UNL     1       3.183  -7.713  24.157  0.00  0.00    -0.023 NA
ATOM     12  N   UNL     1       4.237  -7.444  24.997  0.00  0.00    -0.108 NA
ENDBRANCH   3   7
BRANCH   1  14
ATOM     13  C   UNL     1       8.921  -2.252  24.077  0.00  0.00    +0.248 C 
ATOM     14  N   UNL     1       7.696  -2.350  24.729  0.00  0.00    -0.281 N 
ATOM     15  H   UNL     1       7.026  -1.602  24.602  0.00  0.00    +0.155 HD
ATOM     16  O   UNL     1       9.722  -3.170  23.926  0.00  0.00    -0.270 OA
BRANCH  13  22
ATOM     17  F   UNL     1      11.145   2.105  24.021  0.00  0.00    -0.205 F 
ATOM     18  C   UNL     1      10.408   1.171  23.405  0.00  0.00    +0.124 A 
ATOM     19  C   UNL     1      10.066   1.354  22.067  0.00  0.00    +0.038 A 
ATOM     20  C   UNL     1       9.322   0.381  21.409  0.00  0.00    +0.004 A 
ATOM     21  C   UNL     1       8.935  -0.766  22.101  0.00  0.00    +0.013 A 
ATOM     22  C   UNL     1       9.281  -0.950  23.453  0.00  0.00    +0.040 A 
ATOM     23  C   UNL     1      10.024   0.031  24.111  0.00  0.00    +0.051 A 
ENDBRANCH  13  22
ENDBRANCH   1  14
TORSDOF 3
ENDMDL
MODEL 6
REMARK VINA RESULT:      -6.8      4.199      8.352
REMARK  Name = 
REMARK  3 active torsions:
REMARK  status: ('A' for Active; 'I' for Inactive)
REMARK    1  A    between atoms: C_4  and  C_8
REMARK    2  A    between atoms: N_10  and  C_11
REMARK    3  A    between atoms: C_15  and  C_17
REMARK                            x       y       z     vdW  Elec       q    Type
REMARK                         _______ _______ _______ _____ _____    ______ ____
ROOT
ATOM      1  C   UNL     1       8.712  -0.185  23.802  0.00  0.00    +0.034 A 
ATOM      2  C   UNL     1       8.259   1.089  23.425  0.00  0.00    +0.035 A 
ATOM      3  C   UNL     1       9.064   2.236  23.617  0.00  0.00    +0.022 A 
ATOM      4  C   UNL     1      10.348   2.077  24.155  0.00  0.00    +0.012 A 
ATOM      5  C   UNL     1      10.819   0.813  24.493  0.00  0.00    +0.002 A 
ATOM      6  C   UNL     1      10.007  -0.305  24.314  0.00  0.00    +0.023 A 
ENDROOT
BRANCH   3   7
ATOM      7  C   UNL     1       8.545   3.564  23.284  0.00  0.00    +0.179 A 
ATOM      8  N   UNL     1       7.767   3.863  22.192  0.00  0.00    -0.239 N 
ATOM      9  H   UNL     1       7.417   3.264  21.458  0.00  0.00    +0.192 HD
ATOM     10  N   UNL     1       7.480   5.170  22.161  0.00  0.00    -0.046 NA
ATOM     11  N   UNL     1       8.076   5.675  23.228  0.00  0.00    -0.023 NA
ATOM     12  N   UNL     1       8.737   4.697  23.933  0.00  0.00    -0.108 NA
ENDBRANCH   3   7
BRANCH   1  14
ATOM     13  C   UNL     1       7.892  -2.191  22.588  0.00  0.00    +0.248 C 
ATOM     14  N   UNL     1       7.845  -1.304  23.657  0.00  0.00    -0.281 N 
ATOM     15  H   UNL     1       7.284  -1.553  24.462  0.00  0.00    +0.155 HD
ATOM     16  O   UNL     1       8.705  -2.158  21.669  0.00  0.00    -0.270 OA
BRANCH  13  22
ATOM     17  F   UNL     1       6.643  -6.887  22.012  0.00  0.00    -0.205 F 
ATOM     18  C   UNL     1       6.311  -5.629  22.330  0.00  0.00    +0.124 A 
ATOM     19  C   UNL     1       5.024  -5.368  22.798  0.00  0.00    +0.038 A 
ATOM     20  C   UNL     1       4.673  -4.070  23.154  0.00  0.00    +0.004 A 
ATOM     21  C   UNL     1       5.619  -3.052  23.041  0.00  0.00    +0.013 A 
ATOM     22  C   UNL     1       6.918  -3.316  22.568  0.00  0.00    +0.040 A 
ATOM     23  C   UNL     1       7.265  -4.619  22.208  0.00  0.00    +0.051 A 
ENDBRANCH  13  22
ENDBRANCH   1  14
TORSDOF 3
ENDMDL
MODEL 7
REMARK VINA RESULT:      -6.8      3.253      4.167
REMARK  Name = 
REMARK  3 active torsions:
REMARK  status: ('A' for Active; 'I' for Inactive)
REMARK    1  A    between atoms: C_4  and  C_8
REMARK    2  A    between atoms: N_10  and  C_11
REMARK    3  A    between atoms: C_15  and  C_17
REMARK                            x       y       z     vdW  Elec       q    Type
REMARK                         _______ _______ _______ _____ _____    ______ ____
ROOT
ATOM      1  C   UNL     1       8.001  -1.724  25.059  0.00  0.00    +0.034 A 
ATOM      2  C   UNL     1       7.458  -2.445  23.984  0.00  0.00    +0.035 A 
ATOM      3  C   UNL     1       7.218  -3.834  24.083  0.00  0.00    +0.022 A 
ATOM      4  C   UNL     1       7.491  -4.481  25.296  0.00  0.00    +0.012 A 
ATOM      5  C   UNL     1       7.991  -3.766  26.379  0.00  0.00    +0.002 A 
ATOM      6  C   UNL     1       8.239  -2.401  26.259  0.00  0.00    +0.023 A 
ENDROOT
BRANCH   3   7
ATOM      7  C   UNL     1       6.720  -4.581  22.926  0.00  0.00    +0.179 A 
ATOM      8  N   UNL     1       7.370  -5.623  22.313  0.00  0.00    -0.239 N 
ATOM      9  H   UNL     1       8.257  -6.056  22.531  0.00  0.00    +0.192 HD
ATOM     10  N   UNL     1       6.662  -6.073  21.270  0.00  0.00    -0.046 NA
ATOM     11  N   UNL     1       5.580  -5.313  21.240  0.00  0.00    -0.023 NA
ATOM     12  N   UNL     1       5.600  -4.387  22.257  0.00  0.00    -0.108 NA
ENDBRANCH   3   7
BRANCH   1  14
ATOM     13  C   UNL     1       9.522   0.149  24.469  0.00  0.00    +0.248 C 
ATOM     14  N   UNL     1       8.293  -0.341  24.896  0.00  0.00    -0.281 N 
ATOM     15  H   UNL     1       7.510   0.298  24.933  0.00  0.00    +0.155 HD
ATOM     16  O   UNL     1      10.485  -0.535  24.133  0.00  0.00    -0.270 OA
BRANCH  13  22
ATOM     17  F   UNL     1      11.836   4.186  22.957  0.00  0.00    -0.205 F 
ATOM     18  C   UNL     1      10.795   3.606  23.568  0.00  0.00    +0.124 A 
ATOM     19  C   UNL     1       9.736   4.402  24.000  0.00  0.00    +0.038 A 
ATOM     20  C   UNL     1       8.638   3.811  24.615  0.00  0.00    +0.004 A 
ATOM     21  C   UNL     1       8.613   2.427  24.784  0.00  0.00    +0.013 A 
ATOM     22  C   UNL     1       9.684   1.623  24.348  0.00  0.00    +0.040 A 
ATOM     23  C   UNL     1      10.787   2.222  23.735  0.00  0.00    +0.051 A 
ENDBRANCH  13  22
ENDBRANCH   1  14
TORSDOF 3
ENDMDL
MODEL 8
REMARK VINA RESULT:      -6.7      4.264      7.755
REMARK  Name = 
REMARK  3 active torsions:
REMARK  status: ('A' for Active; 'I' for Inactive)
REMARK    1  A    between atoms: C_4  and  C_8
REMARK    2  A    between atoms: N_10  and  C_11
REMARK    3  A    between atoms: C_15  and  C_17
REMARK                            x       y       z     vdW  Elec       q    Type
REMARK                         _______ _______ _______ _____ _____    ______ ____
ROOT
ATOM      1  C   UNL     1       8.372  -0.173  22.783  0.00  0.00    +0.034 A 
ATOM      2  C   UNL     1       8.042   0.771  23.769  0.00  0.00    +0.035 A 
ATOM      3  C   UNL     1       8.717   2.010  23.847  0.00  0.00    +0.022 A 
ATOM      4  C   UNL     1       9.700   2.305  22.893  0.00  0.00    +0.012 A 
ATOM      5  C   UNL     1      10.004   1.392  21.889  0.00  0.00    +0.002 A 
ATOM      6  C   UNL     1       9.343   0.168  21.836  0.00  0.00    +0.023 A 
ENDROOT
BRANCH   3   7
ATOM      7  C   UNL     1       8.407   2.950  24.927  0.00  0.00    +0.179 A 
ATOM      8  N   UNL     1       7.745   2.637  26.088  0.00  0.00    -0.239 N 
ATOM      9  H   UNL     1       7.373   1.754  26.408  0.00  0.00    +0.192 HD
ATOM     10  N   UNL     1       7.600   3.723  26.856  0.00  0.00    -0.046 NA
ATOM     11  N   UNL     1       8.170   4.702  26.173  0.00  0.00    -0.023 NA
ATOM     12  N   UNL     1       8.675   4.241  24.980  0.00  0.00    -0.108 NA
ENDBRANCH   3   7
BRANCH   1  14
ATOM     13  C   UNL     1       8.282  -2.605  23.282  0.00  0.00    +0.248 C 
ATOM     14  N   UNL     1       7.719  -1.437  22.781  0.00  0.00    -0.281 N 
ATOM     15  H   UNL     1       6.733  -1.440  22.554  0.00  0.00    +0.155 HD
ATOM     16  O   UNL     1       9.377  -2.690  23.831  0.00  0.00    -0.270 OA
BRANCH  13  22
ATOM     17  F   UNL     1       5.565  -6.180  25.225  0.00  0.00    -0.205 F 
ATOM     18  C   UNL     1       6.109  -5.589  24.153  0.00  0.00    +0.124 A 
ATOM     19  C   UNL     1       5.808  -6.080  22.884  0.00  0.00    +0.038 A 
ATOM     20  C   UNL     1       6.347  -5.461  21.762  0.00  0.00    +0.004 A 
ATOM     21  C   UNL     1       7.177  -4.353  21.926  0.00  0.00    +0.013 A 
ATOM     22  C   UNL     1       7.480  -3.857  23.209  0.00  0.00    +0.040 A 
ATOM     23  C   UNL     1       6.941  -4.484  24.333  0.00  0.00    +0.051 A 
ENDBRANCH  13  22
ENDBRANCH   1  14
TORSDOF 3
ENDMDL
MODEL 9
REMARK VINA RESULT:      -6.7      2.151      2.952
REMARK  Name = 
REMARK  3 active torsions:
REMARK  status: ('A' for Active; 'I' for Inactive)
REMARK    1  A    between atoms: C_4  and  C_8
REMARK    2  A    between atoms: N_10  and  C_11
REMARK    3  A    between atoms: C_15  and  C_17
REMARK                            x       y       z     vdW  Elec       q    Type
REMARK                         _______ _______ _______ _____ _____    ______ ____
ROOT
ATOM      1  C   UNL     1       7.268  -3.413  25.197  0.00  0.00    +0.034 A 
ATOM      2  C   UNL     1       6.121  -3.883  24.539  0.00  0.00    +0.035 A 
ATOM      3  C   UNL     1       5.518  -5.106  24.910  0.00  0.00    +0.022 A 
ATOM      4  C   UNL     1       6.060  -5.829  25.980  0.00  0.00    +0.012 A 
ATOM      5  C   UNL     1       7.173  -5.350  26.663  0.00  0.00    +0.002 A 
ATOM      6  C   UNL     1       7.766  -4.152  26.274  0.00  0.00    +0.023 A 
ENDROOT
BRANCH   3   7
ATOM      7  C   UNL     1       4.364  -5.614  24.164  0.00  0.00    +0.179 A 
ATOM      8  N   UNL     1       3.643  -6.738  24.484  0.00  0.00    -0.239 N 
ATOM      9  H   UNL     1       3.753  -7.386  25.251  0.00  0.00    +0.192 HD
ATOM     10  N   UNL     1       2.668  -6.943  23.590  0.00  0.00    -0.046 NA
ATOM     11  N   UNL     1       2.787  -5.952  22.723  0.00  0.00    -0.023 NA
ATOM     12  N   UNL     1       3.829  -5.121  23.063  0.00  0.00    -0.108 NA
ENDBRANCH   3   7
BRANCH   1  14
ATOM     13  C   UNL     1       9.151  -2.156  24.171  0.00  0.00    +0.248 C 
ATOM     14  N   UNL     1       7.887  -2.212  24.748  0.00  0.00    -0.281 N 
ATOM     15  H   UNL     1       7.301  -1.389  24.698  0.00  0.00    +0.155 HD
ATOM     16  O   UNL     1       9.867  -3.124  23.928  0.00  0.00    -0.270 OA
BRANCH  13  22
ATOM     17  F   UNL     1       9.566   1.597  21.061  0.00  0.00    -0.205 F 
ATOM     18  C   UNL     1       9.842   1.037  22.246  0.00  0.00    +0.124 A 
ATOM     19  C   UNL     1      10.538   1.779  23.199  0.00  0.00    +0.038 A 
ATOM     20  C   UNL     1      10.810   1.218  24.442  0.00  0.00    +0.004 A 
ATOM     21  C   UNL     1      10.375  -0.078  24.716  0.00  0.00    +0.013 A 
ATOM     22  C   UNL     1       9.672  -0.827  23.753  0.00  0.00    +0.040 A 
ATOM     23  C   UNL     1       9.405  -0.262  22.504  0.00  0.00    +0.051 A 
ENDBRANCH  13  22
ENDBRANCH   1  14
TORSDOF 3
ENDMDL
