MODEL 1
REMARK VINA RESULT:      -4.0      0.000      0.000
REMARK  Name = 
REMARK  7 active torsions:
REMARK  status: ('A' for Active; 'I' for Inactive)
REMARK    1  A    between atoms: CA_2  and  CB_3
REMARK    2  A    between atoms: CA_2  and  N_7
REMARK    3  A    between atoms: CA_2  and  C_10
REMARK    4  A    between atoms: CB_3  and  CG_4
REMARK    5  A    between atoms: CG_4  and  SD_5
REMARK    6  A    between atoms: SD_5  and  CE_6
REMARK    7  A    between atoms: C_10  and  O_11
REMARK                            x       y       z     vdW  Elec       q    Type
REMARK                         _______ _______ _______ _____ _____    ______ ____
ROOT
ATOM      1  CA  MET A   1       8.045  -5.121  24.881  0.00  0.00    +0.182 C 
ENDROOT
BRANCH   1   2
ATOM      2  N   MET A   1       7.217  -4.388  25.846  0.00  0.00    -0.305 N 
ATOM      3  H   MET A   1       6.722  -3.566  25.520  0.00  0.00    +0.149 HD
ATOM      4  C   UNK A   0       7.069  -4.748  27.158  0.00  0.00    +0.326 C 
ATOM      5  O   UNK A   0       7.546  -5.770  27.635  0.00  0.00    -0.280 OA
ENDBRANCH   1   2
BRANCH   1   6
ATOM      6  C   MET A   1       9.538  -4.788  25.022  0.00  0.00    +0.325 C 
ATOM      7  OXT MET A   1      10.064  -3.849  24.438  0.00  0.00    -0.249 OA
BRANCH   6   8
ATOM      8  O   MET A   1      10.218  -5.556  25.900  0.00  0.00    -0.479 OA
ATOM      9  H   MET A   1      10.444  -5.088  26.743  0.00  0.00    +0.295 HD
ENDBRANCH   6   8
ENDBRANCH   1   6
BRANCH   1  10
ATOM     10  CB  MET A   1       7.550  -4.966  23.435  0.00  0.00    +0.044 C 
BRANCH  10  11
ATOM     11  CG  MET A   1       6.896  -3.607  23.173  0.00  0.00    +0.071 C 
BRANCH  11  12
ATOM     12  SD  MET A   1       5.877  -3.720  21.667  0.00  0.00    -0.164 S 
ATOM     13  CE  MET A   1       6.257  -5.425  21.199  0.00  0.00    +0.084 C 
ENDBRANCH  11  12
ENDBRANCH  10  11
ENDBRANCH   1  10
TORSDOF 6
ENDMDL
MODEL 2
REMARK VINA RESULT:      -4.0      2.756      3.630
REMARK  Name = 
REMARK  7 active torsions:
REMARK  status: ('A' for Active; 'I' for Inactive)
REMARK    1  A    between atoms: CA_2  and  CB_3
REMARK    2  A    between atoms: CA_2  and  N_7
REMARK    3  A    between atoms: CA_2  and  C_10
REMARK    4  A    between atoms: CB_3  and  CG_4
REMARK    5  A    between atoms: CG_4  and  SD_5
REMARK    6  A    between atoms: SD_5  and  CE_6
REMARK    7  A    between atoms: C_10  and  O_11
REMARK                            x       y       z     vdW  Elec       q    Type
REMARK                         _______ _______ _______ _____ _____    ______ ____
ROOT
ATOM      1  CA  MET A   1       8.363  -4.644  24.084  0.00  0.00    +0.182 C 
ENDROOT
BRANCH   1   2
ATOM      2  N   MET A   1       6.971  -5.000  23.784  0.00  0.00    -0.305 N 
ATOM      3  H   MET A   1       6.262  -4.761  24.468  0.00  0.00    +0.149 HD
ATOM      4  C   UNK A   0       6.570  -5.628  22.637  0.00  0.00    +0.326 C 
ATOM      5  O   UNK A   0       7.326  -5.880  21.706  0.00  0.00    -0.280 OA
ENDBRANCH   1   2
BRANCH   1   6
ATOM      6  C   MET A   1       8.893  -5.364  25.334  0.00  0.00    +0.325 C 
ATOM      7  OXT MET A   1       8.159  -5.754  26.232  0.00  0.00    -0.249 OA
BRANCH   6   8
ATOM      8  O   MET A   1      10.221  -5.609  25.336  0.00  0.00    -0.479 OA
ATOM      9  H   MET A   1      10.749  -4.923  25.818  0.00  0.00    +0.295 HD
ENDBRANCH   6   8
ENDBRANCH   1   6
BRANCH   1  10
ATOM     10  CB  MET A   1       8.588  -3.126  24.151  0.00  0.00    +0.044 C 
BRANCH  10  11
ATOM     11  CG  MET A   1       8.584  -2.463  22.770  0.00  0.00    +0.071 C 
BRANCH  11  12
ATOM     12  SD  MET A   1      10.112  -1.492  22.573  0.00  0.00    -0.164 S 
ATOM     13  CE  MET A   1       9.473  -0.175  21.511  0.00  0.00    +0.084 C 
ENDBRANCH  11  12
ENDBRANCH  10  11
ENDBRANCH   1  10
TORSDOF 6
ENDMDL
MODEL 3
REMARK VINA RESULT:      -3.9      5.972      7.137
REMARK  Name = 
REMARK  7 active torsions:
REMARK  status: ('A' for Active; 'I' for Inactive)
REMARK    1  A    between atoms: CA_2  and  CB_3
REMARK    2  A    between atoms: CA_2  and  N_7
REMARK    3  A    between atoms: CA_2  and  C_10
REMARK    4  A    between atoms: CB_3  and  CG_4
REMARK    5  A    between atoms: CG_4  and  SD_5
REMARK    6  A    between atoms: SD_5  and  CE_6
REMARK    7  A    between atoms: C_10  and  O_11
REMARK                            x       y       z     vdW  Elec       q    Type
REMARK                         _______ _______ _______ _____ _____    ______ ____
ROOT
ATOM      1  CA  MET A   1      10.189   1.502  23.830  0.00  0.00    +0.182 C 
ENDROOT
BRANCH   1   2
ATOM      2  N   MET A   1       9.082   2.212  24.481  0.00  0.00    -0.305 N 
ATOM      3  H   MET A   1       8.395   1.662  24.983  0.00  0.00    +0.149 HD
ATOM      4  C   UNK A   0       8.924   3.571  24.459  0.00  0.00    +0.326 C 
ATOM      5  O   UNK A   0       9.741   4.337  23.963  0.00  0.00    -0.280 OA
ENDBRANCH   1   2
BRANCH   1   6
ATOM      6  C   MET A   1       9.979   1.359  22.315  0.00  0.00    +0.325 C 
ATOM      7  OXT MET A   1       9.440   0.381  21.812  0.00  0.00    -0.249 OA
BRANCH   6   8
ATOM      8  O   MET A   1      10.359   2.425  21.578  0.00  0.00    -0.479 OA
ATOM      9  H   MET A   1      11.121   2.237  20.973  0.00  0.00    +0.295 HD
ENDBRANCH   6   8
ENDBRANCH   1   6
BRANCH   1  10
ATOM     10  CB  MET A   1      10.511   0.158  24.500  0.00  0.00    +0.044 C 
BRANCH  10  11
ATOM     11  CG  MET A   1       9.421  -0.296  25.475  0.00  0.00    +0.071 C 
BRANCH  11  12
ATOM     12  SD  MET A   1       8.543  -1.723  24.760  0.00  0.00    -0.164 S 
ATOM     13  CE  MET A   1       9.908  -2.451  23.823  0.00  0.00    +0.084 C 
ENDBRANCH  11  12
ENDBRANCH  10  11
ENDBRANCH   1  10
TORSDOF 6
ENDMDL
MODEL 4
REMARK VINA RESULT:      -3.9      4.787      5.742
REMARK  Name = 
REMARK  7 active torsions:
REMARK  status: ('A' for Active; 'I' for Inactive)
REMARK    1  A    between atoms: CA_2  and  CB_3
REMARK    2  A    between atoms: CA_2  and  N_7
REMARK    3  A    between atoms: CA_2  and  C_10
REMARK    4  A    between atoms: CB_3  and  CG_4
REMARK    5  A    between atoms: CG_4  and  SD_5
REMARK    6  A    between atoms: SD_5  and  CE_6
REMARK    7  A    between atoms: C_10  and  O_11
REMARK                            x       y       z     vdW  Elec       q    Type
REMARK                         _______ _______ _______ _____ _____    ______ ____
ROOT
ATOM      1  CA  MET A   1       9.539  -0.572  23.727  0.00  0.00    +0.182 C 
ENDROOT
BRANCH   1   2
ATOM      2  N   MET A   1       8.368  -0.836  24.571  0.00  0.00    -0.305 N 
ATOM      3  H   MET A   1       8.528  -1.088  25.539  0.00  0.00    +0.149 HD
ATOM      4  C   UNK A   0       7.074  -0.758  24.133  0.00  0.00    +0.326 C 
ATOM      5  O   UNK A   0       6.763  -0.376  23.012  0.00  0.00    -0.280 OA
ENDBRANCH   1   2
BRANCH   1   6
ATOM      6  C   MET A   1      10.145  -1.860  23.150  0.00  0.00    +0.325 C 
ATOM      7  OXT MET A   1      10.197  -2.907  23.783  0.00  0.00    -0.249 OA
BRANCH   6   8
ATOM      8  O   MET A   1      10.546  -1.781  21.863  0.00  0.00    -0.479 OA
ATOM      9  H   MET A   1      10.808  -0.867  21.585  0.00  0.00    +0.295 HD
ENDBRANCH   6   8
ENDBRANCH   1   6
BRANCH   1  10
ATOM     10  CB  MET A   1      10.592   0.301  24.426  0.00  0.00    +0.044 C 
BRANCH  10  11
ATOM     11  CG  MET A   1      10.544   1.764  23.975  0.00  0.00    +0.071 C 
BRANCH  11  12
ATOM     12  SD  MET A   1       9.883   1.841  22.279  0.00  0.00    -0.164 S 
ATOM     13  CE  MET A   1       8.383   2.798  22.606  0.00  0.00    +0.084 C 
ENDBRANCH  11  12
ENDBRANCH  10  11
ENDBRANCH   1  10
TORSDOF 6
ENDMDL
MODEL 5
REMARK VINA RESULT:      -3.8      2.069      2.970
REMARK  Name = 
REMARK  7 active torsions:
REMARK  status: ('A' for Active; 'I' for Inactive)
REMARK    1  A    between atoms: CA_2  and  CB_3
REMARK    2  A    between atoms: CA_2  and  N_7
REMARK    3  A    between atoms: CA_2  and  C_10
REMARK    4  A    between atoms: CB_3  and  CG_4
REMARK    5  A    between atoms: CG_4  and  SD_5
REMARK    6  A    between atoms: SD_5  and  CE_6
REMARK    7  A    between atoms: C_10  and  O_11
REMARK                            x       y       z     vdW  Elec       q    Type
REMARK                         _______ _______ _______ _____ _____    ______ ____
ROOT
ATOM      1  CA  MET A   1       8.794  -3.820  24.659  0.00  0.00    +0.182 C 
ENDROOT
BRANCH   1   2
ATOM      2  N   MET A   1       9.842  -2.990  24.052  0.00  0.00    -0.305 N 
ATOM      3  H   MET A   1      10.683  -3.452  23.724  0.00  0.00    +0.149 HD
ATOM      4  C   UNK A   0       9.752  -1.634  23.897  0.00  0.00    +0.326 C 
ATOM      5  O   UNK A   0       8.748  -0.989  24.173  0.00  0.00    -0.280 OA
ENDBRANCH   1   2
BRANCH   1   6
ATOM      6  C   MET A   1       9.342  -4.733  25.767  0.00  0.00    +0.325 C 
ATOM      7  OXT MET A   1       8.955  -4.671  26.926  0.00  0.00    -0.249 OA
BRANCH   6   8
ATOM      8  O   MET A   1      10.227  -5.667  25.357  0.00  0.00    -0.479 OA
ATOM      9  H   MET A   1       9.913  -6.597  25.492  0.00  0.00    +0.295 HD
ENDBRANCH   6   8
ENDBRANCH   1   6
BRANCH   1  10
ATOM     10  CB  MET A   1       7.974  -4.599  23.619  0.00  0.00    +0.044 C 
BRANCH  10  11
ATOM     11  CG  MET A   1       6.650  -5.124  24.180  0.00  0.00    +0.071 C 
BRANCH  11  12
ATOM     12  SD  MET A   1       5.621  -5.728  22.803  0.00  0.00    -0.164 S 
ATOM     13  CE  MET A   1       6.901  -5.853  21.531  0.00  0.00    +0.084 C 
ENDBRANCH  11  12
ENDBRANCH  10  11
ENDBRANCH   1  10
TORSDOF 6
ENDMDL
MODEL 6
REMARK VINA RESULT:      -3.8      4.819      5.883
REMARK  Name = 
REMARK  7 active torsions:
REMARK  status: ('A' for Active; 'I' for Inactive)
REMARK    1  A    between atoms: CA_2  and  CB_3
REMARK    2  A    between atoms: CA_2  and  N_7
REMARK    3  A    between atoms: CA_2  and  C_10
REMARK    4  A    between atoms: CB_3  and  CG_4
REMARK    5  A    between atoms: CG_4  and  SD_5
REMARK    6  A    between atoms: SD_5  and  CE_6
REMARK    7  A    between atoms: C_10  and  O_11
REMARK                            x       y       z     vdW  Elec       q    Type
REMARK                         _______ _______ _______ _____ _____    ______ ____
ROOT
ATOM      1  CA  MET A   1       9.653  -0.013  22.476  0.00  0.00    +0.182 C 
ENDROOT
BRANCH   1   2
ATOM      2  N   MET A   1       9.475   0.104  23.928  0.00  0.00    -0.305 N 
ATOM      3  H   MET A   1       8.604  -0.228  24.327  0.00  0.00    +0.149 HD
ATOM      4  C   UNK A   0      10.411   0.628  24.776  0.00  0.00    +0.326 C 
ATOM      5  O   UNK A   0      11.530   0.974  24.415  0.00  0.00    -0.280 OA
ENDBRANCH   1   2
BRANCH   1   6
ATOM      6  C   MET A   1       9.319   1.294  21.740  0.00  0.00    +0.325 C 
ATOM      7  OXT MET A   1       8.204   1.537  21.297  0.00  0.00    -0.249 OA
BRANCH   6   8
ATOM      8  O   MET A   1      10.324   2.195  21.684  0.00  0.00    -0.479 OA
ATOM      9  H   MET A   1      11.208   1.791  21.491  0.00  0.00    +0.295 HD
ENDBRANCH   6   8
ENDBRANCH   1   6
BRANCH   1  10
ATOM     10  CB  MET A   1       8.912  -1.219  21.879  0.00  0.00    +0.044 C 
BRANCH  10  11
ATOM     11  CG  MET A   1       7.703  -1.647  22.717  0.00  0.00    +0.071 C 
BRANCH  11  12
ATOM     12  SD  MET A   1       7.380  -3.417  22.431  0.00  0.00    -0.164 S 
ATOM     13  CE  MET A   1       5.585  -3.344  22.224  0.00  0.00    +0.084 C 
ENDBRANCH  11  12
ENDBRANCH  10  11
ENDBRANCH   1  10
TORSDOF 6
ENDMDL
MODEL 7
REMARK VINA RESULT:      -3.8      3.609      4.620
REMARK  Name = 
REMARK  7 active torsions:
REMARK  status: ('A' for Active; 'I' for Inactive)
REMARK    1  A    between atoms: CA_2  and  CB_3
REMARK    2  A    between atoms: CA_2  and  N_7
REMARK    3  A    between atoms: CA_2  and  C_10
REMARK    4  A    between atoms: CB_3  and  CG_4
REMARK    5  A    between atoms: CG_4  and  SD_5
REMARK    6  A    between atoms: SD_5  and  CE_6
REMARK    7  A    between atoms: C_10  and  O_11
REMARK                            x       y       z     vdW  Elec       q    Type
REMARK                         _______ _______ _______ _____ _____    ______ ____
ROOT
ATOM      1  CA  MET A   1       9.848  -1.979  23.857  0.00  0.00    +0.182 C 
ENDROOT
BRANCH   1   2
ATOM      2  N   MET A   1       9.417  -0.900  24.754  0.00  0.00    -0.305 N 
ATOM      3  H   MET A   1       8.566  -1.038  25.288  0.00  0.00    +0.149 HD
ATOM      4  C   UNK A   0      10.094   0.277  24.918  0.00  0.00    +0.326 C 
ATOM      5  O   UNK A   0      11.176   0.512  24.394  0.00  0.00    -0.280 OA
ENDBRANCH   1   2
BRANCH   1   6
ATOM      6  C   MET A   1       9.312  -1.799  22.428  0.00  0.00    +0.325 C 
ATOM      7  OXT MET A   1       8.118  -1.833  22.162  0.00  0.00    -0.249 OA
BRANCH   6   8
ATOM      8  O   MET A   1      10.246  -1.520  21.494  0.00  0.00    -0.479 OA
ATOM      9  H   MET A   1      11.160  -1.807  21.749  0.00  0.00    +0.295 HD
ENDBRANCH   6   8
ENDBRANCH   1   6
BRANCH   1  10
ATOM     10  CB  MET A   1       9.545  -3.377  24.417  0.00  0.00    +0.044 C 
BRANCH  10  11
ATOM     11  CG  MET A   1       8.477  -3.358  25.514  0.00  0.00    +0.071 C 
BRANCH  11  12
ATOM     12  SD  MET A   1       7.006  -4.256  24.924  0.00  0.00    -0.164 S 
ATOM     13  CE  MET A   1       7.748  -5.115  23.517  0.00  0.00    +0.084 C 
ENDBRANCH  11  12
ENDBRANCH  10  11
ENDBRANCH   1  10
TORSDOF 6
ENDMDL
MODEL 8
REMARK VINA RESULT:      -3.7      5.387      6.421
REMARK  Name = 
REMARK  7 active torsions:
REMARK  status: ('A' for Active; 'I' for Inactive)
REMARK    1  A    between atoms: CA_2  and  CB_3
REMARK    2  A    between atoms: CA_2  and  N_7
REMARK    3  A    between atoms: CA_2  and  C_10
REMARK    4  A    between atoms: CB_3  and  CG_4
REMARK    5  A    between atoms: CG_4  and  SD_5
REMARK    6  A    between atoms: SD_5  and  CE_6
REMARK    7  A    between atoms: C_10  and  O_11
REMARK                            x       y       z     vdW  Elec       q    Type
REMARK                         _______ _______ _______ _____ _____    ______ ____
ROOT
ATOM      1  CA  MET A   1      10.152   0.422  22.888  0.00  0.00    +0.182 C 
ENDROOT
BRANCH   1   2
ATOM      2  N   MET A   1       9.206  -0.618  23.307  0.00  0.00    -0.305 N 
ATOM      3  H   MET A   1       8.278  -0.329  23.594  0.00  0.00    +0.149 HD
ATOM      4  C   UNK A   0       9.497  -1.955  23.329  0.00  0.00    +0.326 C 
ATOM      5  O   UNK A   0      10.552  -2.423  22.918  0.00  0.00    -0.280 OA
ENDBRANCH   1   2
BRANCH   1   6
ATOM      6  C   MET A   1      10.630   1.284  24.067  0.00  0.00    +0.325 C 
ATOM      7  OXT MET A   1      11.007   2.441  23.929  0.00  0.00    -0.249 OA
BRANCH   6   8
ATOM      8  O   MET A   1      10.531   0.703  25.282  0.00  0.00    -0.479 OA
ATOM      9  H   MET A   1      11.279   0.085  25.487  0.00  0.00    +0.295 HD
ENDBRANCH   6   8
ENDBRANCH   1   6
BRANCH   1  10
ATOM     10  CB  MET A   1       9.624   1.274  21.724  0.00  0.00    +0.044 C 
BRANCH  10  11
ATOM     11  CG  MET A   1       8.101   1.432  21.747  0.00  0.00    +0.071 C 
BRANCH  11  12
ATOM     12  SD  MET A   1       7.687   3.098  22.355  0.00  0.00    -0.164 S 
ATOM     13  CE  MET A   1       7.169   2.663  24.033  0.00  0.00    +0.084 C 
ENDBRANCH  11  12
ENDBRANCH  10  11
ENDBRANCH   1  10
TORSDOF 6
ENDMDL
MODEL 9
REMARK VINA RESULT:      -3.7      5.392      6.774
REMARK  Name = 
REMARK  7 active torsions:
REMARK  status: ('A' for Active; 'I' for Inactive)
REMARK    1  A    between atoms: CA_2  and  CB_3
REMARK    2  A    between atoms: CA_2  and  N_7
REMARK    3  A    between atoms: CA_2  and  C_10
REMARK    4  A    between atoms: CB_3  and  CG_4
REMARK    5  A    between atoms: CG_4  and  SD_5
REMARK    6  A    between atoms: SD_5  and  CE_6
REMARK    7  A    between atoms: C_10  and  O_11
REMARK                            x       y       z     vdW  Elec       q    Type
REMARK                         _______ _______ _______ _____ _____    ______ ____
ROOT
ATOM      1  CA  MET A   1       8.329   1.166  22.879  0.00  0.00    +0.182 C 
ENDROOT
BRANCH   1   2
ATOM      2  N   MET A   1       7.090   1.663  22.272  0.00  0.00    -0.305 N 
ATOM      3  H   MET A   1       6.368   0.989  22.044  0.00  0.00    +0.149 HD
ATOM      4  C   UNK A   0       6.845   2.981  21.998  0.00  0.00    +0.326 C 
ATOM      5  O   UNK A   0       7.605   3.888  22.314  0.00  0.00    -0.280 OA
ENDBRANCH   1   2
BRANCH   1   6
ATOM      6  C   MET A   1       9.463   1.015  21.852  0.00  0.00    +0.325 C 
ATOM      7  OXT MET A   1       9.714  -0.046  21.297  0.00  0.00    -0.249 OA
BRANCH   6   8
ATOM      8  O   MET A   1      10.114   2.157  21.544  0.00  0.00    -0.479 OA
ATOM      9  H   MET A   1       9.616   2.977  21.792  0.00  0.00    +0.295 HD
ENDBRANCH   6   8
ENDBRANCH   1   6
BRANCH   1  10
ATOM     10  CB  MET A   1       8.118  -0.115  23.701  0.00  0.00    +0.044 C 
BRANCH  10  11
ATOM     11  CG  MET A   1       6.908  -0.928  23.233  0.00  0.00    +0.071 C 
BRANCH  11  12
ATOM     12  SD  MET A   1       7.474  -2.569  22.682  0.00  0.00    -0.164 S 
ATOM     13  CE  MET A   1       9.014  -2.666  23.626  0.00  0.00    +0.084 C 
ENDBRANCH  11  12
ENDBRANCH  10  11
ENDBRANCH   1  10
TORSDOF 6
ENDMDL
