MODEL 1
REMARK VINA RESULT:      -6.4      0.000      0.000
REMARK  Name = 
REMARK  27 active torsions:
REMARK  status: ('A' for Active; 'I' for Inactive)
REMARK    1  A    between atoms: C_1  and  C_2
REMARK    2  A    between atoms: C_2  and  C_3
REMARK    3  A    between atoms: C_2  and  C_4
REMARK    4  A    between atoms: C_4  and  N_6
REMARK    5  A    between atoms: C_4  and  C_53
REMARK    6  A    between atoms: C_7  and  C_9
REMARK    7  A    between atoms: C_9  and  O_11
REMARK    8  A    between atoms: C_9  and  C_19
REMARK    9  A    between atoms: O_11  and  C_12
REMARK   10  A    between atoms: C_12  and  C_13
REMARK   11  A    between atoms: C_19  and  O_21
REMARK   12  A    between atoms: C_19  and  C_22
REMARK   13  A    between atoms: C_22  and  O_24
REMARK   14  A    between atoms: C_22  and  C_25
REMARK   15  A    between atoms: C_25  and  O_27
REMARK   16  A    between atoms: C_25  and  C_35
REMARK   17  A    between atoms: O_27  and  C_28
REMARK   18  A    between atoms: C_28  and  C_29
REMARK   19  A    between atoms: N_37  and  C_38
REMARK   20  A    between atoms: C_38  and  C_40
REMARK   21  A    between atoms: C_38  and  C_43
REMARK   22  A    between atoms: C_40  and  C_41
REMARK   23  A    between atoms: C_40  and  C_42
REMARK   24  A    between atoms: N_45  and  C_46
REMARK   25  A    between atoms: C_46  and  C_47
REMARK   26  A    between atoms: N_55  and  C_56
REMARK   27  A    between atoms: C_56  and  C_57
REMARK                            x       y       z     vdW  Elec       q    Type
REMARK                         _______ _______ _______ _____ _____    ______ ____
ROOT
ATOM      1  C   UNL     1       9.060  -3.739  24.266  0.00  0.00    +0.184 C 
ENDROOT
BRANCH   1   2
ATOM      2  O   UNL     1      10.401  -3.290  23.976  0.00  0.00    -0.386 OA
ATOM      3  H   UNL     1      10.413  -2.335  24.205  0.00  0.00    +0.210 HD
ENDBRANCH   1   2
BRANCH   1   4
ATOM      4  C   UNL     1       8.014  -2.918  23.455  0.00  0.00    +0.235 C 
BRANCH   4   7
ATOM      5  N   UNL     1       8.809  -0.585  23.394  0.00  0.00    -0.302 N 
ATOM      6  H   UNL     1       8.369  -0.527  24.311  0.00  0.00    +0.150 HD
ATOM      7  C   UNL     1       8.731  -1.768  22.696  0.00  0.00    +0.245 C 
ATOM      8  O   UNL     1       9.179  -1.890  21.556  0.00  0.00    -0.273 OA
BRANCH   5   9
ATOM      9  C   UNL     1       9.354   0.659  22.840  0.00  0.00    +0.161 C 
BRANCH   9  10
ATOM     10  C   UNL     1       8.172   1.376  22.141  0.00  0.00    +0.234 C 
ATOM     11  N   UNL     1       7.194   1.868  22.972  0.00  0.00    -0.308 N 
ATOM     12  H   UNL     1       7.336   1.895  23.974  0.00  0.00    +0.149 HD
ATOM     13  O   UNL     1       8.113   1.480  20.915  0.00  0.00    -0.274 OA
BRANCH  11  14
ATOM     14  C   UNL     1       6.050   2.604  22.463  0.00  0.00    +0.159 C 
BRANCH  14  15
ATOM     15  C   UNL     1       6.199   4.093  22.678  0.00  0.00    +0.058 A 
ATOM     16  N   UNL     1       7.216   4.714  22.022  0.00  0.00    -0.258 NA
ATOM     17  C   UNL     1       7.354   6.046  22.211  0.00  0.00    +0.111 A 
ATOM     18  C   UNL     1       6.512   6.805  23.004  0.00  0.00    +0.020 A 
ATOM     19  C   UNL     1       5.465   6.160  23.651  0.00  0.00    +0.003 A 
ATOM     20  C   UNL     1       5.301   4.786  23.487  0.00  0.00    +0.025 A 
ENDBRANCH  14  15
ENDBRANCH  11  14
ENDBRANCH   9  10
BRANCH   9  22
ATOM     21  C   UNL     1      11.067   0.701  24.757  0.00  0.00    +0.009 C 
ATOM     22  C   UNL     1      10.053   1.502  23.934  0.00  0.00    +0.012 C 
ATOM     23  C   UNL     1      10.719   2.766  23.381  0.00  0.00    +0.009 C 
ENDBRANCH   9  22
ENDBRANCH   5   9
ENDBRANCH   4   7
BRANCH   4  24
ATOM     24  O   UNL     1       7.187  -3.663  22.550  0.00  0.00    -0.360 OA
BRANCH  24  25
ATOM     25  C   UNL     1       5.846  -3.182  22.426  0.00  0.00    +0.196 C 
BRANCH  25  26
ATOM     26  C   UNL     1       4.919  -3.984  23.309  0.00  0.00    -0.022 A 
ATOM     27  C   UNL     1       4.660  -5.329  23.013  0.00  0.00    +0.006 A 
ATOM     28  C   UNL     1       3.756  -6.066  23.780  0.00  0.00    +0.000 A 
ATOM     29  C   UNL     1       3.096  -5.464  24.850  0.00  0.00    +0.000 A 
ATOM     30  C   UNL     1       3.348  -4.128  25.156  0.00  0.00    +0.000 A 
ATOM     31  C   UNL     1       4.252  -3.391  24.392  0.00  0.00    +0.006 A 
ENDBRANCH  25  26
ENDBRANCH  24  25
ENDBRANCH   4  24
ENDBRANCH   1   4
BRANCH   1  32
ATOM     32  C   UNL     1       8.920  -3.799  25.806  0.00  0.00    +0.184 C 
BRANCH  32  33
ATOM     33  O   UNL     1       9.585  -4.952  26.334  0.00  0.00    -0.386 OA
ATOM     34  H   UNL     1      10.038  -4.659  27.151  0.00  0.00    +0.210 HD
ENDBRANCH  32  33
BRANCH  32  35
ATOM     35  C   UNL     1       7.473  -3.620  26.369  0.00  0.00    +0.235 C 
BRANCH  35  36
ATOM     36  C   UNL     1       7.314  -2.121  26.767  0.00  0.00    +0.245 C 
ATOM     37  N   UNL     1       6.055  -1.735  27.193  0.00  0.00    -0.302 N 
ATOM     38  H   UNL     1       5.285  -2.378  27.066  0.00  0.00    +0.150 HD
ATOM     39  O   UNL     1       8.241  -1.311  26.697  0.00  0.00    -0.273 OA
BRANCH  37  40
ATOM     40  C   UNL     1       5.732  -0.349  27.591  0.00  0.00    +0.161 C 
BRANCH  40  41
ATOM     41  C   UNL     1       6.076   0.672  26.464  0.00  0.00    +0.234 C 
ATOM     42  N   UNL     1       6.965   1.651  26.833  0.00  0.00    -0.308 N 
ATOM     43  H   UNL     1       7.333   1.655  27.779  0.00  0.00    +0.149 HD
ATOM     44  O   UNL     1       5.535   0.671  25.359  0.00  0.00    -0.274 OA
BRANCH  42  45
ATOM     45  C   UNL     1       7.588   2.529  25.864  0.00  0.00    +0.159 C 
BRANCH  45  46
ATOM     46  C   UNL     1       7.637   3.954  26.373  0.00  0.00    +0.058 A 
ATOM     47  N   UNL     1       7.037   4.213  27.564  0.00  0.00    -0.258 NA
ATOM     48  C   UNL     1       7.124   5.475  28.040  0.00  0.00    +0.111 A 
ATOM     49  C   UNL     1       7.799   6.499  27.396  0.00  0.00    +0.020 A 
ATOM     50  C   UNL     1       8.421   6.215  26.187  0.00  0.00    +0.003 A 
ATOM     51  C   UNL     1       8.342   4.926  25.666  0.00  0.00    +0.025 A 
ENDBRANCH  45  46
ENDBRANCH  42  45
ENDBRANCH  40  41
BRANCH  40  52
ATOM     52  C   UNL     1       4.262  -0.202  28.075  0.00  0.00    +0.012 C 
ATOM     53  C   UNL     1       4.149  -0.387  29.592  0.00  0.00    +0.009 C 
ATOM     54  C   UNL     1       3.266  -1.142  27.381  0.00  0.00    +0.009 C 
ENDBRANCH  40  52
ENDBRANCH  37  40
ENDBRANCH  35  36
BRANCH  35  55
ATOM     55  O   UNL     1       7.233  -4.541  27.436  0.00  0.00    -0.360 OA
BRANCH  55  56
ATOM     56  C   UNL     1       6.294  -5.563  27.103  0.00  0.00    +0.196 C 
BRANCH  56  57
ATOM     57  C   UNL     1       5.063  -5.563  27.977  0.00  0.00    -0.022 A 
ATOM     58  C   UNL     1       4.311  -6.746  28.084  0.00  0.00    +0.006 A 
ATOM     59  C   UNL     1       3.167  -6.798  28.883  0.00  0.00    +0.000 A 
ATOM     60  C   UNL     1       2.761  -5.667  29.585  0.00  0.00    +0.000 A 
ATOM     61  C   UNL     1       3.493  -4.486  29.483  0.00  0.00    +0.000 A 
ATOM     62  C   UNL     1       4.638  -4.432  28.681  0.00  0.00    +0.006 A 
ENDBRANCH  56  57
ENDBRANCH  55  56
ENDBRANCH  35  55
ENDBRANCH  32  35
ENDBRANCH   1  32
TORSDOF 23
ENDMDL
MODEL 2
REMARK VINA RESULT:      -6.3      2.219      7.777
REMARK  Name = 
REMARK  27 active torsions:
REMARK  status: ('A' for Active; 'I' for Inactive)
REMARK    1  A    between atoms: C_1  and  C_2
REMARK    2  A    between atoms: C_2  and  C_3
REMARK    3  A    between atoms: C_2  and  C_4
REMARK    4  A    between atoms: C_4  and  N_6
REMARK    5  A    between atoms: C_4  and  C_53
REMARK    6  A    between atoms: C_7  and  C_9
REMARK    7  A    between atoms: C_9  and  O_11
REMARK    8  A    between atoms: C_9  and  C_19
REMARK    9  A    between atoms: O_11  and  C_12
REMARK   10  A    between atoms: C_12  and  C_13
REMARK   11  A    between atoms: C_19  and  O_21
REMARK   12  A    between atoms: C_19  and  C_22
REMARK   13  A    between atoms: C_22  and  O_24
REMARK   14  A    between atoms: C_22  and  C_25
REMARK   15  A    between atoms: C_25  and  O_27
REMARK   16  A    between atoms: C_25  and  C_35
REMARK   17  A    between atoms: O_27  and  C_28
REMARK   18  A    between atoms: C_28  and  C_29
REMARK   19  A    between atoms: N_37  and  C_38
REMARK   20  A    between atoms: C_38  and  C_40
REMARK   21  A    between atoms: C_38  and  C_43
REMARK   22  A    between atoms: C_40  and  C_41
REMARK   23  A    between atoms: C_40  and  C_42
REMARK   24  A    between atoms: N_45  and  C_46
REMARK   25  A    between atoms: C_46  and  C_47
REMARK   26  A    between atoms: N_55  and  C_56
REMARK   27  A    between atoms: C_56  and  C_57
REMARK                            x       y       z     vdW  Elec       q    Type
REMARK                         _______ _______ _______ _____ _____    ______ ____
ROOT
ATOM      1  C   UNL     1       6.876   1.916  26.328  0.00  0.00    +0.184 C 
ENDROOT
BRANCH   1   2
ATOM      2  O   UNL     1       8.279   1.838  26.000  0.00  0.00    -0.386 OA
ATOM      3  H   UNL     1       8.583   2.768  25.919  0.00  0.00    +0.210 HD
ENDBRANCH   1   2
BRANCH   1   4
ATOM      4  C   UNL     1       6.501   3.346  26.817  0.00  0.00    +0.235 C 
BRANCH   4   7
ATOM      5  N   UNL     1       7.523   4.309  24.790  0.00  0.00    -0.302 N 
ATOM      6  H   UNL     1       7.004   3.573  24.313  0.00  0.00    +0.150 HD
ATOM      7  C   UNL     1       7.452   4.386  26.162  0.00  0.00    +0.245 C 
ATOM      8  O   UNL     1       8.104   5.204  26.811  0.00  0.00    -0.273 OA
BRANCH   5   9
ATOM      9  C   UNL     1       8.427   5.123  23.970  0.00  0.00    +0.161 C 
BRANCH   9  10
ATOM     10  C   UNL     1       9.738   4.309  23.832  0.00  0.00    +0.234 C 
ATOM     11  N   UNL     1       9.592   2.943  23.783  0.00  0.00    -0.308 N 
ATOM     12  H   UNL     1       8.676   2.527  23.679  0.00  0.00    +0.149 HD
ATOM     13  O   UNL     1      10.839   4.859  23.786  0.00  0.00    -0.274 OA
BRANCH  11  14
ATOM     14  C   UNL     1      10.728   2.054  23.607  0.00  0.00    +0.159 C 
BRANCH  14  15
ATOM     15  C   UNL     1      10.303   0.691  23.110  0.00  0.00    +0.058 A 
ATOM     16  N   UNL     1       9.826   0.617  21.839  0.00  0.00    -0.258 NA
ATOM     17  C   UNL     1       9.444  -0.600  21.388  0.00  0.00    +0.111 A 
ATOM     18  C   UNL     1       9.537  -1.762  22.134  0.00  0.00    +0.020 A 
ATOM     19  C   UNL     1      10.046  -1.675  23.424  0.00  0.00    +0.003 A 
ATOM     20  C   UNL     1      10.438  -0.434  23.922  0.00  0.00    +0.025 A 
ENDBRANCH  14  15
ENDBRANCH  11  14
ENDBRANCH   9  10
BRANCH   9  22
ATOM     21  C   UNL     1       6.758   4.467  22.128  0.00  0.00    +0.009 C 
ATOM     22  C   UNL     1       7.770   5.505  22.622  0.00  0.00    +0.012 C 
ATOM     23  C   UNL     1       7.119   6.891  22.645  0.00  0.00    +0.009 C 
ENDBRANCH   9  22
ENDBRANCH   5   9
ENDBRANCH   4   7
BRANCH   4  24
ATOM     24  O   UNL     1       5.136   3.742  26.630  0.00  0.00    -0.360 OA
BRANCH  24  25
ATOM     25  C   UNL     1       4.416   2.978  25.658  0.00  0.00    +0.196 C 
BRANCH  25  26
ATOM     26  C   UNL     1       3.981   3.864  24.514  0.00  0.00    -0.022 A 
ATOM     27  C   UNL     1       4.061   5.258  24.638  0.00  0.00    +0.006 A 
ATOM     28  C   UNL     1       3.602   6.091  23.617  0.00  0.00    +0.000 A 
ATOM     29  C   UNL     1       3.054   5.539  22.460  0.00  0.00    +0.000 A 
ATOM     30  C   UNL     1       2.972   4.155  22.324  0.00  0.00    +0.000 A 
ATOM     31  C   UNL     1       3.431   3.321  23.343  0.00  0.00    +0.006 A 
ENDBRANCH  25  26
ENDBRANCH  24  25
ENDBRANCH   4  24
ENDBRANCH   1   4
BRANCH   1  32
ATOM     32  C   UNL     1       6.551   0.712  27.245  0.00  0.00    +0.184 C 
BRANCH  32  33
ATOM     33  O   UNL     1       7.631   0.454  28.149  0.00  0.00    -0.386 OA
ATOM     34  H   UNL     1       8.390   0.173  27.598  0.00  0.00    +0.210 HD
ENDBRANCH  32  33
BRANCH  32  35
ATOM     35  C   UNL     1       6.039  -0.577  26.526  0.00  0.00    +0.235 C 
BRANCH  35  36
ATOM     36  C   UNL     1       7.171  -1.644  26.627  0.00  0.00    +0.245 C 
ATOM     37  N   UNL     1       6.758  -2.960  26.748  0.00  0.00    -0.302 N 
ATOM     38  H   UNL     1       5.782  -3.143  26.933  0.00  0.00    +0.150 HD
ATOM     39  O   UNL     1       8.368  -1.349  26.617  0.00  0.00    -0.273 OA
BRANCH  37  40
ATOM     40  C   UNL     1       7.703  -4.089  26.871  0.00  0.00    +0.161 C 
BRANCH  40  41
ATOM     41  C   UNL     1       6.989  -5.393  27.340  0.00  0.00    +0.234 C 
ATOM     42  N   UNL     1       5.677  -5.498  26.948  0.00  0.00    -0.308 N 
ATOM     43  H   UNL     1       5.263  -4.752  26.399  0.00  0.00    +0.149 HD
ATOM     44  O   UNL     1       7.513  -6.225  28.078  0.00  0.00    -0.274 OA
BRANCH  42  45
ATOM     45  C   UNL     1       4.933  -6.735  27.075  0.00  0.00    +0.159 C 
BRANCH  45  46
ATOM     46  C   UNL     1       3.756  -6.762  26.125  0.00  0.00    +0.058 A 
ATOM     47  N   UNL     1       3.866  -7.540  25.016  0.00  0.00    -0.258 NA
ATOM     48  C   UNL     1       2.795  -7.601  24.193  0.00  0.00    +0.111 A 
ATOM     49  C   UNL     1       1.602  -6.937  24.427  0.00  0.00    +0.020 A 
ATOM     50  C   UNL     1       1.499  -6.157  25.572  0.00  0.00    +0.003 A 
ATOM     51  C   UNL     1       2.588  -6.068  26.435  0.00  0.00    +0.025 A 
ENDBRANCH  45  46
ENDBRANCH  42  45
ENDBRANCH  40  41
BRANCH  40  52
ATOM     52  C   UNL     1       8.524  -4.315  25.569  0.00  0.00    +0.012 C 
ATOM     53  C   UNL     1       7.760  -5.188  24.568  0.00  0.00    +0.009 C 
ATOM     54  C   UNL     1       9.919  -4.915  25.793  0.00  0.00    +0.009 C 
ENDBRANCH  40  52
ENDBRANCH  37  40
ENDBRANCH  35  36
BRANCH  35  55
ATOM     55  O   UNL     1       5.631  -0.277  25.189  0.00  0.00    -0.360 OA
BRANCH  55  56
ATOM     56  C   UNL     1       6.419  -0.931  24.195  0.00  0.00    +0.196 C 
BRANCH  56  57
ATOM     57  C   UNL     1       5.789  -2.192  23.655  0.00  0.00    -0.022 A 
ATOM     58  C   UNL     1       6.230  -2.689  22.416  0.00  0.00    +0.006 A 
ATOM     59  C   UNL     1       5.682  -3.855  21.876  0.00  0.00    +0.000 A 
ATOM     60  C   UNL     1       4.686  -4.537  22.569  0.00  0.00    +0.000 A 
ATOM     61  C   UNL     1       4.235  -4.051  23.795  0.00  0.00    +0.000 A 
ATOM     62  C   UNL     1       4.782  -2.883  24.336  0.00  0.00    +0.006 A 
ENDBRANCH  56  57
ENDBRANCH  55  56
ENDBRANCH  35  55
ENDBRANCH  32  35
ENDBRANCH   1  32
TORSDOF 23
ENDMDL
MODEL 3
REMARK VINA RESULT:      -6.2      2.054      7.383
REMARK  Name = 
REMARK  27 active torsions:
REMARK  status: ('A' for Active; 'I' for Inactive)
REMARK    1  A    between atoms: C_1  and  C_2
REMARK    2  A    between atoms: C_2  and  C_3
REMARK    3  A    between atoms: C_2  and  C_4
REMARK    4  A    between atoms: C_4  and  N_6
REMARK    5  A    between atoms: C_4  and  C_53
REMARK    6  A    between atoms: C_7  and  C_9
REMARK    7  A    between atoms: C_9  and  O_11
REMARK    8  A    between atoms: C_9  and  C_19
REMARK    9  A    between atoms: O_11  and  C_12
REMARK   10  A    between atoms: C_12  and  C_13
REMARK   11  A    between atoms: C_19  and  O_21
REMARK   12  A    between atoms: C_19  and  C_22
REMARK   13  A    between atoms: C_22  and  O_24
REMARK   14  A    between atoms: C_22  and  C_25
REMARK   15  A    between atoms: C_25  and  O_27
REMARK   16  A    between atoms: C_25  and  C_35
REMARK   17  A    between atoms: O_27  and  C_28
REMARK   18  A    between atoms: C_28  and  C_29
REMARK   19  A    between atoms: N_37  and  C_38
REMARK   20  A    between atoms: C_38  and  C_40
REMARK   21  A    between atoms: C_38  and  C_43
REMARK   22  A    between atoms: C_40  and  C_41
REMARK   23  A    between atoms: C_40  and  C_42
REMARK   24  A    between atoms: N_45  and  C_46
REMARK   25  A    between atoms: C_46  and  C_47
REMARK   26  A    between atoms: N_55  and  C_56
REMARK   27  A    between atoms: C_56  and  C_57
REMARK                            x       y       z     vdW  Elec       q    Type
REMARK                         _______ _______ _______ _____ _____    ______ ____
ROOT
ATOM      1  C   UNL     1       8.106  -1.491  26.973  0.00  0.00    +0.184 C 
ENDROOT
BRANCH   1   2
ATOM      2  O   UNL     1       8.864  -0.309  27.305  0.00  0.00    -0.386 OA
ATOM      3  H   UNL     1       9.710  -0.637  27.681  0.00  0.00    +0.210 HD
ENDBRANCH   1   2
BRANCH   1   4
ATOM      4  C   UNL     1       8.916  -2.419  26.020  0.00  0.00    +0.235 C 
BRANCH   4   7
ATOM      5  N   UNL     1       7.173  -4.159  26.137  0.00  0.00    -0.302 N 
ATOM      6  H   UNL     1       6.542  -3.385  25.934  0.00  0.00    +0.150 HD
ATOM      7  C   UNL     1       8.517  -3.899  26.272  0.00  0.00    +0.245 C 
ATOM      8  O   UNL     1       9.328  -4.771  26.584  0.00  0.00    -0.273 OA
BRANCH   5   9
ATOM      9  C   UNL     1       6.558  -5.460  26.423  0.00  0.00    +0.161 C 
BRANCH   9  10
ATOM     10  C   UNL     1       6.308  -5.495  27.951  0.00  0.00    +0.234 C 
ATOM     11  N   UNL     1       5.374  -4.607  28.427  0.00  0.00    -0.308 N 
ATOM     12  H   UNL     1       4.783  -4.091  27.787  0.00  0.00    +0.149 HD
ATOM     13  O   UNL     1       6.926  -6.264  28.689  0.00  0.00    -0.274 OA
BRANCH  11  14
ATOM     14  C   UNL     1       5.002  -4.559  29.830  0.00  0.00    +0.159 C 
BRANCH  14  15
ATOM     15  C   UNL     1       3.702  -3.817  30.043  0.00  0.00    +0.058 A 
ATOM     16  N   UNL     1       3.782  -2.475  30.247  0.00  0.00    -0.258 NA
ATOM     17  C   UNL     1       2.623  -1.805  30.438  0.00  0.00    +0.111 A 
ATOM     18  C   UNL     1       1.375  -2.402  30.412  0.00  0.00    +0.020 A 
ATOM     19  C   UNL     1       1.307  -3.770  30.182  0.00  0.00    +0.003 A 
ATOM     20  C   UNL     1       2.484  -4.491  29.992  0.00  0.00    +0.025 A 
ENDBRANCH  14  15
ENDBRANCH  11  14
ENDBRANCH   9  10
BRANCH   9  22
ATOM     21  C   UNL     1       4.610  -7.029  25.826  0.00  0.00    +0.009 C 
ATOM     22  C   UNL     1       5.287  -5.680  25.566  0.00  0.00    +0.012 C 
ATOM     23  C   UNL     1       4.263  -4.550  25.713  0.00  0.00    +0.009 C 
ENDBRANCH   9  22
ENDBRANCH   5   9
ENDBRANCH   4   7
BRANCH   4  24
ATOM     24  O   UNL     1       8.831  -2.119  24.620  0.00  0.00    -0.360 OA
BRANCH  24  25
ATOM     25  C   UNL     1      10.088  -1.899  23.975  0.00  0.00    +0.196 C 
BRANCH  25  26
ATOM     26  C   UNL     1      10.191  -0.467  23.504  0.00  0.00    -0.022 A 
ATOM     27  C   UNL     1      10.547   0.544  24.408  0.00  0.00    +0.006 A 
ATOM     28  C   UNL     1      10.583   1.879  24.006  0.00  0.00    +0.000 A 
ATOM     29  C   UNL     1      10.261   2.221  22.693  0.00  0.00    +0.000 A 
ATOM     30  C   UNL     1       9.909   1.225  21.785  0.00  0.00    +0.000 A 
ATOM     31  C   UNL     1       9.873  -0.110  22.185  0.00  0.00    +0.006 A 
ENDBRANCH  25  26
ENDBRANCH  24  25
ENDBRANCH   4  24
ENDBRANCH   1   4
BRANCH   1  32
ATOM     32  C   UNL     1       6.698  -1.023  26.530  0.00  0.00    +0.184 C 
BRANCH  32  33
ATOM     33  O   UNL     1       5.685  -1.892  27.048  0.00  0.00    -0.386 OA
ATOM     34  H   UNL     1       6.042  -2.801  26.981  0.00  0.00    +0.210 HD
ENDBRANCH  32  33
BRANCH  32  35
ATOM     35  C   UNL     1       6.524  -0.727  25.006  0.00  0.00    +0.235 C 
BRANCH  35  36
ATOM     36  C   UNL     1       5.880   0.688  24.880  0.00  0.00    +0.245 C 
ATOM     37  N   UNL     1       6.735   1.715  24.518  0.00  0.00    -0.302 N 
ATOM     38  H   UNL     1       7.730   1.537  24.522  0.00  0.00    +0.150 HD
ATOM     39  O   UNL     1       4.686   0.899  25.101  0.00  0.00    -0.273 OA
BRANCH  37  40
ATOM     40  C   UNL     1       6.289   3.116  24.371  0.00  0.00    +0.161 C 
BRANCH  40  41
ATOM     41  C   UNL     1       7.264   4.111  25.070  0.00  0.00    +0.234 C 
ATOM     42  N   UNL     1       7.463   5.287  24.392  0.00  0.00    -0.308 N 
ATOM     43  H   UNL     1       6.985   5.438  23.509  0.00  0.00    +0.149 HD
ATOM     44  O   UNL     1       7.885   3.842  26.098  0.00  0.00    -0.274 OA
BRANCH  42  45
ATOM     45  C   UNL     1       8.131   6.421  24.998  0.00  0.00    +0.159 C 
BRANCH  45  46
ATOM     46  C   UNL     1       9.630   6.337  24.805  0.00  0.00    +0.058 A 
ATOM     47  N   UNL     1      10.082   5.697  23.695  0.00  0.00    -0.258 NA
ATOM     48  C   UNL     1      11.420   5.666  23.500  0.00  0.00    +0.111 A 
ATOM     49  C   UNL     1      12.339   6.260  24.349  0.00  0.00    +0.020 A 
ATOM     50  C   UNL     1      11.860   6.924  25.472  0.00  0.00    +0.003 A 
ATOM     51  C   UNL     1      10.488   6.967  25.705  0.00  0.00    +0.025 A 
ENDBRANCH  45  46
ENDBRANCH  42  45
ENDBRANCH  40  41
BRANCH  40  52
ATOM     52  C   UNL     1       6.037   3.501  22.885  0.00  0.00    +0.012 C 
ATOM     53  C   UNL     1       4.545   3.462  22.540  0.00  0.00    +0.009 C 
ATOM     54  C   UNL     1       6.808   2.649  21.868  0.00  0.00    +0.009 C 
ENDBRANCH  40  52
ENDBRANCH  37  40
ENDBRANCH  35  36
BRANCH  35  55
ATOM     55  O   UNL     1       5.779  -1.771  24.374  0.00  0.00    -0.360 OA
BRANCH  55  56
ATOM     56  C   UNL     1       6.180  -2.018  23.027  0.00  0.00    +0.196 C 
BRANCH  56  57
ATOM     57  C   UNL     1       6.277  -3.485  22.683  0.00  0.00    -0.022 A 
ATOM     58  C   UNL     1       5.097  -4.185  22.371  0.00  0.00    +0.006 A 
ATOM     59  C   UNL     1       5.134  -5.541  22.043  0.00  0.00    +0.000 A 
ATOM     60  C   UNL     1       6.352  -6.216  22.023  0.00  0.00    +0.000 A 
ATOM     61  C   UNL     1       7.528  -5.536  22.337  0.00  0.00    +0.000 A 
ATOM     62  C   UNL     1       7.491  -4.178  22.668  0.00  0.00    +0.006 A 
ENDBRANCH  56  57
ENDBRANCH  55  56
ENDBRANCH  35  55
ENDBRANCH  32  35
ENDBRANCH   1  32
TORSDOF 23
ENDMDL
MODEL 4
REMARK VINA RESULT:      -6.2      2.134      8.556
REMARK  Name = 
REMARK  27 active torsions:
REMARK  status: ('A' for Active; 'I' for Inactive)
REMARK    1  A    between atoms: C_1  and  C_2
REMARK    2  A    between atoms: C_2  and  C_3
REMARK    3  A    between atoms: C_2  and  C_4
REMARK    4  A    between atoms: C_4  and  N_6
REMARK    5  A    between atoms: C_4  and  C_53
REMARK    6  A    between atoms: C_7  and  C_9
REMARK    7  A    between atoms: C_9  and  O_11
REMARK    8  A    between atoms: C_9  and  C_19
REMARK    9  A    between atoms: O_11  and  C_12
REMARK   10  A    between atoms: C_12  and  C_13
REMARK   11  A    between atoms: C_19  and  O_21
REMARK   12  A    between atoms: C_19  and  C_22
REMARK   13  A    between atoms: C_22  and  O_24
REMARK   14  A    between atoms: C_22  and  C_25
REMARK   15  A    between atoms: C_25  and  O_27
REMARK   16  A    between atoms: C_25  and  C_35
REMARK   17  A    between atoms: O_27  and  C_28
REMARK   18  A    between atoms: C_28  and  C_29
REMARK   19  A    between atoms: N_37  and  C_38
REMARK   20  A    between atoms: C_38  and  C_40
REMARK   21  A    between atoms: C_38  and  C_43
REMARK   22  A    between atoms: C_40  and  C_41
REMARK   23  A    between atoms: C_40  and  C_42
REMARK   24  A    between atoms: N_45  and  C_46
REMARK   25  A    between atoms: C_46  and  C_47
REMARK   26  A    between atoms: N_55  and  C_56
REMARK   27  A    between atoms: C_56  and  C_57
REMARK                            x       y       z     vdW  Elec       q    Type
REMARK                         _______ _______ _______ _____ _____    ______ ____
ROOT
ATOM      1  C   UNL     1       6.248   0.121  27.049  0.00  0.00    +0.184 C 
ENDROOT
BRANCH   1   2
ATOM      2  O   UNL     1       5.869   0.293  28.431  0.00  0.00    -0.386 OA
ATOM      3  H   UNL     1       6.436  -0.327  28.939  0.00  0.00    +0.210 HD
ENDBRANCH   1   2
BRANCH   1   4
ATOM      4  C   UNL     1       7.373   1.122  26.654  0.00  0.00    +0.235 C 
BRANCH   4   7
ATOM      5  N   UNL     1       8.258   0.663  24.399  0.00  0.00    -0.302 N 
ATOM      6  H   UNL     1       7.479   1.246  24.096  0.00  0.00    +0.150 HD
ATOM      7  C   UNL     1       8.408   0.408  25.742  0.00  0.00    +0.245 C 
ATOM      8  O   UNL     1       9.283  -0.342  26.176  0.00  0.00    -0.273 OA
BRANCH   5   9
ATOM      9  C   UNL     1       9.057   0.022  23.349  0.00  0.00    +0.161 C 
BRANCH   9  10
ATOM     10  C   UNL     1       8.517  -1.423  23.215  0.00  0.00    +0.234 C 
ATOM     11  N   UNL     1       9.133  -2.368  24.000  0.00  0.00    -0.308 N 
ATOM     12  H   UNL     1       9.778  -2.090  24.728  0.00  0.00    +0.149 HD
ATOM     13  O   UNL     1       7.603  -1.702  22.438  0.00  0.00    -0.274 OA
BRANCH  11  14
ATOM     14  C   UNL     1       8.701  -3.755  24.016  0.00  0.00    +0.159 C 
BRANCH  14  15
ATOM     15  C   UNL     1       7.922  -4.089  25.268  0.00  0.00    +0.058 A 
ATOM     16  N   UNL     1       7.128  -3.112  25.781  0.00  0.00    -0.258 NA
ATOM     17  C   UNL     1       6.429  -3.403  26.901  0.00  0.00    +0.111 A 
ATOM     18  C   UNL     1       6.459  -4.636  27.529  0.00  0.00    +0.020 A 
ATOM     19  C   UNL     1       7.259  -5.631  26.982  0.00  0.00    +0.003 A 
ATOM     20  C   UNL     1       8.000  -5.359  25.834  0.00  0.00    +0.025 A 
ENDBRANCH  14  15
ENDBRANCH  11  14
ENDBRANCH   9  10
BRANCH   9  22
ATOM     21  C   UNL     1       7.711   1.619  21.849  0.00  0.00    +0.009 C 
ATOM     22  C   UNL     1       9.018   0.841  22.036  0.00  0.00    +0.012 C 
ATOM     23  C   UNL     1      10.211   1.790  21.887  0.00  0.00    +0.009 C 
ENDBRANCH   9  22
ENDBRANCH   5   9
ENDBRANCH   4   7
BRANCH   4  24
ATOM     24  O   UNL     1       6.946   2.348  26.046  0.00  0.00    -0.360 OA
BRANCH  24  25
ATOM     25  C   UNL     1       7.324   3.533  26.752  0.00  0.00    +0.196 C 
BRANCH  25  26
ATOM     26  C   UNL     1       7.993   4.510  25.813  0.00  0.00    -0.022 A 
ATOM     27  C   UNL     1       7.984   5.881  26.105  0.00  0.00    +0.006 A 
ATOM     28  C   UNL     1       8.539   6.802  25.217  0.00  0.00    +0.000 A 
ATOM     29  C   UNL     1       9.108   6.364  24.022  0.00  0.00    +0.000 A 
ATOM     30  C   UNL     1       9.126   5.003  23.722  0.00  0.00    +0.000 A 
ATOM     31  C   UNL     1       8.573   4.081  24.609  0.00  0.00    +0.006 A 
ENDBRANCH  25  26
ENDBRANCH  24  25
ENDBRANCH   4  24
ENDBRANCH   1   4
BRANCH   1  32
ATOM     32  C   UNL     1       4.943   0.108  26.215  0.00  0.00    +0.184 C 
BRANCH  32  33
ATOM     33  O   UNL     1       5.232   0.203  24.816  0.00  0.00    -0.386 OA
ATOM     34  H   UNL     1       6.190   0.393  24.744  0.00  0.00    +0.210 HD
ENDBRANCH  32  33
BRANCH  32  35
ATOM     35  C   UNL     1       3.827   1.099  26.674  0.00  0.00    +0.235 C 
BRANCH  35  36
ATOM     36  C   UNL     1       2.665   0.244  27.267  0.00  0.00    +0.245 C 
ATOM     37  N   UNL     1       2.944  -1.094  27.485  0.00  0.00    -0.302 N 
ATOM     38  H   UNL     1       3.797  -1.477  27.101  0.00  0.00    +0.150 HD
ATOM     39  O   UNL     1       1.554   0.715  27.520  0.00  0.00    -0.273 OA
BRANCH  37  40
ATOM     40  C   UNL     1       1.950  -2.043  28.027  0.00  0.00    +0.161 C 
BRANCH  40  41
ATOM     41  C   UNL     1       1.789  -3.297  27.115  0.00  0.00    +0.234 C 
ATOM     42  N   UNL     1       2.971  -3.827  26.660  0.00  0.00    -0.308 N 
ATOM     43  H   UNL     1       3.847  -3.391  26.931  0.00  0.00    +0.149 HD
ATOM     44  O   UNL     1       0.699  -3.733  26.747  0.00  0.00    -0.274 OA
BRANCH  42  45
ATOM     45  C   UNL     1       3.035  -5.122  26.014  0.00  0.00    +0.159 C 
BRANCH  45  46
ATOM     46  C   UNL     1       3.897  -5.068  24.771  0.00  0.00    +0.058 A 
ATOM     47  N   UNL     1       4.018  -3.867  24.147  0.00  0.00    -0.258 NA
ATOM     48  C   UNL     1       4.827  -3.811  23.065  0.00  0.00    +0.111 A 
ATOM     49  C   UNL     1       5.543  -4.892  22.577  0.00  0.00    +0.020 A 
ATOM     50  C   UNL     1       5.421  -6.110  23.236  0.00  0.00    +0.003 A 
ATOM     51  C   UNL     1       4.589  -6.202  24.348  0.00  0.00    +0.025 A 
ENDBRANCH  45  46
ENDBRANCH  42  45
ENDBRANCH  40  41
BRANCH  40  52
ATOM     52  C   UNL     1       2.250  -2.434  29.501  0.00  0.00    +0.012 C 
ATOM     53  C   UNL     1       1.450  -1.575  30.485  0.00  0.00    +0.009 C 
ATOM     54  C   UNL     1       3.736  -2.378  29.883  0.00  0.00    +0.009 C 
ENDBRANCH  40  52
ENDBRANCH  37  40
ENDBRANCH  35  36
BRANCH  35  55
ATOM     55  O   UNL     1       3.439   1.952  25.595  0.00  0.00    -0.360 OA
BRANCH  55  56
ATOM     56  C   UNL     1       3.561   3.342  25.898  0.00  0.00    +0.196 C 
BRANCH  56  57
ATOM     57  C   UNL     1       4.262   4.137  24.823  0.00  0.00    -0.022 A 
ATOM     58  C   UNL     1       4.388   5.528  24.987  0.00  0.00    +0.006 A 
ATOM     59  C   UNL     1       5.031   6.307  24.023  0.00  0.00    +0.000 A 
ATOM     60  C   UNL     1       5.556   5.705  22.883  0.00  0.00    +0.000 A 
ATOM     61  C   UNL     1       5.432   4.328  22.705  0.00  0.00    +0.000 A 
ATOM     62  C   UNL     1       4.787   3.547  23.669  0.00  0.00    +0.006 A 
ENDBRANCH  56  57
ENDBRANCH  55  56
ENDBRANCH  35  55
ENDBRANCH  32  35
ENDBRANCH   1  32
TORSDOF 23
ENDMDL
MODEL 5
REMARK VINA RESULT:      -6.2      2.452      7.104
REMARK  Name = 
REMARK  27 active torsions:
REMARK  status: ('A' for Active; 'I' for Inactive)
REMARK    1  A    between atoms: C_1  and  C_2
REMARK    2  A    between atoms: C_2  and  C_3
REMARK    3  A    between atoms: C_2  and  C_4
REMARK    4  A    between atoms: C_4  and  N_6
REMARK    5  A    between atoms: C_4  and  C_53
REMARK    6  A    between atoms: C_7  and  C_9
REMARK    7  A    between atoms: C_9  and  O_11
REMARK    8  A    between atoms: C_9  and  C_19
REMARK    9  A    between atoms: O_11  and  C_12
REMARK   10  A    between atoms: C_12  and  C_13
REMARK   11  A    between atoms: C_19  and  O_21
REMARK   12  A    between atoms: C_19  and  C_22
REMARK   13  A    between atoms: C_22  and  O_24
REMARK   14  A    between atoms: C_22  and  C_25
REMARK   15  A    between atoms: C_25  and  O_27
REMARK   16  A    between atoms: C_25  and  C_35
REMARK   17  A    between atoms: O_27  and  C_28
REMARK   18  A    between atoms: C_28  and  C_29
REMARK   19  A    between atoms: N_37  and  C_38
REMARK   20  A    between atoms: C_38  and  C_40
REMARK   21  A    between atoms: C_38  and  C_43
REMARK   22  A    between atoms: C_40  and  C_41
REMARK   23  A    between atoms: C_40  and  C_42
REMARK   24  A    between atoms: N_45  and  C_46
REMARK   25  A    between atoms: C_46  and  C_47
REMARK   26  A    between atoms: N_55  and  C_56
REMARK   27  A    between atoms: C_56  and  C_57
REMARK                            x       y       z     vdW  Elec       q    Type
REMARK                         _______ _______ _______ _____ _____    ______ ____
ROOT
ATOM      1  C   UNL     1       5.580  -0.657  25.905  0.00  0.00    +0.184 C 
ENDROOT
BRANCH   1   2
ATOM      2  O   UNL     1       5.387  -0.204  24.548  0.00  0.00    -0.386 OA
ATOM      3  H   UNL     1       6.288  -0.136  24.163  0.00  0.00    +0.210 HD
ENDBRANCH   1   2
BRANCH   1   4
ATOM      4  C   UNL     1       7.096  -0.810  26.227  0.00  0.00    +0.235 C 
BRANCH   4   7
ATOM      5  N   UNL     1       8.392   0.366  24.490  0.00  0.00    -0.302 N 
ATOM      6  H   UNL     1       8.159   1.196  25.034  0.00  0.00    +0.150 HD
ATOM      7  C   UNL     1       7.907  -0.853  24.903  0.00  0.00    +0.245 C 
ATOM      8  O   UNL     1       8.091  -1.887  24.260  0.00  0.00    -0.273 OA
BRANCH   5   9
ATOM      9  C   UNL     1       9.100   0.579  23.223  0.00  0.00    +0.161 C 
BRANCH   9  10
ATOM     10  C   UNL     1       8.136   1.388  22.319  0.00  0.00    +0.234 C 
ATOM     11  N   UNL     1       7.065   1.968  22.955  0.00  0.00    -0.308 N 
ATOM     12  H   UNL     1       7.018   1.993  23.966  0.00  0.00    +0.149 HD
ATOM     13  O   UNL     1       8.318   1.485  21.105  0.00  0.00    -0.274 OA
BRANCH  11  14
ATOM     14  C   UNL     1       6.104   2.795  22.244  0.00  0.00    +0.159 C 
BRANCH  14  15
ATOM     15  C   UNL     1       6.268   4.260  22.578  0.00  0.00    +0.058 A 
ATOM     16  N   UNL     1       5.226   4.873  23.200  0.00  0.00    -0.258 NA
ATOM     17  C   UNL     1       5.365   6.184  23.500  0.00  0.00    +0.111 A 
ATOM     18  C   UNL     1       6.507   6.919  23.234  0.00  0.00    +0.020 A 
ATOM     19  C   UNL     1       7.572   6.275  22.616  0.00  0.00    +0.003 A 
ATOM     20  C   UNL     1       7.456   4.926  22.284  0.00  0.00    +0.025 A 
ENDBRANCH  14  15
ENDBRANCH  11  14
ENDBRANCH   9  10
BRANCH   9  22
ATOM     21  C   UNL     1      10.391   2.785  23.508  0.00  0.00    +0.009 C 
ATOM     22  C   UNL     1      10.473   1.256  23.455  0.00  0.00    +0.012 C 
ATOM     23  C   UNL     1      11.195   0.733  24.701  0.00  0.00    +0.009 C 
ENDBRANCH   9  22
ENDBRANCH   5   9
ENDBRANCH   4   7
BRANCH   4  24
ATOM     24  O   UNL     1       7.656   0.167  27.115  0.00  0.00    -0.360 OA
BRANCH  24  25
ATOM     25  C   UNL     1       6.699   0.907  27.876  0.00  0.00    +0.196 C 
BRANCH  25  26
ATOM     26  C   UNL     1       6.884   2.390  27.651  0.00  0.00    -0.022 A 
ATOM     27  C   UNL     1       6.715   3.287  28.715  0.00  0.00    +0.006 A 
ATOM     28  C   UNL     1       6.817   4.663  28.509  0.00  0.00    +0.000 A 
ATOM     29  C   UNL     1       7.087   5.160  27.235  0.00  0.00    +0.000 A 
ATOM     30  C   UNL     1       7.261   4.278  26.170  0.00  0.00    +0.000 A 
ATOM     31  C   UNL     1       7.159   2.903  26.374  0.00  0.00    +0.006 A 
ENDBRANCH  25  26
ENDBRANCH  24  25
ENDBRANCH   4  24
ENDBRANCH   1   4
BRANCH   1  32
ATOM     32  C   UNL     1       4.652  -1.877  26.117  0.00  0.00    +0.184 C 
BRANCH  32  33
ATOM     33  O   UNL     1       4.450  -2.584  24.889  0.00  0.00    -0.386 OA
ATOM     34  H   UNL     1       4.566  -1.928  24.171  0.00  0.00    +0.210 HD
ENDBRANCH  32  33
BRANCH  32  35
ATOM     35  C   UNL     1       3.320  -1.599  26.884  0.00  0.00    +0.235 C 
BRANCH  35  36
ATOM     36  C   UNL     1       2.268  -2.631  26.374  0.00  0.00    +0.245 C 
ATOM     37  N   UNL     1       2.524  -3.958  26.671  0.00  0.00    -0.302 N 
ATOM     38  H   UNL     1       3.434  -4.203  27.038  0.00  0.00    +0.150 HD
ATOM     39  O   UNL     1       1.269  -2.302  25.730  0.00  0.00    -0.273 OA
BRANCH  37  40
ATOM     40  C   UNL     1       1.637  -5.061  26.248  0.00  0.00    +0.161 C 
BRANCH  40  41
ATOM     41  C   UNL     1       1.835  -5.420  24.743  0.00  0.00    +0.234 C 
ATOM     42  N   UNL     1       3.145  -5.464  24.335  0.00  0.00    -0.308 N 
ATOM     43  H   UNL     1       3.881  -5.269  25.007  0.00  0.00    +0.149 HD
ATOM     44  O   UNL     1       0.904  -5.562  23.952  0.00  0.00    -0.274 OA
BRANCH  42  45
ATOM     45  C   UNL     1       3.533  -6.016  23.053  0.00  0.00    +0.159 C 
BRANCH  45  46
ATOM     46  C   UNL     1       4.873  -5.471  22.608  0.00  0.00    +0.058 A 
ATOM     47  N   UNL     1       4.940  -4.147  22.309  0.00  0.00    -0.258 NA
ATOM     48  C   UNL     1       6.149  -3.651  21.960  0.00  0.00    +0.111 A 
ATOM     49  C   UNL     1       7.308  -4.407  21.909  0.00  0.00    +0.020 A 
ATOM     50  C   UNL     1       7.227  -5.756  22.232  0.00  0.00    +0.003 A 
ATOM     51  C   UNL     1       5.995  -6.297  22.589  0.00  0.00    +0.025 A 
ENDBRANCH  45  46
ENDBRANCH  42  45
ENDBRANCH  40  41
BRANCH  40  52
ATOM     52  C   UNL     1       1.772  -6.311  27.163  0.00  0.00    +0.012 C 
ATOM     53  C   UNL     1       3.160  -6.389  27.805  0.00  0.00    +0.009 C 
ATOM     54  C   UNL     1       1.467  -7.645  26.467  0.00  0.00    +0.009 C 
ENDBRANCH  40  52
ENDBRANCH  37  40
ENDBRANCH  35  36
BRANCH  35  55
ATOM     55  O   UNL     1       2.928  -0.233  26.729  0.00  0.00    -0.360 OA
BRANCH  55  56
ATOM     56  C   UNL     1       2.966   0.510  27.947  0.00  0.00    +0.196 C 
BRANCH  56  57
ATOM     57  C   UNL     1       3.109   1.999  27.744  0.00  0.00    -0.022 A 
ATOM     58  C   UNL     1       3.378   2.482  26.451  0.00  0.00    +0.006 A 
ATOM     59  C   UNL     1       3.514   3.850  26.211  0.00  0.00    +0.000 A 
ATOM     60  C   UNL     1       3.384   4.754  27.262  0.00  0.00    +0.000 A 
ATOM     61  C   UNL     1       3.124   4.289  28.550  0.00  0.00    +0.000 A 
ATOM     62  C   UNL     1       2.988   2.918  28.792  0.00  0.00    +0.006 A 
ENDBRANCH  56  57
ENDBRANCH  55  56
ENDBRANCH  35  55
ENDBRANCH  32  35
ENDBRANCH   1  32
TORSDOF 23
ENDMDL
MODEL 6
REMARK VINA RESULT:      -6.1      2.529      8.386
REMARK  Name = 
REMARK  27 active torsions:
REMARK  status: ('A' for Active; 'I' for Inactive)
REMARK    1  A    between atoms: C_1  and  C_2
REMARK    2  A    between atoms: C_2  and  C_3
REMARK    3  A    between atoms: C_2  and  C_4
REMARK    4  A    between atoms: C_4  and  N_6
REMARK    5  A    between atoms: C_4  and  C_53
REMARK    6  A    between atoms: C_7  and  C_9
REMARK    7  A    between atoms: C_9  and  O_11
REMARK    8  A    between atoms: C_9  and  C_19
REMARK    9  A    between atoms: O_11  and  C_12
REMARK   10  A    between atoms: C_12  and  C_13
REMARK   11  A    between atoms: C_19  and  O_21
REMARK   12  A    between atoms: C_19  and  C_22
REMARK   13  A    between atoms: C_22  and  O_24
REMARK   14  A    between atoms: C_22  and  C_25
REMARK   15  A    between atoms: C_25  and  O_27
REMARK   16  A    between atoms: C_25  and  C_35
REMARK   17  A    between atoms: O_27  and  C_28
REMARK   18  A    between atoms: C_28  and  C_29
REMARK   19  A    between atoms: N_37  and  C_38
REMARK   20  A    between atoms: C_38  and  C_40
REMARK   21  A    between atoms: C_38  and  C_43
REMARK   22  A    between atoms: C_40  and  C_41
REMARK   23  A    between atoms: C_40  and  C_42
REMARK   24  A    between atoms: N_45  and  C_46
REMARK   25  A    between atoms: C_46  and  C_47
REMARK   26  A    between atoms: N_55  and  C_56
REMARK   27  A    between atoms: C_56  and  C_57
REMARK                            x       y       z     vdW  Elec       q    Type
REMARK                         _______ _______ _______ _____ _____    ______ ____
ROOT
ATOM      1  C   UNL     1       5.226  -1.475  25.946  0.00  0.00    +0.184 C 
ENDROOT
BRANCH   1   2
ATOM      2  O   UNL     1       6.169  -2.518  26.270  0.00  0.00    -0.386 OA
ATOM      3  H   UNL     1       5.626  -3.280  26.568  0.00  0.00    +0.210 HD
ENDBRANCH   1   2
BRANCH   1   4
ATOM      4  C   UNL     1       5.936  -0.091  25.868  0.00  0.00    +0.235 C 
BRANCH   4   7
ATOM      5  N   UNL     1       8.070  -0.594  24.739  0.00  0.00    -0.302 N 
ATOM      6  H   UNL     1       7.480  -0.708  23.916  0.00  0.00    +0.150 HD
ATOM      7  C   UNL     1       7.475  -0.292  25.942  0.00  0.00    +0.245 C 
ATOM      8  O   UNL     1       8.115  -0.207  26.990  0.00  0.00    -0.273 OA
BRANCH   5   9
ATOM      9  C   UNL     1       9.492  -0.919  24.587  0.00  0.00    +0.161 C 
BRANCH   9  10
ATOM     10  C   UNL     1       9.551  -2.398  24.127  0.00  0.00    +0.234 C 
ATOM     11  N   UNL     1       8.770  -3.278  24.837  0.00  0.00    -0.308 N 
ATOM     12  H   UNL     1       8.087  -2.938  25.502  0.00  0.00    +0.149 HD
ATOM     13  O   UNL     1      10.269  -2.755  23.192  0.00  0.00    -0.274 OA
BRANCH  11  14
ATOM     14  C   UNL     1       8.688  -4.686  24.489  0.00  0.00    +0.159 C 
BRANCH  14  15
ATOM     15  C   UNL     1       7.444  -4.996  23.688  0.00  0.00    +0.058 A 
ATOM     16  N   UNL     1       6.297  -4.367  24.058  0.00  0.00    -0.258 NA
ATOM     17  C   UNL     1       5.181  -4.641  23.345  0.00  0.00    +0.111 A 
ATOM     18  C   UNL     1       5.151  -5.495  22.257  0.00  0.00    +0.020 A 
ATOM     19  C   UNL     1       6.335  -6.115  21.878  0.00  0.00    +0.003 A 
ATOM     20  C   UNL     1       7.500  -5.863  22.598  0.00  0.00    +0.025 A 
ENDBRANCH  14  15
ENDBRANCH  11  14
ENDBRANCH   9  10
BRANCH   9  22
ATOM     21  C   UNL     1       9.251   0.683  22.591  0.00  0.00    +0.009 C 
ATOM     22  C   UNL     1      10.197   0.074  23.631  0.00  0.00    +0.012 C 
ATOM     23  C   UNL     1      10.940   1.190  24.370  0.00  0.00    +0.009 C 
ENDBRANCH   9  22
ENDBRANCH   5   9
ENDBRANCH   4   7
BRANCH   4  24
ATOM     24  O   UNL     1       5.601   0.730  24.740  0.00  0.00    -0.360 OA
BRANCH  24  25
ATOM     25  C   UNL     1       5.454   2.122  25.033  0.00  0.00    +0.196 C 
BRANCH  25  26
ATOM     26  C   UNL     1       6.593   2.907  24.428  0.00  0.00    -0.022 A 
ATOM     27  C   UNL     1       7.682   3.290  25.225  0.00  0.00    +0.006 A 
ATOM     28  C   UNL     1       8.710   4.071  24.699  0.00  0.00    +0.000 A 
ATOM     29  C   UNL     1       8.663   4.483  23.368  0.00  0.00    +0.000 A 
ATOM     30  C   UNL     1       7.588   4.106  22.564  0.00  0.00    +0.000 A 
ATOM     31  C   UNL     1       6.559   3.325  23.089  0.00  0.00    +0.006 A 
ENDBRANCH  25  26
ENDBRANCH  24  25
ENDBRANCH   4  24
ENDBRANCH   1   4
BRANCH   1  32
ATOM     32  C   UNL     1       4.020  -1.634  26.904  0.00  0.00    +0.184 C 
BRANCH  32  33
ATOM     33  O   UNL     1       2.969  -0.728  26.554  0.00  0.00    -0.386 OA
ATOM     34  H   UNL     1       3.397   0.034  26.112  0.00  0.00    +0.210 HD
ENDBRANCH  32  33
BRANCH  32  35
ATOM     35  C   UNL     1       4.352  -1.620  28.430  0.00  0.00    +0.235 C 
BRANCH  35  36
ATOM     36  C   UNL     1       4.162  -3.076  28.958  0.00  0.00    +0.245 C 
ATOM     37  N   UNL     1       4.264  -4.083  28.014  0.00  0.00    -0.302 N 
ATOM     38  H   UNL     1       4.282  -3.827  27.036  0.00  0.00    +0.150 HD
ATOM     39  O   UNL     1       3.922  -3.330  30.140  0.00  0.00    -0.273 OA
BRANCH  37  40
ATOM     40  C   UNL     1       4.095  -5.513  28.345  0.00  0.00    +0.161 C 
BRANCH  40  41
ATOM     41  C   UNL     1       2.673  -6.030  27.972  0.00  0.00    +0.234 C 
ATOM     42  N   UNL     1       1.967  -5.204  27.132  0.00  0.00    -0.308 N 
ATOM     43  H   UNL     1       2.393  -4.339  26.814  0.00  0.00    +0.149 HD
ATOM     44  O   UNL     1       2.171  -7.044  28.456  0.00  0.00    -0.274 OA
BRANCH  42  45
ATOM     45  C   UNL     1       0.742  -5.629  26.486  0.00  0.00    +0.159 C 
BRANCH  45  46
ATOM     46  C   UNL     1       1.018  -6.168  25.099  0.00  0.00    +0.058 A 
ATOM     47  N   UNL     1       1.105  -5.268  24.084  0.00  0.00    -0.258 NA
ATOM     48  C   UNL     1       1.399  -5.746  22.854  0.00  0.00    +0.111 A 
ATOM     49  C   UNL     1       1.631  -7.084  22.581  0.00  0.00    +0.020 A 
ATOM     50  C   UNL     1       1.554  -7.991  23.631  0.00  0.00    +0.003 A 
ATOM     51  C   UNL     1       1.245  -7.530  24.908  0.00  0.00    +0.025 A 
ENDBRANCH  45  46
ENDBRANCH  42  45
ENDBRANCH  40  41
BRANCH  40  52
ATOM     52  C   UNL     1       5.213  -6.397  27.724  0.00  0.00    +0.012 C 
ATOM     53  C   UNL     1       6.578  -5.705  27.788  0.00  0.00    +0.009 C 
ATOM     54  C   UNL     1       4.944  -6.841  26.280  0.00  0.00    +0.009 C 
ENDBRANCH  40  52
ENDBRANCH  37  40
ENDBRANCH  35  36
BRANCH  35  55
ATOM     55  O   UNL     1       3.561  -0.641  29.107  0.00  0.00    -0.360 OA
BRANCH  55  56
ATOM     56  C   UNL     1       4.299   0.127  30.057  0.00  0.00    +0.196 C 
BRANCH  56  57
ATOM     57  C   UNL     1       4.934   1.366  29.474  0.00  0.00    -0.022 A 
ATOM     58  C   UNL     1       6.336   1.472  29.479  0.00  0.00    +0.006 A 
ATOM     59  C   UNL     1       6.971   2.597  28.947  0.00  0.00    +0.000 A 
ATOM     60  C   UNL     1       6.211   3.629  28.404  0.00  0.00    +0.000 A 
ATOM     61  C   UNL     1       4.820   3.539  28.398  0.00  0.00    +0.000 A 
ATOM     62  C   UNL     1       4.183   2.414  28.932  0.00  0.00    +0.006 A 
ENDBRANCH  56  57
ENDBRANCH  55  56
ENDBRANCH  35  55
ENDBRANCH  32  35
ENDBRANCH   1  32
TORSDOF 23
ENDMDL
MODEL 7
REMARK VINA RESULT:      -6.1      2.427      7.320
REMARK  Name = 
REMARK  27 active torsions:
REMARK  status: ('A' for Active; 'I' for Inactive)
REMARK    1  A    between atoms: C_1  and  C_2
REMARK    2  A    between atoms: C_2  and  C_3
REMARK    3  A    between atoms: C_2  and  C_4
REMARK    4  A    between atoms: C_4  and  N_6
REMARK    5  A    between atoms: C_4  and  C_53
REMARK    6  A    between atoms: C_7  and  C_9
REMARK    7  A    between atoms: C_9  and  O_11
REMARK    8  A    between atoms: C_9  and  C_19
REMARK    9  A    between atoms: O_11  and  C_12
REMARK   10  A    between atoms: C_12  and  C_13
REMARK   11  A    between atoms: C_19  and  O_21
REMARK   12  A    between atoms: C_19  and  C_22
REMARK   13  A    between atoms: C_22  and  O_24
REMARK   14  A    between atoms: C_22  and  C_25
REMARK   15  A    between atoms: C_25  and  O_27
REMARK   16  A    between atoms: C_25  and  C_35
REMARK   17  A    between atoms: O_27  and  C_28
REMARK   18  A    between atoms: C_28  and  C_29
REMARK   19  A    between atoms: N_37  and  C_38
REMARK   20  A    between atoms: C_38  and  C_40
REMARK   21  A    between atoms: C_38  and  C_43
REMARK   22  A    between atoms: C_40  and  C_41
REMARK   23  A    between atoms: C_40  and  C_42
REMARK   24  A    between atoms: N_45  and  C_46
REMARK   25  A    between atoms: C_46  and  C_47
REMARK   26  A    between atoms: N_55  and  C_56
REMARK   27  A    between atoms: C_56  and  C_57
REMARK                            x       y       z     vdW  Elec       q    Type
REMARK                         _______ _______ _______ _____ _____    ______ ____
ROOT
ATOM      1  C   UNL     1       5.842   1.138  24.302  0.00  0.00    +0.184 C 
ENDROOT
BRANCH   1   2
ATOM      2  O   UNL     1       6.897   1.296  23.329  0.00  0.00    -0.386 OA
ATOM      3  H   UNL     1       6.568   0.862  22.511  0.00  0.00    +0.210 HD
ENDBRANCH   1   2
BRANCH   1   4
ATOM      4  C   UNL     1       4.919   2.391  24.326  0.00  0.00    +0.235 C 
BRANCH   4   7
ATOM      5  N   UNL     1       6.731   4.032  24.008  0.00  0.00    -0.302 N 
ATOM      6  H   UNL     1       6.913   3.501  23.157  0.00  0.00    +0.150 HD
ATOM      7  C   UNL     1       5.720   3.617  24.843  0.00  0.00    +0.245 C 
ATOM      8  O   UNL     1       5.488   4.168  25.919  0.00  0.00    -0.273 OA
BRANCH   5   9
ATOM      9  C   UNL     1       7.677   5.105  24.336  0.00  0.00    +0.161 C 
BRANCH   9  10
ATOM     10  C   UNL     1       9.091   4.537  24.054  0.00  0.00    +0.234 C 
ATOM     11  N   UNL     1       9.183   3.168  23.985  0.00  0.00    -0.308 N 
ATOM     12  H   UNL     1       8.348   2.597  23.957  0.00  0.00    +0.149 HD
ATOM     13  O   UNL     1      10.068   5.275  23.918  0.00  0.00    -0.274 OA
BRANCH  11  14
ATOM     14  C   UNL     1      10.435   2.496  23.680  0.00  0.00    +0.159 C 
BRANCH  14  15
ATOM     15  C   UNL     1      10.208   1.115  23.110  0.00  0.00    +0.058 A 
ATOM     16  N   UNL     1      10.426   0.060  23.940  0.00  0.00    -0.258 NA
ATOM     17  C   UNL     1      10.225  -1.179  23.435  0.00  0.00    +0.111 A 
ATOM     18  C   UNL     1       9.790  -1.425  22.145  0.00  0.00    +0.020 A 
ATOM     19  C   UNL     1       9.552  -0.337  21.315  0.00  0.00    +0.003 A 
ATOM     20  C   UNL     1       9.759   0.952  21.801  0.00  0.00    +0.025 A 
ENDBRANCH  14  15
ENDBRANCH  11  14
ENDBRANCH   9  10
BRANCH   9  22
ATOM     21  C   UNL     1       7.226   6.186  22.047  0.00  0.00    +0.009 C 
ATOM     22  C   UNL     1       7.345   6.402  23.559  0.00  0.00    +0.012 C 
ATOM     23  C   UNL     1       6.089   7.108  24.080  0.00  0.00    +0.009 C 
ENDBRANCH   9  22
ENDBRANCH   5   9
ENDBRANCH   4   7
BRANCH   4  24
ATOM     24  O   UNL     1       4.262   2.718  23.093  0.00  0.00    -0.360 OA
BRANCH  24  25
ATOM     25  C   UNL     1       2.997   3.367  23.241  0.00  0.00    +0.196 C 
BRANCH  25  26
ATOM     26  C   UNL     1       2.408   3.679  21.885  0.00  0.00    -0.022 A 
ATOM     27  C   UNL     1       1.939   2.640  21.069  0.00  0.00    +0.006 A 
ATOM     28  C   UNL     1       1.453   2.905  19.788  0.00  0.00    +0.000 A 
ATOM     29  C   UNL     1       1.433   4.212  19.305  0.00  0.00    +0.000 A 
ATOM     30  C   UNL     1       1.894   5.254  20.108  0.00  0.00    +0.000 A 
ATOM     31  C   UNL     1       2.379   4.992  21.389  0.00  0.00    +0.006 A 
ENDBRANCH  25  26
ENDBRANCH  24  25
ENDBRANCH   4  24
ENDBRANCH   1   4
BRANCH   1  32
ATOM     32  C   UNL     1       6.504   0.680  25.625  0.00  0.00    +0.184 C 
BRANCH  32  33
ATOM     33  O   UNL     1       7.926   0.832  25.562  0.00  0.00    -0.386 OA
ATOM     34  H   UNL     1       8.171   0.751  24.618  0.00  0.00    +0.210 HD
ENDBRANCH  32  33
BRANCH  32  35
ATOM     35  C   UNL     1       6.064  -0.720  26.161  0.00  0.00    +0.235 C 
BRANCH  35  36
ATOM     36  C   UNL     1       7.208  -1.725  25.822  0.00  0.00    +0.245 C 
ATOM     37  N   UNL     1       6.930  -2.649  24.830  0.00  0.00    -0.302 N 
ATOM     38  H   UNL     1       5.976  -2.738  24.507  0.00  0.00    +0.150 HD
ATOM     39  O   UNL     1       8.295  -1.718  26.403  0.00  0.00    -0.273 OA
BRANCH  37  40
ATOM     40  C   UNL     1       7.898  -3.680  24.400  0.00  0.00    +0.161 C 
BRANCH  40  41
ATOM     41  C   UNL     1       8.107  -4.770  25.494  0.00  0.00    +0.234 C 
ATOM     42  N   UNL     1       7.233  -4.695  26.550  0.00  0.00    -0.308 N 
ATOM     43  H   UNL     1       6.528  -3.964  26.559  0.00  0.00    +0.149 HD
ATOM     44  O   UNL     1       9.033  -5.580  25.476  0.00  0.00    -0.274 OA
BRANCH  42  45
ATOM     45  C   UNL     1       7.113  -5.758  27.527  0.00  0.00    +0.159 C 
BRANCH  45  46
ATOM     46  C   UNL     1       5.666  -6.149  27.732  0.00  0.00    +0.058 A 
ATOM     47  N   UNL     1       5.185  -6.118  29.002  0.00  0.00    -0.258 NA
ATOM     48  C   UNL     1       3.878  -6.420  29.177  0.00  0.00    +0.111 A 
ATOM     49  C   UNL     1       3.013  -6.737  28.144  0.00  0.00    +0.020 A 
ATOM     50  C   UNL     1       3.516  -6.749  26.848  0.00  0.00    +0.003 A 
ATOM     51  C   UNL     1       4.859  -6.451  26.636  0.00  0.00    +0.025 A 
ENDBRANCH  45  46
ENDBRANCH  42  45
ENDBRANCH  40  41
BRANCH  40  52
ATOM     52  C   UNL     1       7.523  -4.303  23.026  0.00  0.00    +0.012 C 
ATOM     53  C   UNL     1       6.735  -3.318  22.158  0.00  0.00    +0.009 C 
ATOM     54  C   UNL     1       6.744  -5.623  23.117  0.00  0.00    +0.009 C 
ENDBRANCH  40  52
ENDBRANCH  37  40
ENDBRANCH  35  36
BRANCH  35  55
ATOM     55  O   UNL     1       4.787  -1.081  25.633  0.00  0.00    -0.360 OA
BRANCH  55  56
ATOM     56  C   UNL     1       4.081  -2.018  26.445  0.00  0.00    +0.196 C 
BRANCH  56  57
ATOM     57  C   UNL     1       3.275  -3.020  25.654  0.00  0.00    -0.022 A 
ATOM     58  C   UNL     1       3.886  -3.671  24.567  0.00  0.00    +0.006 A 
ATOM     59  C   UNL     1       3.183  -4.608  23.807  0.00  0.00    +0.000 A 
ATOM     60  C   UNL     1       1.861  -4.906  24.123  0.00  0.00    +0.000 A 
ATOM     61  C   UNL     1       1.241  -4.262  25.193  0.00  0.00    +0.000 A 
ATOM     62  C   UNL     1       1.943  -3.322  25.955  0.00  0.00    +0.006 A 
ENDBRANCH  56  57
ENDBRANCH  55  56
ENDBRANCH  35  55
ENDBRANCH  32  35
ENDBRANCH   1  32
TORSDOF 23
ENDMDL
MODEL 8
REMARK VINA RESULT:      -6.1      2.999      7.122
REMARK  Name = 
REMARK  27 active torsions:
REMARK  status: ('A' for Active; 'I' for Inactive)
REMARK    1  A    between atoms: C_1  and  C_2
REMARK    2  A    between atoms: C_2  and  C_3
REMARK    3  A    between atoms: C_2  and  C_4
REMARK    4  A    between atoms: C_4  and  N_6
REMARK    5  A    between atoms: C_4  and  C_53
REMARK    6  A    between atoms: C_7  and  C_9
REMARK    7  A    between atoms: C_9  and  O_11
REMARK    8  A    between atoms: C_9  and  C_19
REMARK    9  A    between atoms: O_11  and  C_12
REMARK   10  A    between atoms: C_12  and  C_13
REMARK   11  A    between atoms: C_19  and  O_21
REMARK   12  A    between atoms: C_19  and  C_22
REMARK   13  A    between atoms: C_22  and  O_24
REMARK   14  A    between atoms: C_22  and  C_25
REMARK   15  A    between atoms: C_25  and  O_27
REMARK   16  A    between atoms: C_25  and  C_35
REMARK   17  A    between atoms: O_27  and  C_28
REMARK   18  A    between atoms: C_28  and  C_29
REMARK   19  A    between atoms: N_37  and  C_38
REMARK   20  A    between atoms: C_38  and  C_40
REMARK   21  A    between atoms: C_38  and  C_43
REMARK   22  A    between atoms: C_40  and  C_41
REMARK   23  A    between atoms: C_40  and  C_42
REMARK   24  A    between atoms: N_45  and  C_46
REMARK   25  A    between atoms: C_46  and  C_47
REMARK   26  A    between atoms: N_55  and  C_56
REMARK   27  A    between atoms: C_56  and  C_57
REMARK                            x       y       z     vdW  Elec       q    Type
REMARK                         _______ _______ _______ _____ _____    ______ ____
ROOT
ATOM      1  C   UNL     1       8.131   2.882  25.302  0.00  0.00    +0.184 C 
ENDROOT
BRANCH   1   2
ATOM      2  O   UNL     1       7.624   3.989  26.078  0.00  0.00    -0.386 OA
ATOM      3  H   UNL     1       6.648   3.953  25.981  0.00  0.00    +0.210 HD
ENDBRANCH   1   2
BRANCH   1   4
ATOM      4  C   UNL     1       7.935   3.138  23.779  0.00  0.00    +0.235 C 
BRANCH   4   7
ATOM      5  N   UNL     1       5.610   3.955  23.860  0.00  0.00    -0.302 N 
ATOM      6  H   UNL     1       5.400   2.997  24.135  0.00  0.00    +0.150 HD
ATOM      7  C   UNL     1       6.913   4.290  23.573  0.00  0.00    +0.245 C 
ATOM      8  O   UNL     1       7.231   5.408  23.169  0.00  0.00    -0.273 OA
BRANCH   5   9
ATOM      9  C   UNL     1       4.468   4.851  23.646  0.00  0.00    +0.161 C 
BRANCH   9  10
ATOM     10  C   UNL     1       3.445   4.053  22.798  0.00  0.00    +0.234 C 
ATOM     11  N   UNL     1       3.029   4.658  21.637  0.00  0.00    -0.308 N 
ATOM     12  H   UNL     1       3.494   5.489  21.295  0.00  0.00    +0.149 HD
ATOM     13  O   UNL     1       3.025   2.953  23.159  0.00  0.00    -0.274 OA
BRANCH  11  14
ATOM     14  C   UNL     1       2.110   4.009  20.718  0.00  0.00    +0.159 C 
BRANCH  14  15
ATOM     15  C   UNL     1       1.952   4.790  19.434  0.00  0.00    +0.058 A 
ATOM     16  N   UNL     1       2.119   6.138  19.505  0.00  0.00    -0.258 NA
ATOM     17  C   UNL     1       1.979   6.843  18.359  0.00  0.00    +0.111 A 
ATOM     18  C   UNL     1       1.704   6.270  17.130  0.00  0.00    +0.020 A 
ATOM     19  C   UNL     1       1.556   4.890  17.069  0.00  0.00    +0.003 A 
ATOM     20  C   UNL     1       1.684   4.135  18.233  0.00  0.00    +0.025 A 
ENDBRANCH  14  15
ENDBRANCH  11  14
ENDBRANCH   9  10
BRANCH   9  22
ATOM     21  C   UNL     1       4.875   6.313  25.721  0.00  0.00    +0.009 C 
ATOM     22  C   UNL     1       3.908   5.377  24.990  0.00  0.00    +0.012 C 
ATOM     23  C   UNL     1       2.542   6.055  24.844  0.00  0.00    +0.009 C 
ENDBRANCH   9  22
ENDBRANCH   5   9
ENDBRANCH   4   7
BRANCH   4  24
ATOM     24  O   UNL     1       9.125   3.396  23.021  0.00  0.00    -0.360 OA
BRANCH  24  25
ATOM     25  C   UNL     1      10.266   2.631  23.417  0.00  0.00    +0.196 C 
BRANCH  25  26
ATOM     26  C   UNL     1      10.144   1.211  22.914  0.00  0.00    -0.022 A 
ATOM     27  C   UNL     1       9.523   0.955  21.683  0.00  0.00    +0.006 A 
ATOM     28  C   UNL     1       9.344  -0.354  21.235  0.00  0.00    +0.000 A 
ATOM     29  C   UNL     1       9.780  -1.425  22.014  0.00  0.00    +0.000 A 
ATOM     30  C   UNL     1      10.402  -1.182  23.238  0.00  0.00    +0.000 A 
ATOM     31  C   UNL     1      10.583   0.125  23.687  0.00  0.00    +0.006 A 
ENDBRANCH  25  26
ENDBRANCH  24  25
ENDBRANCH   4  24
ENDBRANCH   1   4
BRANCH   1  32
ATOM     32  C   UNL     1       7.548   1.587  25.917  0.00  0.00    +0.184 C 
BRANCH  32  33
ATOM     33  O   UNL     1       8.588   0.765  26.456  0.00  0.00    -0.386 OA
ATOM     34  H   UNL     1       9.426   1.251  26.313  0.00  0.00    +0.210 HD
ENDBRANCH  32  33
BRANCH  32  35
ATOM     35  C   UNL     1       6.550   0.791  25.015  0.00  0.00    +0.235 C 
BRANCH  35  36
ATOM     36  C   UNL     1       5.277   0.508  25.872  0.00  0.00    +0.245 C 
ATOM     37  N   UNL     1       5.466  -0.267  27.002  0.00  0.00    -0.302 N 
ATOM     38  H   UNL     1       6.351  -0.740  27.120  0.00  0.00    +0.150 HD
ATOM     39  O   UNL     1       4.161   0.931  25.565  0.00  0.00    -0.273 OA
BRANCH  37  40
ATOM     40  C   UNL     1       4.362  -0.640  27.912  0.00  0.00    +0.161 C 
BRANCH  40  41
ATOM     41  C   UNL     1       4.188  -2.186  28.007  0.00  0.00    +0.234 C 
ATOM     42  N   UNL     1       4.759  -2.890  26.977  0.00  0.00    -0.308 N 
ATOM     43  H   UNL     1       5.244  -2.385  26.240  0.00  0.00    +0.149 HD
ATOM     44  O   UNL     1       3.516  -2.740  28.877  0.00  0.00    -0.274 OA
BRANCH  42  45
ATOM     45  C   UNL     1       4.914  -4.329  27.021  0.00  0.00    +0.159 C 
BRANCH  45  46
ATOM     46  C   UNL     1       4.539  -4.958  25.696  0.00  0.00    +0.058 A 
ATOM     47  N   UNL     1       4.863  -6.265  25.512  0.00  0.00    -0.258 NA
ATOM     48  C   UNL     1       4.483  -6.839  24.347  0.00  0.00    +0.111 A 
ATOM     49  C   UNL     1       3.777  -6.179  23.355  0.00  0.00    +0.020 A 
ATOM     50  C   UNL     1       3.440  -4.848  23.565  0.00  0.00    +0.003 A 
ATOM     51  C   UNL     1       3.823  -4.227  24.751  0.00  0.00    +0.025 A 
ENDBRANCH  45  46
ENDBRANCH  42  45
ENDBRANCH  40  41
BRANCH  40  52
ATOM     52  C   UNL     1       4.510   0.013  29.315  0.00  0.00    +0.012 C 
ATOM     53  C   UNL     1       3.286   0.865  29.670  0.00  0.00    +0.009 C 
ATOM     54  C   UNL     1       5.777   0.860  29.493  0.00  0.00    +0.009 C 
ENDBRANCH  40  52
ENDBRANCH  37  40
ENDBRANCH  35  36
BRANCH  35  55
ATOM     55  O   UNL     1       7.176  -0.379  24.486  0.00  0.00    -0.360 OA
BRANCH  55  56
ATOM     56  C   UNL     1       6.343  -1.111  23.587  0.00  0.00    +0.196 C 
BRANCH  56  57
ATOM     57  C   UNL     1       6.775  -2.545  23.392  0.00  0.00    -0.022 A 
ATOM     58  C   UNL     1       7.459  -3.192  24.436  0.00  0.00    +0.006 A 
ATOM     59  C   UNL     1       7.875  -4.518  24.306  0.00  0.00    +0.000 A 
ATOM     60  C   UNL     1       7.614  -5.214  23.129  0.00  0.00    +0.000 A 
ATOM     61  C   UNL     1       6.943  -4.583  22.084  0.00  0.00    +0.000 A 
ATOM     62  C   UNL     1       6.526  -3.253  22.212  0.00  0.00    +0.006 A 
ENDBRANCH  56  57
ENDBRANCH  55  56
ENDBRANCH  35  55
ENDBRANCH  32  35
ENDBRANCH   1  32
TORSDOF 23
ENDMDL
MODEL 9
REMARK VINA RESULT:      -6.1      2.176      9.130
REMARK  Name = 
REMARK  27 active torsions:
REMARK  status: ('A' for Active; 'I' for Inactive)
REMARK    1  A    between atoms: C_1  and  C_2
REMARK    2  A    between atoms: C_2  and  C_3
REMARK    3  A    between atoms: C_2  and  C_4
REMARK    4  A    between atoms: C_4  and  N_6
REMARK    5  A    between atoms: C_4  and  C_53
REMARK    6  A    between atoms: C_7  and  C_9
REMARK    7  A    between atoms: C_9  and  O_11
REMARK    8  A    between atoms: C_9  and  C_19
REMARK    9  A    between atoms: O_11  and  C_12
REMARK   10  A    between atoms: C_12  and  C_13
REMARK   11  A    between atoms: C_19  and  O_21
REMARK   12  A    between atoms: C_19  and  C_22
REMARK   13  A    between atoms: C_22  and  O_24
REMARK   14  A    between atoms: C_22  and  C_25
REMARK   15  A    between atoms: C_25  and  O_27
REMARK   16  A    between atoms: C_25  and  C_35
REMARK   17  A    between atoms: O_27  and  C_28
REMARK   18  A    between atoms: C_28  and  C_29
REMARK   19  A    between atoms: N_37  and  C_38
REMARK   20  A    between atoms: C_38  and  C_40
REMARK   21  A    between atoms: C_38  and  C_43
REMARK   22  A    between atoms: C_40  and  C_41
REMARK   23  A    between atoms: C_40  and  C_42
REMARK   24  A    between atoms: N_45  and  C_46
REMARK   25  A    between atoms: C_46  and  C_47
REMARK   26  A    between atoms: N_55  and  C_56
REMARK   27  A    between atoms: C_56  and  C_57
REMARK                            x       y       z     vdW  Elec       q    Type
REMARK                         _______ _______ _______ _____ _____    ______ ____
ROOT
ATOM      1  C   UNL     1       5.084   0.535  27.786  0.00  0.00    +0.184 C 
ENDROOT
BRANCH   1   2
ATOM      2  O   UNL     1       5.021  -0.380  28.901  0.00  0.00    -0.386 OA
ATOM      3  H   UNL     1       4.229  -0.112  29.416  0.00  0.00    +0.210 HD
ENDBRANCH   1   2
BRANCH   1   4
ATOM      4  C   UNL     1       3.938   0.250  26.771  0.00  0.00    +0.235 C 
BRANCH   4   7
ATOM      5  N   UNL     1       3.281  -2.118  26.962  0.00  0.00    -0.302 N 
ATOM      6  H   UNL     1       4.047  -2.269  26.307  0.00  0.00    +0.150 HD
ATOM      7  C   UNL     1       2.987  -0.832  27.350  0.00  0.00    +0.245 C 
ATOM      8  O   UNL     1       2.034  -0.567  28.084  0.00  0.00    -0.273 OA
BRANCH   5   9
ATOM      9  C   UNL     1       2.462  -3.286  27.307  0.00  0.00    +0.161 C 
BRANCH   9  10
ATOM     10  C   UNL     1       2.228  -4.057  25.984  0.00  0.00    +0.234 C 
ATOM     11  N   UNL     1       3.271  -4.042  25.090  0.00  0.00    -0.308 N 
ATOM     12  H   UNL     1       4.179  -3.688  25.364  0.00  0.00    +0.149 HD
ATOM     13  O   UNL     1       1.163  -4.630  25.750  0.00  0.00    -0.274 OA
BRANCH  11  14
ATOM     14  C   UNL     1       3.214  -4.761  23.829  0.00  0.00    +0.159 C 
BRANCH  14  15
ATOM     15  C   UNL     1       4.565  -4.822  23.153  0.00  0.00    +0.058 A 
ATOM     16  N   UNL     1       4.981  -3.704  22.501  0.00  0.00    -0.258 NA
ATOM     17  C   UNL     1       6.189  -3.752  21.895  0.00  0.00    +0.111 A 
ATOM     18  C   UNL     1       7.023  -4.855  21.924  0.00  0.00    +0.020 A 
ATOM     19  C   UNL     1       6.593  -5.984  22.610  0.00  0.00    +0.003 A 
ATOM     20  C   UNL     1       5.349  -5.970  23.237  0.00  0.00    +0.025 A 
ENDBRANCH  14  15
ENDBRANCH  11  14
ENDBRANCH   9  10
BRANCH   9  22
ATOM     21  C   UNL     1       2.809  -3.615  29.834  0.00  0.00    +0.009 C 
ATOM     22  C   UNL     1       3.127  -4.126  28.425  0.00  0.00    +0.012 C 
ATOM     23  C   UNL     1       2.794  -5.618  28.329  0.00  0.00    +0.009 C 
ENDBRANCH   9  22
ENDBRANCH   5   9
ENDBRANCH   4   7
BRANCH   4  24
ATOM     24  O   UNL     1       3.181   1.387  26.334  0.00  0.00    -0.360 OA
BRANCH  24  25
ATOM     25  C   UNL     1       3.379   2.574  27.107  0.00  0.00    +0.196 C 
BRANCH  25  26
ATOM     26  C   UNL     1       3.693   3.742  26.201  0.00  0.00    -0.022 A 
ATOM     27  C   UNL     1       3.502   3.626  24.817  0.00  0.00    +0.006 A 
ATOM     28  C   UNL     1       3.848   4.671  23.960  0.00  0.00    +0.000 A 
ATOM     29  C   UNL     1       4.394   5.846  24.477  0.00  0.00    +0.000 A 
ATOM     30  C   UNL     1       4.586   5.974  25.851  0.00  0.00    +0.000 A 
ATOM     31  C   UNL     1       4.240   4.931  26.709  0.00  0.00    +0.006 A 
ENDBRANCH  25  26
ENDBRANCH  24  25
ENDBRANCH   4  24
ENDBRANCH   1   4
BRANCH   1  32
ATOM     32  C   UNL     1       6.545   0.533  27.274  0.00  0.00    +0.184 C 
BRANCH  32  33
ATOM     33  O   UNL     1       7.437   1.031  28.276  0.00  0.00    -0.386 OA
ATOM     34  H   UNL     1       7.219   0.551  29.102  0.00  0.00    +0.210 HD
ENDBRANCH  32  33
BRANCH  32  35
ATOM     35  C   UNL     1       6.779   1.185  25.873  0.00  0.00    +0.235 C 
BRANCH  35  36
ATOM     36  C   UNL     1       8.127   0.625  25.323  0.00  0.00    +0.245 C 
ATOM     37  N   UNL     1       8.282   0.656  23.948  0.00  0.00    -0.302 N 
ATOM     38  H   UNL     1       7.476   0.870  23.377  0.00  0.00    +0.150 HD
ATOM     39  O   UNL     1       9.006   0.165  26.055  0.00  0.00    -0.273 OA
BRANCH  37  40
ATOM     40  C   UNL     1       9.491   0.150  23.265  0.00  0.00    +0.161 C 
BRANCH  40  41
ATOM     41  C   UNL     1       9.434  -1.393  23.053  0.00  0.00    +0.234 C 
ATOM     42  N   UNL     1       9.778  -2.134  24.156  0.00  0.00    -0.308 N 
ATOM     43  H   UNL     1      10.040  -1.656  25.013  0.00  0.00    +0.149 HD
ATOM     44  O   UNL     1       9.193  -1.920  21.968  0.00  0.00    -0.274 OA
BRANCH  42  45
ATOM     45  C   UNL     1       9.547  -3.563  24.226  0.00  0.00    +0.159 C 
BRANCH  45  46
ATOM     46  C   UNL     1       8.466  -3.891  25.232  0.00  0.00    +0.058 A 
ATOM     47  N   UNL     1       7.518  -2.945  25.462  0.00  0.00    -0.258 NA
ATOM     48  C   UNL     1       6.525  -3.259  26.324  0.00  0.00    +0.111 A 
ATOM     49  C   UNL     1       6.414  -4.483  26.963  0.00  0.00    +0.020 A 
ATOM     50  C   UNL     1       7.383  -5.447  26.706  0.00  0.00    +0.003 A 
ATOM     51  C   UNL     1       8.422  -5.150  25.829  0.00  0.00    +0.025 A 
ENDBRANCH  45  46
ENDBRANCH  42  45
ENDBRANCH  40  41
BRANCH  40  52
ATOM     52  C   UNL     1       9.778   0.906  21.937  0.00  0.00    +0.012 C 
ATOM     53  C   UNL     1      10.515   2.225  22.190  0.00  0.00    +0.009 C 
ATOM     54  C   UNL     1       8.535   1.184  21.082  0.00  0.00    +0.009 C 
ENDBRANCH  40  52
ENDBRANCH  37  40
ENDBRANCH  35  36
BRANCH  35  55
ATOM     55  O   UNL     1       6.729   2.610  25.969  0.00  0.00    -0.360 OA
BRANCH  55  56
ATOM     56  C   UNL     1       7.964   3.245  25.638  0.00  0.00    +0.196 C 
BRANCH  56  57
ATOM     57  C   UNL     1       7.837   4.293  24.559  0.00  0.00    -0.022 A 
ATOM     58  C   UNL     1       7.385   3.900  23.287  0.00  0.00    +0.006 A 
ATOM     59  C   UNL     1       7.246   4.833  22.257  0.00  0.00    +0.000 A 
ATOM     60  C   UNL     1       7.560   6.169  22.486  0.00  0.00    +0.000 A 
ATOM     61  C   UNL     1       8.016   6.571  23.740  0.00  0.00    +0.000 A 
ATOM     62  C   UNL     1       8.156   5.637  24.773  0.00  0.00    +0.006 A 
ENDBRANCH  56  57
ENDBRANCH  55  56
ENDBRANCH  35  55
ENDBRANCH  32  35
ENDBRANCH   1  32
TORSDOF 23
ENDMDL
