MODEL 1
REMARK VINA RESULT:      -4.5      0.000      0.000
REMARK  Name = 
REMARK  12 active torsions:
REMARK  status: ('A' for Active; 'I' for Inactive)
REMARK    1  A    between atoms: C_2  and  C_3
REMARK    2  A    between atoms: C_3  and  C_4
REMARK    3  A    between atoms: C_4  and  C_5
REMARK    4  A    between atoms: C_5  and  C_6
REMARK    5  A    between atoms: C_7  and  C_8
REMARK    6  A    between atoms: C_7  and  C_18
REMARK    7  A    between atoms: C_8  and  C_9
REMARK    8  A    between atoms: C_9  and  C_10
REMARK    9  A    between atoms: C_11  and  C_12
REMARK   10  A    between atoms: C_11  and  C_16
REMARK   11  A    between atoms: C_12  and  C_13
REMARK   12  A    between atoms: C_13  and  C_14
REMARK                            x       y       z     vdW  Elec       q    Type
REMARK                         _______ _______ _______ _____ _____    ______ ____
ROOT
ATOM      1  C   UNL     1       8.153  -1.392  24.902  0.00  0.00    +0.042 C 
ENDROOT
BRANCH   1   3
ATOM      2  C   UNL     1       9.499  -3.619  24.676  0.00  0.00    -0.020 C 
ATOM      3  C   UNL     1       9.153  -2.368  24.304  0.00  0.00    -0.012 C 
BRANCH   3   4
ATOM      4  C   UNL     1       9.889  -1.866  23.101  0.00  0.00    +0.254 C 
ATOM      5  O   UNL     1      10.487  -0.800  23.081  0.00  0.00    -0.296 OA
ENDBRANCH   3   4
BRANCH   2   6
ATOM      6  C   UNL     1       8.964  -4.420  25.831  0.00  0.00    +0.028 C 
BRANCH   6   7
ATOM      7  C   UNL     1       7.689  -5.224  25.522  0.00  0.00    +0.011 C 
BRANCH   7   8
ATOM      8  C   UNL     1       6.569  -5.139  26.561  0.00  0.00    +0.071 C 
BRANCH   8  10
ATOM      9  O   UNL     1       5.302  -7.086  27.271  0.00  0.00    -0.301 OA
ATOM     10  C   UNL     1       5.503  -6.202  26.447  0.00  0.00    +0.223 C 
ENDBRANCH   8  10
ENDBRANCH   7   8
ENDBRANCH   6   7
ENDBRANCH   2   6
ENDBRANCH   1   3
BRANCH   1  11
ATOM     11  C   UNL     1       6.864  -1.144  24.109  0.00  0.00    +0.032 C 
BRANCH  11  12
ATOM     12  C   UNL     1       5.807  -2.202  24.286  0.00  0.00    -0.020 C 
ATOM     13  C   UNL     1       5.415  -3.112  23.373  0.00  0.00    -0.012 C 
BRANCH  13  14
ATOM     14  C   UNL     1       4.225  -3.956  23.710  0.00  0.00    +0.254 C 
ATOM     15  O   UNL     1       3.722  -4.755  22.926  0.00  0.00    -0.296 OA
ENDBRANCH  13  14
BRANCH  13  16
ATOM     16  C   UNL     1       6.016  -3.344  22.009  0.00  0.00    +0.045 C 
BRANCH  16  17
ATOM     17  C   UNL     1       7.106  -4.415  21.981  0.00  0.00    +0.075 C 
BRANCH  17  18
ATOM     18  C   UNL     1       6.658  -5.694  21.324  0.00  0.00    +0.223 C 
ATOM     19  O   UNL     1       5.956  -5.737  20.317  0.00  0.00    -0.301 OA
ENDBRANCH  17  18
ENDBRANCH  16  17
ENDBRANCH  13  16
ENDBRANCH  11  12
ENDBRANCH   1  11
TORSDOF 12
ENDMDL
MODEL 2
REMARK VINA RESULT:      -4.4      1.477      4.319
REMARK  Name = 
REMARK  12 active torsions:
REMARK  status: ('A' for Active; 'I' for Inactive)
REMARK    1  A    between atoms: C_2  and  C_3
REMARK    2  A    between atoms: C_3  and  C_4
REMARK    3  A    between atoms: C_4  and  C_5
REMARK    4  A    between atoms: C_5  and  C_6
REMARK    5  A    between atoms: C_7  and  C_8
REMARK    6  A    between atoms: C_7  and  C_18
REMARK    7  A    between atoms: C_8  and  C_9
REMARK    8  A    between atoms: C_9  and  C_10
REMARK    9  A    between atoms: C_11  and  C_12
REMARK   10  A    between atoms: C_11  and  C_16
REMARK   11  A    between atoms: C_12  and  C_13
REMARK   12  A    between atoms: C_13  and  C_14
REMARK                            x       y       z     vdW  Elec       q    Type
REMARK                         _______ _______ _______ _____ _____    ______ ____
ROOT
ATOM      1  C   UNL     1       7.594  -2.874  26.118  0.00  0.00    +0.042 C 
ENDROOT
BRANCH   1   3
ATOM      2  C   UNL     1       9.494  -3.622  24.489  0.00  0.00    -0.020 C 
ATOM      3  C   UNL     1       8.554  -3.833  25.436  0.00  0.00    -0.012 C 
BRANCH   3   4
ATOM      4  C   UNL     1       8.447  -5.260  25.877  0.00  0.00    +0.254 C 
ATOM      5  O   UNL     1       7.685  -5.631  26.758  0.00  0.00    -0.296 OA
ENDBRANCH   3   4
BRANCH   2   6
ATOM      6  C   UNL     1       9.859  -2.321  23.827  0.00  0.00    +0.028 C 
BRANCH   6   7
ATOM      7  C   UNL     1       9.066  -2.006  22.546  0.00  0.00    +0.011 C 
BRANCH   7   8
ATOM      8  C   UNL     1       8.495  -0.591  22.436  0.00  0.00    +0.071 C 
BRANCH   8  10
ATOM      9  O   UNL     1      10.095   1.161  21.916  0.00  0.00    -0.301 OA
ATOM     10  C   UNL     1       9.263   0.346  21.535  0.00  0.00    +0.223 C 
ENDBRANCH   8  10
ENDBRANCH   7   8
ENDBRANCH   6   7
ENDBRANCH   2   6
ENDBRANCH   1   3
BRANCH   1  11
ATOM     11  C   UNL     1       6.462  -2.294  25.261  0.00  0.00    +0.032 C 
BRANCH  11  12
ATOM     12  C   UNL     1       5.319  -3.241  25.011  0.00  0.00    -0.020 C 
ATOM     13  C   UNL     1       5.013  -3.850  23.848  0.00  0.00    -0.012 C 
BRANCH  13  14
ATOM     14  C   UNL     1       3.727  -4.616  23.789  0.00  0.00    +0.254 C 
ATOM     15  O   UNL     1       3.313  -5.159  22.771  0.00  0.00    -0.296 OA
ENDBRANCH  13  14
BRANCH  13  16
ATOM     16  C   UNL     1       5.804  -3.801  22.565  0.00  0.00    +0.045 C 
BRANCH  16  17
ATOM     17  C   UNL     1       6.781  -4.965  22.391  0.00  0.00    +0.075 C 
BRANCH  17  18
ATOM     18  C   UNL     1       6.453  -5.837  21.208  0.00  0.00    +0.223 C 
ATOM     19  O   UNL     1       5.937  -5.422  20.173  0.00  0.00    -0.301 OA
ENDBRANCH  17  18
ENDBRANCH  16  17
ENDBRANCH  13  16
ENDBRANCH  11  12
ENDBRANCH   1  11
TORSDOF 12
ENDMDL
MODEL 3
REMARK VINA RESULT:      -4.4      2.120      5.123
REMARK  Name = 
REMARK  12 active torsions:
REMARK  status: ('A' for Active; 'I' for Inactive)
REMARK    1  A    between atoms: C_2  and  C_3
REMARK    2  A    between atoms: C_3  and  C_4
REMARK    3  A    between atoms: C_4  and  C_5
REMARK    4  A    between atoms: C_5  and  C_6
REMARK    5  A    between atoms: C_7  and  C_8
REMARK    6  A    between atoms: C_7  and  C_18
REMARK    7  A    between atoms: C_8  and  C_9
REMARK    8  A    between atoms: C_9  and  C_10
REMARK    9  A    between atoms: C_11  and  C_12
REMARK   10  A    between atoms: C_11  and  C_16
REMARK   11  A    between atoms: C_12  and  C_13
REMARK   12  A    between atoms: C_13  and  C_14
REMARK                            x       y       z     vdW  Elec       q    Type
REMARK                         _______ _______ _______ _____ _____    ______ ____
ROOT
ATOM      1  C   UNL     1       7.711  -1.576  23.952  0.00  0.00    +0.042 C 
ENDROOT
BRANCH   1   3
ATOM      2  C   UNL     1       9.772  -1.390  22.358  0.00  0.00    -0.020 C 
ATOM      3  C   UNL     1       9.084  -1.912  23.396  0.00  0.00    -0.012 C 
BRANCH   3   4
ATOM      4  C   UNL     1       9.806  -3.013  24.111  0.00  0.00    +0.254 C 
ATOM      5  O   UNL     1       9.358  -4.146  24.218  0.00  0.00    -0.296 OA
ENDBRANCH   3   4
BRANCH   2   6
ATOM      6  C   UNL     1       9.345  -0.284  21.433  0.00  0.00    +0.028 C 
BRANCH   6   7
ATOM      7  C   UNL     1       9.887   1.109  21.799  0.00  0.00    +0.011 C 
BRANCH   7   8
ATOM      8  C   UNL     1       9.503   1.641  23.181  0.00  0.00    +0.071 C 
BRANCH   8  10
ATOM      9  O   UNL     1      10.876   0.681  24.940  0.00  0.00    -0.301 OA
ATOM     10  C   UNL     1      10.610   1.627  24.207  0.00  0.00    +0.223 C 
ENDBRANCH   8  10
ENDBRANCH   7   8
ENDBRANCH   6   7
ENDBRANCH   2   6
ENDBRANCH   1   3
BRANCH   1  11
ATOM     11  C   UNL     1       6.507  -1.838  23.038  0.00  0.00    +0.032 C 
BRANCH  11  12
ATOM     12  C   UNL     1       6.633  -3.064  22.174  0.00  0.00    -0.020 C 
ATOM     13  C   UNL     1       6.172  -4.300  22.452  0.00  0.00    -0.012 C 
BRANCH  13  14
ATOM     14  C   UNL     1       6.565  -5.407  21.523  0.00  0.00    +0.254 C 
ATOM     15  O   UNL     1       5.969  -5.653  20.480  0.00  0.00    -0.296 OA
ENDBRANCH  13  14
BRANCH  13  16
ATOM     16  C   UNL     1       5.337  -4.708  23.640  0.00  0.00    +0.045 C 
BRANCH  16  17
ATOM     17  C   UNL     1       6.151  -5.233  24.823  0.00  0.00    +0.075 C 
BRANCH  17  18
ATOM     18  C   UNL     1       6.237  -4.251  25.961  0.00  0.00    +0.223 C 
ATOM     19  O   UNL     1       7.037  -4.346  26.889  0.00  0.00    -0.301 OA
ENDBRANCH  17  18
ENDBRANCH  16  17
ENDBRANCH  13  16
ENDBRANCH  11  12
ENDBRANCH   1  11
TORSDOF 12
ENDMDL
MODEL 4
REMARK VINA RESULT:      -4.4      2.533      5.441
REMARK  Name = 
REMARK  12 active torsions:
REMARK  status: ('A' for Active; 'I' for Inactive)
REMARK    1  A    between atoms: C_2  and  C_3
REMARK    2  A    between atoms: C_3  and  C_4
REMARK    3  A    between atoms: C_4  and  C_5
REMARK    4  A    between atoms: C_5  and  C_6
REMARK    5  A    between atoms: C_7  and  C_8
REMARK    6  A    between atoms: C_7  and  C_18
REMARK    7  A    between atoms: C_8  and  C_9
REMARK    8  A    between atoms: C_9  and  C_10
REMARK    9  A    between atoms: C_11  and  C_12
REMARK   10  A    between atoms: C_11  and  C_16
REMARK   11  A    between atoms: C_12  and  C_13
REMARK   12  A    between atoms: C_13  and  C_14
REMARK                            x       y       z     vdW  Elec       q    Type
REMARK                         _______ _______ _______ _____ _____    ______ ____
ROOT
ATOM      1  C   UNL     1       9.140  -1.670  23.427  0.00  0.00    +0.042 C 
ENDROOT
BRANCH   1   3
ATOM      2  C   UNL     1      10.065   0.077  25.135  0.00  0.00    -0.020 C 
ATOM      3  C   UNL     1       9.299  -0.973  24.768  0.00  0.00    -0.012 C 
BRANCH   3   4
ATOM      4  C   UNL     1       8.475  -1.542  25.881  0.00  0.00    +0.254 C 
ATOM      5  O   UNL     1       8.450  -1.064  27.006  0.00  0.00    -0.296 OA
ENDBRANCH   3   4
BRANCH   2   6
ATOM      6  C   UNL     1      11.007   0.876  24.276  0.00  0.00    +0.028 C 
BRANCH   6   7
ATOM      7  C   UNL     1      10.349   2.025  23.493  0.00  0.00    +0.011 C 
BRANCH   7   8
ATOM      8  C   UNL     1       9.993   1.730  22.035  0.00  0.00    +0.071 C 
BRANCH   8  10
ATOM      9  O   UNL     1       7.631   1.634  22.594  0.00  0.00    -0.301 OA
ATOM     10  C   UNL     1       8.520   1.552  21.754  0.00  0.00    +0.223 C 
ENDBRANCH   8  10
ENDBRANCH   7   8
ENDBRANCH   6   7
ENDBRANCH   2   6
ENDBRANCH   1   3
BRANCH   1  11
ATOM     11  C   UNL     1       7.709  -1.917  22.937  0.00  0.00    +0.032 C 
BRANCH  11  12
ATOM     12  C   UNL     1       7.524  -3.198  22.168  0.00  0.00    -0.020 C 
ATOM     13  C   UNL     1       7.094  -4.378  22.658  0.00  0.00    -0.012 C 
BRANCH  13  14
ATOM     14  C   UNL     1       7.152  -5.564  21.744  0.00  0.00    +0.254 C 
ATOM     15  O   UNL     1       6.555  -6.612  21.963  0.00  0.00    -0.296 OA
ENDBRANCH  13  14
BRANCH  13  16
ATOM     16  C   UNL     1       6.604  -4.654  24.057  0.00  0.00    +0.045 C 
BRANCH  16  17
ATOM     17  C   UNL     1       7.709  -5.048  25.038  0.00  0.00    +0.075 C 
BRANCH  17  18
ATOM     18  C   UNL     1       7.193  -5.324  26.426  0.00  0.00    +0.223 C 
ATOM     19  O   UNL     1       7.860  -5.169  27.447  0.00  0.00    -0.301 OA
ENDBRANCH  17  18
ENDBRANCH  16  17
ENDBRANCH  13  16
ENDBRANCH  11  12
ENDBRANCH   1  11
TORSDOF 12
ENDMDL
MODEL 5
REMARK VINA RESULT:      -4.3      2.540      5.324
REMARK  Name = 
REMARK  12 active torsions:
REMARK  status: ('A' for Active; 'I' for Inactive)
REMARK    1  A    between atoms: C_2  and  C_3
REMARK    2  A    between atoms: C_3  and  C_4
REMARK    3  A    between atoms: C_4  and  C_5
REMARK    4  A    between atoms: C_5  and  C_6
REMARK    5  A    between atoms: C_7  and  C_8
REMARK    6  A    between atoms: C_7  and  C_18
REMARK    7  A    between atoms: C_8  and  C_9
REMARK    8  A    between atoms: C_9  and  C_10
REMARK    9  A    between atoms: C_11  and  C_12
REMARK   10  A    between atoms: C_11  and  C_16
REMARK   11  A    between atoms: C_12  and  C_13
REMARK   12  A    between atoms: C_13  and  C_14
REMARK                            x       y       z     vdW  Elec       q    Type
REMARK                         _______ _______ _______ _____ _____    ______ ____
ROOT
ATOM      1  C   UNL     1       8.659  -1.424  24.025  0.00  0.00    +0.042 C 
ENDROOT
BRANCH   1   3
ATOM      2  C   UNL     1       9.975   0.457  25.271  0.00  0.00    -0.020 C 
ATOM      3  C   UNL     1       9.037  -0.510  25.178  0.00  0.00    -0.012 C 
BRANCH   3   4
ATOM      4  C   UNL     1       8.244  -0.709  26.433  0.00  0.00    +0.254 C 
ATOM      5  O   UNL     1       7.277  -1.454  26.501  0.00  0.00    -0.296 OA
ENDBRANCH   3   4
BRANCH   2   6
ATOM      6  C   UNL     1      10.940   0.910  24.210  0.00  0.00    +0.028 C 
BRANCH   6   7
ATOM      7  C   UNL     1      10.412   2.027  23.293  0.00  0.00    +0.011 C 
BRANCH   7   8
ATOM      8  C   UNL     1       9.861   1.583  21.937  0.00  0.00    +0.071 C 
BRANCH   8  10
ATOM      9  O   UNL     1       7.578   1.781  22.742  0.00  0.00    -0.301 OA
ATOM     10  C   UNL     1       8.357   1.614  21.811  0.00  0.00    +0.223 C 
ENDBRANCH   8  10
ENDBRANCH   7   8
ENDBRANCH   6   7
ENDBRANCH   2   6
ENDBRANCH   1   3
BRANCH   1  11
ATOM     11  C   UNL     1       9.524  -2.673  23.816  0.00  0.00    +0.032 C 
BRANCH  11  12
ATOM     12  C   UNL     1       9.308  -3.761  24.834  0.00  0.00    -0.020 C 
ATOM     13  C   UNL     1       8.252  -4.595  24.913  0.00  0.00    -0.012 C 
BRANCH  13  14
ATOM     14  C   UNL     1       8.168  -5.486  26.115  0.00  0.00    +0.254 C 
ATOM     15  O   UNL     1       7.869  -5.082  27.233  0.00  0.00    -0.296 OA
ENDBRANCH  13  14
BRANCH  13  16
ATOM     16  C   UNL     1       7.102  -4.696  23.943  0.00  0.00    +0.045 C 
BRANCH  16  17
ATOM     17  C   UNL     1       7.418  -5.503  22.683  0.00  0.00    +0.075 C 
BRANCH  17  18
ATOM     18  C   UNL     1       6.194  -5.819  21.864  0.00  0.00    +0.223 C 
ATOM     19  O   UNL     1       5.940  -5.292  20.783  0.00  0.00    -0.301 OA
ENDBRANCH  17  18
ENDBRANCH  16  17
ENDBRANCH  13  16
ENDBRANCH  11  12
ENDBRANCH   1  11
TORSDOF 12
ENDMDL
MODEL 6
REMARK VINA RESULT:      -4.3      2.399      5.346
REMARK  Name = 
REMARK  12 active torsions:
REMARK  status: ('A' for Active; 'I' for Inactive)
REMARK    1  A    between atoms: C_2  and  C_3
REMARK    2  A    between atoms: C_3  and  C_4
REMARK    3  A    between atoms: C_4  and  C_5
REMARK    4  A    between atoms: C_5  and  C_6
REMARK    5  A    between atoms: C_7  and  C_8
REMARK    6  A    between atoms: C_7  and  C_18
REMARK    7  A    between atoms: C_8  and  C_9
REMARK    8  A    between atoms: C_9  and  C_10
REMARK    9  A    between atoms: C_11  and  C_12
REMARK   10  A    between atoms: C_11  and  C_16
REMARK   11  A    between atoms: C_12  and  C_13
REMARK   12  A    between atoms: C_13  and  C_14
REMARK                            x       y       z     vdW  Elec       q    Type
REMARK                         _______ _______ _______ _____ _____    ______ ____
ROOT
ATOM      1  C   UNL     1       7.525  -2.518  22.689  0.00  0.00    +0.042 C 
ENDROOT
BRANCH   1   3
ATOM      2  C   UNL     1       8.151  -4.775  23.847  0.00  0.00    -0.020 C 
ATOM      3  C   UNL     1       7.487  -4.014  22.950  0.00  0.00    -0.012 C 
BRANCH   3   4
ATOM      4  C   UNL     1       6.561  -4.789  22.064  0.00  0.00    +0.254 C 
ATOM      5  O   UNL     1       5.903  -4.274  21.172  0.00  0.00    -0.296 OA
ENDBRANCH   3   4
BRANCH   2   6
ATOM      6  C   UNL     1       9.152  -4.324  24.876  0.00  0.00    +0.028 C 
BRANCH   6   7
ATOM      7  C   UNL     1       8.734  -4.576  26.335  0.00  0.00    +0.011 C 
BRANCH   7   8
ATOM      8  C   UNL     1       7.275  -4.274  26.681  0.00  0.00    +0.071 C 
BRANCH   8  10
ATOM      9  O   UNL     1       7.180  -6.150  28.221  0.00  0.00    -0.301 OA
ATOM     10  C   UNL     1       6.598  -5.291  27.567  0.00  0.00    +0.223 C 
ENDBRANCH   8  10
ENDBRANCH   7   8
ENDBRANCH   6   7
ENDBRANCH   2   6
ENDBRANCH   1   3
BRANCH   1  11
ATOM     11  C   UNL     1       8.842  -1.938  22.158  0.00  0.00    +0.032 C 
BRANCH  11  12
ATOM     12  C   UNL     1       9.592  -1.084  23.145  0.00  0.00    -0.020 C 
ATOM     13  C   UNL     1       9.992   0.191  22.969  0.00  0.00    -0.012 C 
BRANCH  13  14
ATOM     14  C   UNL     1      10.877   0.786  24.021  0.00  0.00    +0.254 C 
ATOM     15  O   UNL     1      10.864   0.427  25.193  0.00  0.00    -0.296 OA
ENDBRANCH  13  14
BRANCH  13  16
ATOM     16  C   UNL     1       9.689   1.081  21.790  0.00  0.00    +0.045 C 
BRANCH  16  17
ATOM     17  C   UNL     1       8.236   1.552  21.721  0.00  0.00    +0.075 C 
BRANCH  17  18
ATOM     18  C   UNL     1       8.036   2.933  22.287  0.00  0.00    +0.223 C 
ATOM     19  O   UNL     1       8.809   3.465  23.081  0.00  0.00    -0.301 OA
ENDBRANCH  17  18
ENDBRANCH  16  17
ENDBRANCH  13  16
ENDBRANCH  11  12
ENDBRANCH   1  11
TORSDOF 12
ENDMDL
MODEL 7
REMARK VINA RESULT:      -4.3      1.945      4.951
REMARK  Name = 
REMARK  12 active torsions:
REMARK  status: ('A' for Active; 'I' for Inactive)
REMARK    1  A    between atoms: C_2  and  C_3
REMARK    2  A    between atoms: C_3  and  C_4
REMARK    3  A    between atoms: C_4  and  C_5
REMARK    4  A    between atoms: C_5  and  C_6
REMARK    5  A    between atoms: C_7  and  C_8
REMARK    6  A    between atoms: C_7  and  C_18
REMARK    7  A    between atoms: C_8  and  C_9
REMARK    8  A    between atoms: C_9  and  C_10
REMARK    9  A    between atoms: C_11  and  C_12
REMARK   10  A    between atoms: C_11  and  C_16
REMARK   11  A    between atoms: C_12  and  C_13
REMARK   12  A    between atoms: C_13  and  C_14
REMARK                            x       y       z     vdW  Elec       q    Type
REMARK                         _______ _______ _______ _____ _____    ______ ____
ROOT
ATOM      1  C   UNL     1       5.790  -3.465  22.459  0.00  0.00    +0.042 C 
ENDROOT
BRANCH   1   3
ATOM      2  C   UNL     1       5.827  -5.677  23.849  0.00  0.00    -0.020 C 
ATOM      3  C   UNL     1       5.965  -4.952  22.718  0.00  0.00    -0.012 C 
BRANCH   3   4
ATOM      4  C   UNL     1       6.364  -5.761  21.523  0.00  0.00    +0.254 C 
ATOM      5  O   UNL     1       5.973  -5.519  20.391  0.00  0.00    -0.296 OA
ENDBRANCH   3   4
BRANCH   2   6
ATOM      6  C   UNL     1       5.444  -5.184  25.218  0.00  0.00    +0.028 C 
BRANCH   6   7
ATOM      7  C   UNL     1       6.582  -4.506  26.001  0.00  0.00    +0.011 C 
BRANCH   7   8
ATOM      8  C   UNL     1       7.811  -5.369  26.287  0.00  0.00    +0.071 C 
BRANCH   8  10
ATOM      9  O   UNL     1       9.251  -5.081  24.352  0.00  0.00    -0.301 OA
ATOM     10  C   UNL     1       9.069  -4.962  25.558  0.00  0.00    +0.223 C 
ENDBRANCH   8  10
ENDBRANCH   7   8
ENDBRANCH   6   7
ENDBRANCH   2   6
ENDBRANCH   1   3
BRANCH   1  11
ATOM     11  C   UNL     1       7.055  -2.599  22.495  0.00  0.00    +0.032 C 
BRANCH  11  12
ATOM     12  C   UNL     1       7.276  -1.869  23.794  0.00  0.00    -0.020 C 
ATOM     13  C   UNL     1       8.460  -1.488  24.315  0.00  0.00    -0.012 C 
BRANCH  13  14
ATOM     14  C   UNL     1       8.452  -0.928  25.704  0.00  0.00    +0.254 C 
ATOM     15  O   UNL     1       8.692  -1.599  26.701  0.00  0.00    -0.296 OA
ENDBRANCH  13  14
BRANCH  13  16
ATOM     16  C   UNL     1       9.817  -1.614  23.668  0.00  0.00    +0.045 C 
BRANCH  16  17
ATOM     17  C   UNL     1      10.474  -0.275  23.333  0.00  0.00    +0.075 C 
BRANCH  17  18
ATOM     18  C   UNL     1       9.712   0.514  22.301  0.00  0.00    +0.223 C 
ATOM     19  O   UNL     1      10.121   1.557  21.798  0.00  0.00    -0.301 OA
ENDBRANCH  17  18
ENDBRANCH  16  17
ENDBRANCH  13  16
ENDBRANCH  11  12
ENDBRANCH   1  11
TORSDOF 12
ENDMDL
MODEL 8
REMARK VINA RESULT:      -4.2      2.611      5.325
REMARK  Name = 
REMARK  12 active torsions:
REMARK  status: ('A' for Active; 'I' for Inactive)
REMARK    1  A    between atoms: C_2  and  C_3
REMARK    2  A    between atoms: C_3  and  C_4
REMARK    3  A    between atoms: C_4  and  C_5
REMARK    4  A    between atoms: C_5  and  C_6
REMARK    5  A    between atoms: C_7  and  C_8
REMARK    6  A    between atoms: C_7  and  C_18
REMARK    7  A    between atoms: C_8  and  C_9
REMARK    8  A    between atoms: C_9  and  C_10
REMARK    9  A    between atoms: C_11  and  C_12
REMARK   10  A    between atoms: C_11  and  C_16
REMARK   11  A    between atoms: C_12  and  C_13
REMARK   12  A    between atoms: C_13  and  C_14
REMARK                            x       y       z     vdW  Elec       q    Type
REMARK                         _______ _______ _______ _____ _____    ______ ____
ROOT
ATOM      1  C   UNL     1       7.566  -1.772  23.409  0.00  0.00    +0.042 C 
ENDROOT
BRANCH   1   3
ATOM      2  C   UNL     1       8.579  -4.008  24.300  0.00  0.00    -0.020 C 
ATOM      3  C   UNL     1       8.653  -2.778  23.748  0.00  0.00    -0.012 C 
BRANCH   3   4
ATOM      4  C   UNL     1      10.047  -2.339  23.425  0.00  0.00    +0.254 C 
ATOM      5  O   UNL     1      10.383  -1.940  22.320  0.00  0.00    -0.296 OA
ENDBRANCH   3   4
BRANCH   2   6
ATOM      6  C   UNL     1       7.347  -4.747  24.745  0.00  0.00    +0.028 C 
BRANCH   6   7
ATOM      7  C   UNL     1       6.437  -5.230  23.601  0.00  0.00    +0.011 C 
BRANCH   7   8
ATOM      8  C   UNL     1       7.141  -5.863  22.400  0.00  0.00    +0.071 C 
BRANCH   8  10
ATOM      9  O   UNL     1       5.817  -4.654  20.762  0.00  0.00    -0.301 OA
ATOM     10  C   UNL     1       6.463  -5.650  21.069  0.00  0.00    +0.223 C 
ENDBRANCH   8  10
ENDBRANCH   7   8
ENDBRANCH   6   7
ENDBRANCH   2   6
ENDBRANCH   1   3
BRANCH   1  11
ATOM     11  C   UNL     1       7.612  -0.424  24.139  0.00  0.00    +0.032 C 
BRANCH  11  12
ATOM     12  C   UNL     1       7.083   0.738  23.341  0.00  0.00    -0.020 C 
ATOM     13  C   UNL     1       7.743   1.436  22.396  0.00  0.00    -0.012 C 
BRANCH  13  14
ATOM     14  C   UNL     1       7.076   2.664  21.856  0.00  0.00    +0.254 C 
ATOM     15  O   UNL     1       7.084   3.744  22.436  0.00  0.00    -0.296 OA
ENDBRANCH  13  14
BRANCH  13  16
ATOM     16  C   UNL     1       9.119   1.146  21.852  0.00  0.00    +0.045 C 
BRANCH  16  17
ATOM     17  C   UNL     1      10.193   2.133  22.313  0.00  0.00    +0.075 C 
BRANCH  17  18
ATOM     18  C   UNL     1      10.516   2.008  23.779  0.00  0.00    +0.223 C 
ATOM     19  O   UNL     1      10.861   0.959  24.317  0.00  0.00    -0.301 OA
ENDBRANCH  17  18
ENDBRANCH  16  17
ENDBRANCH  13  16
ENDBRANCH  11  12
ENDBRANCH   1  11
TORSDOF 12
ENDMDL
MODEL 9
REMARK VINA RESULT:      -4.2      2.076      5.414
REMARK  Name = 
REMARK  12 active torsions:
REMARK  status: ('A' for Active; 'I' for Inactive)
REMARK    1  A    between atoms: C_2  and  C_3
REMARK    2  A    between atoms: C_3  and  C_4
REMARK    3  A    between atoms: C_4  and  C_5
REMARK    4  A    between atoms: C_5  and  C_6
REMARK    5  A    between atoms: C_7  and  C_8
REMARK    6  A    between atoms: C_7  and  C_18
REMARK    7  A    between atoms: C_8  and  C_9
REMARK    8  A    between atoms: C_9  and  C_10
REMARK    9  A    between atoms: C_11  and  C_12
REMARK   10  A    between atoms: C_11  and  C_16
REMARK   11  A    between atoms: C_12  and  C_13
REMARK   12  A    between atoms: C_13  and  C_14
REMARK                            x       y       z     vdW  Elec       q    Type
REMARK                         _______ _______ _______ _____ _____    ______ ____
ROOT
ATOM      1  C   UNL     1       9.543  -3.644  24.626  0.00  0.00    +0.042 C 
ENDROOT
BRANCH   1   3
ATOM      2  C   UNL     1       8.107  -1.569  23.949  0.00  0.00    -0.020 C 
ATOM      3  C   UNL     1       8.682  -2.409  24.836  0.00  0.00    -0.012 C 
BRANCH   3   4
ATOM      4  C   UNL     1       8.424  -2.051  26.267  0.00  0.00    +0.254 C 
ATOM      5  O   UNL     1       8.860  -1.036  26.791  0.00  0.00    -0.296 OA
ENDBRANCH   3   4
BRANCH   2   6
ATOM      6  C   UNL     1       8.167  -1.633  22.447  0.00  0.00    +0.028 C 
BRANCH   6   7
ATOM      7  C   UNL     1       9.433  -1.017  21.826  0.00  0.00    +0.011 C 
BRANCH   7   8
ATOM      8  C   UNL     1       9.324   0.440  21.375  0.00  0.00    +0.071 C 
BRANCH   8  10
ATOM      9  O   UNL     1       9.406   2.356  22.865  0.00  0.00    -0.301 OA
ATOM     10  C   UNL     1       9.986   1.447  22.283  0.00  0.00    +0.223 C 
ENDBRANCH   8  10
ENDBRANCH   7   8
ENDBRANCH   6   7
ENDBRANCH   2   6
ENDBRANCH   1   3
BRANCH   1  11
ATOM     11  C   UNL     1       8.834  -5.003  24.674  0.00  0.00    +0.032 C 
BRANCH  11  12
ATOM     12  C   UNL     1       7.754  -5.181  23.640  0.00  0.00    -0.020 C 
ATOM     13  C   UNL     1       6.423  -5.132  23.846  0.00  0.00    -0.012 C 
BRANCH  13  14
ATOM     14  C   UNL     1       5.535  -5.511  22.701  0.00  0.00    +0.254 C 
ATOM     15  O   UNL     1       4.441  -4.997  22.499  0.00  0.00    -0.296 OA
ENDBRANCH  13  14
BRANCH  13  16
ATOM     16  C   UNL     1       5.718  -4.786  25.134  0.00  0.00    +0.045 C 
BRANCH  16  17
ATOM     17  C   UNL     1       5.649  -5.938  26.136  0.00  0.00    +0.075 C 
BRANCH  17  18
ATOM     18  C   UNL     1       6.261  -5.596  27.470  0.00  0.00    +0.223 C 
ATOM     19  O   UNL     1       7.428  -5.837  27.769  0.00  0.00    -0.301 OA
ENDBRANCH  17  18
ENDBRANCH  16  17
ENDBRANCH  13  16
ENDBRANCH  11  12
ENDBRANCH   1  11
TORSDOF 12
ENDMDL
