MODEL 1
REMARK VINA RESULT:      -7.2      0.000      0.000
REMARK  Name = 
REMARK  7 active torsions:
REMARK  status: ('A' for Active; 'I' for Inactive)
REMARK    1  A    between atoms: C_2  and  N_20
REMARK    2  A    between atoms: N_10  and  C_11
REMARK    3  A    between atoms: C_11  and  C_12
REMARK    4  A    between atoms: N_14  and  C_15
REMARK    5  A    between atoms: C_15  and  C_16
REMARK    6  A    between atoms: C_16  and  O_17
REMARK    7  A    between atoms: C_21  and  C_23
REMARK                            x       y       z     vdW  Elec       q    Type
REMARK                         _______ _______ _______ _____ _____    ______ ____
ROOT
ATOM      1  C   UNL     1       7.953  -1.891  23.351  0.00  0.00    +0.164 C 
ATOM      2  C   UNL     1       8.992  -2.897  23.837  0.00  0.00    +0.241 C 
ATOM      3  O   UNL     1      10.135  -2.573  24.166  0.00  0.00    -0.273 OA
ATOM      4  N   UNL     1       8.464  -4.179  24.007  0.00  0.00    -0.261 N 
ATOM      5  C   UNL     1       7.584  -4.701  23.008  0.00  0.00    +0.040 A 
ATOM      6  C   UNL     1       7.280  -6.067  22.913  0.00  0.00    +0.024 A 
ATOM      7  C   UNL     1       6.484  -6.558  21.871  0.00  0.00    +0.002 A 
ATOM      8  C   UNL     1       5.969  -5.695  20.913  0.00  0.00    +0.000 A 
ATOM      9  C   UNL     1       6.253  -4.335  20.991  0.00  0.00    +0.005 A 
ATOM     10  C   UNL     1       7.058  -3.832  22.028  0.00  0.00    -0.024 A 
ATOM     11  C   UNL     1       7.386  -2.360  22.020  0.00  0.00    +0.068 C 
ENDROOT
BRANCH   1  12
ATOM     12  N   UNL     1       8.527  -0.554  23.310  0.00  0.00    -0.299 N 
ATOM     13  H   UNL     1       9.534  -0.491  23.367  0.00  0.00    +0.150 HD
ATOM     14  C   UNL     1       7.751   0.541  23.575  0.00  0.00    +0.261 C 
ATOM     15  O   UNL     1       6.525   0.478  23.663  0.00  0.00    -0.269 OA
BRANCH  14  16
ATOM     16  C   UNL     1       8.453   1.795  23.732  0.00  0.00    +0.103 A 
ATOM     17  N   UNL     1       9.764   1.926  23.266  0.00  0.00    -0.345 N 
ATOM     18  H   UNL     1      10.283   1.189  22.801  0.00  0.00    +0.167 HD
ATOM     19  C   UNL     1      10.194   3.168  23.573  0.00  0.00    +0.087 A 
ATOM     20  S   UNL     1      11.594   4.044  23.403  0.00  0.00    -0.059 S 
ATOM     21  C   UNL     1      10.823   5.374  24.187  0.00  0.00    +0.081 A 
ATOM     22  C   UNL     1       9.508   5.133  24.553  0.00  0.00    +0.037 A 
ATOM     23 CL   UNL     1      11.713   6.822  24.447  0.00  0.00    -0.076 Cl
ATOM     24  C   UNL     1       9.201   3.829  24.177  0.00  0.00    +0.009 A 
ATOM     25  C   UNL     1       8.076   3.022  24.292  0.00  0.00    +0.041 A 
ENDBRANCH  14  16
ENDBRANCH   1  12
BRANCH   4  26
ATOM     26  C   UNL     1       9.098  -5.014  25.019  0.00  0.00    +0.209 C 
BRANCH  26  27
ATOM     27  C   UNL     1       8.457  -4.805  26.410  0.00  0.00    +0.231 C 
ATOM     28  N   UNL     1       7.366  -5.618  26.659  0.00  0.00    -0.312 N 
ATOM     29  H   UNL     1       7.125  -6.348  26.000  0.00  0.00    +0.149 HD
ATOM     30  O   UNL     1       8.841  -3.957  27.214  0.00  0.00    -0.274 OA
BRANCH  28  31
ATOM     31  C   UNL     1       6.723  -5.639  27.966  0.00  0.00    +0.132 C 
BRANCH  31  32
ATOM     32  C   UNL     1       5.386  -6.376  27.934  0.00  0.00    +0.174 C 
BRANCH  32  33
ATOM     33  O   UNL     1       5.538  -7.692  28.468  0.00  0.00    -0.393 OA
ATOM     34  H   UNL     1       5.947  -8.221  27.763  0.00  0.00    +0.209 HD
ENDBRANCH  32  33
ENDBRANCH  31  32
ENDBRANCH  28  31
ENDBRANCH  26  27
ENDBRANCH   4  26
TORSDOF 7
ENDMDL
MODEL 2
REMARK VINA RESULT:      -7.0      2.813      4.322
REMARK  Name = 
REMARK  7 active torsions:
REMARK  status: ('A' for Active; 'I' for Inactive)
REMARK    1  A    between atoms: C_2  and  N_20
REMARK    2  A    between atoms: N_10  and  C_11
REMARK    3  A    between atoms: C_11  and  C_12
REMARK    4  A    between atoms: N_14  and  C_15
REMARK    5  A    between atoms: C_15  and  C_16
REMARK    6  A    between atoms: C_16  and  O_17
REMARK    7  A    between atoms: C_21  and  C_23
REMARK                            x       y       z     vdW  Elec       q    Type
REMARK                         _______ _______ _______ _____ _____    ______ ____
ROOT
ATOM      1  C   UNL     1       7.658  -3.106  25.530  0.00  0.00    +0.164 C 
ATOM      2  C   UNL     1       6.545  -3.323  24.510  0.00  0.00    +0.241 C 
ATOM      3  O   UNL     1       6.190  -2.455  23.711  0.00  0.00    -0.273 OA
ATOM      4  N   UNL     1       6.087  -4.642  24.485  0.00  0.00    -0.261 N 
ATOM      5  C   UNL     1       5.870  -5.321  25.726  0.00  0.00    +0.040 A 
ATOM      6  C   UNL     1       5.106  -6.495  25.818  0.00  0.00    +0.024 A 
ATOM      7  C   UNL     1       4.840  -7.087  27.058  0.00  0.00    +0.002 A 
ATOM      8  C   UNL     1       5.339  -6.525  28.227  0.00  0.00    +0.000 A 
ATOM      9  C   UNL     1       6.103  -5.365  28.158  0.00  0.00    +0.005 A 
ATOM     10  C   UNL     1       6.370  -4.757  26.918  0.00  0.00    -0.024 A 
ATOM     11  C   UNL     1       7.146  -3.464  26.916  0.00  0.00    +0.068 C 
ENDROOT
BRANCH   1  12
ATOM     12  N   UNL     1       8.179  -1.750  25.425  0.00  0.00    -0.299 N 
ATOM     13  H   UNL     1       7.582  -1.008  25.762  0.00  0.00    +0.150 HD
ATOM     14  C   UNL     1       9.217  -1.471  24.580  0.00  0.00    +0.261 C 
ATOM     15  O   UNL     1       9.878  -2.351  24.029  0.00  0.00    -0.269 OA
BRANCH  14  16
ATOM     16  C   UNL     1       9.513  -0.071  24.376  0.00  0.00    +0.103 A 
ATOM     17  N   UNL     1       8.637   0.907  24.858  0.00  0.00    -0.345 N 
ATOM     18  H   UNL     1       7.782   0.709  25.366  0.00  0.00    +0.167 HD
ATOM     19  C   UNL     1       9.122   2.114  24.500  0.00  0.00    +0.087 A 
ATOM     20  S   UNL     1       8.658   3.702  24.654  0.00  0.00    -0.059 S 
ATOM     21  C   UNL     1      10.080   4.170  23.795  0.00  0.00    +0.081 A 
ATOM     22  C   UNL     1      10.891   3.110  23.418  0.00  0.00    +0.037 A 
ATOM     23 CL   UNL     1      10.358   5.837  23.483  0.00  0.00    -0.076 Cl
ATOM     24  C   UNL     1      10.276   1.938  23.849  0.00  0.00    +0.009 A 
ATOM     25  C   UNL     1      10.581   0.586  23.753  0.00  0.00    +0.041 A 
ENDBRANCH  14  16
ENDBRANCH   1  12
BRANCH   4  26
ATOM     26  C   UNL     1       5.555  -5.122  23.217  0.00  0.00    +0.209 C 
BRANCH  26  27
ATOM     27  C   UNL     1       4.011  -5.188  23.238  0.00  0.00    +0.231 C 
ATOM     28  N   UNL     1       3.487  -6.376  22.761  0.00  0.00    -0.312 N 
ATOM     29  H   UNL     1       4.109  -7.144  22.540  0.00  0.00    +0.149 HD
ATOM     30  O   UNL     1       3.296  -4.253  23.597  0.00  0.00    -0.274 OA
BRANCH  28  31
ATOM     31  C   UNL     1       2.058  -6.653  22.829  0.00  0.00    +0.132 C 
BRANCH  31  32
ATOM     32  C   UNL     1       1.708  -7.573  23.996  0.00  0.00    +0.174 C 
BRANCH  32  33
ATOM     33  O   UNL     1       2.705  -8.586  24.139  0.00  0.00    -0.393 OA
ATOM     34  H   UNL     1       3.209  -8.584  23.308  0.00  0.00    +0.209 HD
ENDBRANCH  32  33
ENDBRANCH  31  32
ENDBRANCH  28  31
ENDBRANCH  26  27
ENDBRANCH   4  26
TORSDOF 7
ENDMDL
MODEL 3
REMARK VINA RESULT:      -6.8      4.278      8.793
REMARK  Name = 
REMARK  7 active torsions:
REMARK  status: ('A' for Active; 'I' for Inactive)
REMARK    1  A    between atoms: C_2  and  N_20
REMARK    2  A    between atoms: N_10  and  C_11
REMARK    3  A    between atoms: C_11  and  C_12
REMARK    4  A    between atoms: N_14  and  C_15
REMARK    5  A    between atoms: C_15  and  C_16
REMARK    6  A    between atoms: C_16  and  O_17
REMARK    7  A    between atoms: C_21  and  C_23
REMARK                            x       y       z     vdW  Elec       q    Type
REMARK                         _______ _______ _______ _____ _____    ______ ____
ROOT
ATOM      1  C   UNL     1       9.491   1.849  24.112  0.00  0.00    +0.164 C 
ATOM      2  C   UNL     1       8.294   2.795  24.112  0.00  0.00    +0.241 C 
ATOM      3  O   UNL     1       7.171   2.455  23.739  0.00  0.00    -0.273 OA
ATOM      4  N   UNL     1       8.579   4.023  24.714  0.00  0.00    -0.261 N 
ATOM      5  C   UNL     1       9.821   4.667  24.416  0.00  0.00    +0.040 A 
ATOM      6  C   UNL     1      10.049   6.024  24.689  0.00  0.00    +0.024 A 
ATOM      7  C   UNL     1      11.243   6.647  24.306  0.00  0.00    +0.002 A 
ATOM      8  C   UNL     1      12.234   5.924  23.654  0.00  0.00    +0.000 A 
ATOM      9  C   UNL     1      12.031   4.576  23.378  0.00  0.00    +0.005 A 
ATOM     10  C   UNL     1      10.832   3.943  23.751  0.00  0.00    -0.024 A 
ATOM     11  C   UNL     1      10.644   2.498  23.363  0.00  0.00    +0.068 C 
ENDROOT
BRANCH   1  12
ATOM     12  N   UNL     1       9.103   0.548  23.586  0.00  0.00    -0.299 N 
ATOM     13  H   UNL     1       8.507   0.548  22.771  0.00  0.00    +0.150 HD
ATOM     14  C   UNL     1       9.209  -0.573  24.364  0.00  0.00    +0.261 C 
ATOM     15  O   UNL     1       9.802  -0.577  25.442  0.00  0.00    -0.269 OA
BRANCH  14  16
ATOM     16  C   UNL     1       8.593  -1.771  23.840  0.00  0.00    +0.103 A 
ATOM     17  N   UNL     1       7.561  -1.675  22.902  0.00  0.00    -0.345 N 
ATOM     18  H   UNL     1       7.199  -0.800  22.537  0.00  0.00    +0.167 HD
ATOM     19  C   UNL     1       7.140  -2.924  22.614  0.00  0.00    +0.087 A 
ATOM     20  S   UNL     1       5.971  -3.622  21.663  0.00  0.00    -0.059 S 
ATOM     21  C   UNL     1       6.492  -5.174  22.212  0.00  0.00    +0.081 A 
ATOM     22  C   UNL     1       7.557  -5.134  23.099  0.00  0.00    +0.037 A 
ATOM     23 CL   UNL     1       5.678  -6.577  21.646  0.00  0.00    -0.076 Cl
ATOM     24  C   UNL     1       7.884  -3.797  23.301  0.00  0.00    +0.009 A 
ATOM     25  C   UNL     1       8.824  -3.131  24.078  0.00  0.00    +0.041 A 
ENDBRANCH  14  16
ENDBRANCH   1  12
BRANCH   4  26
ATOM     26  C   UNL     1       7.460   4.712  25.344  0.00  0.00    +0.209 C 
BRANCH  26  27
ATOM     27  C   UNL     1       7.274   4.266  26.812  0.00  0.00    +0.231 C 
ATOM     28  N   UNL     1       6.602   3.066  26.958  0.00  0.00    -0.312 N 
ATOM     29  H   UNL     1       6.378   2.514  26.139  0.00  0.00    +0.149 HD
ATOM     30  O   UNL     1       7.639   4.935  27.777  0.00  0.00    -0.274 OA
BRANCH  28  31
ATOM     31  C   UNL     1       6.452   2.438  28.265  0.00  0.00    +0.132 C 
BRANCH  31  32
ATOM     32  C   UNL     1       6.864   0.968  28.245  0.00  0.00    +0.174 C 
BRANCH  32  33
ATOM     33  O   UNL     1       7.954   0.775  27.343  0.00  0.00    -0.393 OA
ATOM     34  H   UNL     1       7.658   1.129  26.487  0.00  0.00    +0.209 HD
ENDBRANCH  32  33
ENDBRANCH  31  32
ENDBRANCH  28  31
ENDBRANCH  26  27
ENDBRANCH   4  26
TORSDOF 7
ENDMDL
MODEL 4
REMARK VINA RESULT:      -6.8      2.503      4.688
REMARK  Name = 
REMARK  7 active torsions:
REMARK  status: ('A' for Active; 'I' for Inactive)
REMARK    1  A    between atoms: C_2  and  N_20
REMARK    2  A    between atoms: N_10  and  C_11
REMARK    3  A    between atoms: C_11  and  C_12
REMARK    4  A    between atoms: N_14  and  C_15
REMARK    5  A    between atoms: C_15  and  C_16
REMARK    6  A    between atoms: C_16  and  O_17
REMARK    7  A    between atoms: C_21  and  C_23
REMARK                            x       y       z     vdW  Elec       q    Type
REMARK                         _______ _______ _______ _____ _____    ______ ____
ROOT
ATOM      1  C   UNL     1       7.045  -3.024  25.645  0.00  0.00    +0.164 C 
ATOM      2  C   UNL     1       5.570  -2.847  25.297  0.00  0.00    +0.241 C 
ATOM      3  O   UNL     1       5.091  -1.771  24.936  0.00  0.00    -0.273 OA
ATOM      4  N   UNL     1       4.870  -4.055  25.290  0.00  0.00    -0.261 N 
ATOM      5  C   UNL     1       5.103  -4.995  26.343  0.00  0.00    +0.040 A 
ATOM      6  C   UNL     1       4.227  -6.058  26.611  0.00  0.00    +0.024 A 
ATOM      7  C   UNL     1       4.438  -6.908  27.702  0.00  0.00    +0.002 A 
ATOM      8  C   UNL     1       5.531  -6.721  28.539  0.00  0.00    +0.000 A 
ATOM      9  C   UNL     1       6.415  -5.677  28.288  0.00  0.00    +0.005 A 
ATOM     10  C   UNL     1       6.209  -4.811  27.200  0.00  0.00    -0.024 A 
ATOM     11  C   UNL     1       7.164  -3.658  27.021  0.00  0.00    +0.068 C 
ENDROOT
BRANCH   1  12
ATOM     12  N   UNL     1       7.747  -1.755  25.516  0.00  0.00    -0.299 N 
ATOM     13  H   UNL     1       7.375  -0.975  26.040  0.00  0.00    +0.150 HD
ATOM     14  C   UNL     1       8.599  -1.538  24.468  0.00  0.00    +0.261 C 
ATOM     15  O   UNL     1       8.961  -2.438  23.711  0.00  0.00    -0.269 OA
BRANCH  14  16
ATOM     16  C   UNL     1       9.070  -0.181  24.302  0.00  0.00    +0.103 A 
ATOM     17  N   UNL     1       8.291   0.890  24.750  0.00  0.00    -0.345 N 
ATOM     18  H   UNL     1       7.392   0.792  25.207  0.00  0.00    +0.167 HD
ATOM     19  C   UNL     1       8.936   2.034  24.438  0.00  0.00    +0.087 A 
ATOM     20  S   UNL     1       8.657   3.664  24.590  0.00  0.00    -0.059 S 
ATOM     21  C   UNL     1      10.171   3.966  23.817  0.00  0.00    +0.081 A 
ATOM     22  C   UNL     1      10.869   2.820  23.469  0.00  0.00    +0.037 A 
ATOM     23 CL   UNL     1      10.662   5.590  23.546  0.00  0.00    -0.076 Cl
ATOM     24  C   UNL     1      10.095   1.726  23.848  0.00  0.00    +0.009 A 
ATOM     25  C   UNL     1      10.242   0.348  23.749  0.00  0.00    +0.041 A 
ENDBRANCH  14  16
ENDBRANCH   1  12
BRANCH   4  26
ATOM     26  C   UNL     1       3.720  -4.135  24.398  0.00  0.00    +0.209 C 
BRANCH  26  27
ATOM     27  C   UNL     1       4.036  -4.979  23.141  0.00  0.00    +0.231 C 
ATOM     28  N   UNL     1       5.290  -4.750  22.605  0.00  0.00    -0.312 N 
ATOM     29  H   UNL     1       5.946  -4.158  23.100  0.00  0.00    +0.149 HD
ATOM     30  O   UNL     1       3.232  -5.752  22.623  0.00  0.00    -0.274 OA
BRANCH  28  31
ATOM     31  C   UNL     1       5.795  -5.550  21.497  0.00  0.00    +0.132 C 
BRANCH  31  32
ATOM     32  C   UNL     1       7.242  -5.985  21.719  0.00  0.00    +0.174 C 
BRANCH  32  33
ATOM     33  O   UNL     1       7.810  -5.265  22.814  0.00  0.00    -0.393 OA
ATOM     34  H   UNL     1       8.032  -5.931  23.485  0.00  0.00    +0.209 HD
ENDBRANCH  32  33
ENDBRANCH  31  32
ENDBRANCH  28  31
ENDBRANCH  26  27
ENDBRANCH   4  26
TORSDOF 7
ENDMDL
MODEL 5
REMARK VINA RESULT:      -6.5      4.365      9.412
REMARK  Name = 
REMARK  7 active torsions:
REMARK  status: ('A' for Active; 'I' for Inactive)
REMARK    1  A    between atoms: C_2  and  N_20
REMARK    2  A    between atoms: N_10  and  C_11
REMARK    3  A    between atoms: C_11  and  C_12
REMARK    4  A    between atoms: N_14  and  C_15
REMARK    5  A    between atoms: C_15  and  C_16
REMARK    6  A    between atoms: C_16  and  O_17
REMARK    7  A    between atoms: C_21  and  C_23
REMARK                            x       y       z     vdW  Elec       q    Type
REMARK                         _______ _______ _______ _____ _____    ______ ____
ROOT
ATOM      1  C   UNL     1       8.750   1.579  24.521  0.00  0.00    +0.164 C 
ATOM      2  C   UNL     1       7.669   2.592  24.154  0.00  0.00    +0.241 C 
ATOM      3  O   UNL     1       6.544   2.263  23.775  0.00  0.00    -0.273 OA
ATOM      4  N   UNL     1       8.045   3.907  24.434  0.00  0.00    -0.261 N 
ATOM      5  C   UNL     1       9.369   4.333  24.099  0.00  0.00    +0.040 A 
ATOM      6  C   UNL     1       9.727   5.687  24.025  0.00  0.00    +0.024 A 
ATOM      7  C   UNL     1      11.007   6.073  23.610  0.00  0.00    +0.002 A 
ATOM      8  C   UNL     1      11.955   5.116  23.273  0.00  0.00    +0.000 A 
ATOM      9  C   UNL     1      11.623   3.767  23.345  0.00  0.00    +0.005 A 
ATOM     10  C   UNL     1      10.338   3.368  23.752  0.00  0.00    -0.024 A 
ATOM     11  C   UNL     1      10.018   1.894  23.744  0.00  0.00    +0.068 C 
ENDROOT
BRANCH   1  12
ATOM     12  N   UNL     1       8.257   0.224  24.323  0.00  0.00    -0.299 N 
ATOM     13  H   UNL     1       7.508   0.107  23.655  0.00  0.00    +0.150 HD
ATOM     14  C   UNL     1       8.512  -0.748  25.251  0.00  0.00    +0.261 C 
ATOM     15  O   UNL     1       9.310  -0.590  26.174  0.00  0.00    -0.269 OA
BRANCH  14  16
ATOM     16  C   UNL     1       7.797  -1.993  25.081  0.00  0.00    +0.103 A 
ATOM     17  N   UNL     1       6.904  -2.148  24.016  0.00  0.00    -0.345 N 
ATOM     18  H   UNL     1       6.715  -1.436  23.320  0.00  0.00    +0.167 HD
ATOM     19  C   UNL     1       6.347  -3.373  24.114  0.00  0.00    +0.087 A 
ATOM     20  S   UNL     1       5.209  -4.258  23.288  0.00  0.00    -0.059 S 
ATOM     21  C   UNL     1       5.437  -5.547  24.413  0.00  0.00    +0.081 A 
ATOM     22  C   UNL     1       6.387  -5.287  25.389  0.00  0.00    +0.037 A 
ATOM     23 CL   UNL     1       4.504  -6.980  24.244  0.00  0.00    -0.076 Cl
ATOM     24  C   UNL     1       6.875  -4.003  25.168  0.00  0.00    +0.009 A 
ATOM     25  C   UNL     1       7.804  -3.191  25.807  0.00  0.00    +0.041 A 
ENDBRANCH  14  16
ENDBRANCH   1  12
BRANCH   4  26
ATOM     26  C   UNL     1       6.969   4.838  24.746  0.00  0.00    +0.209 C 
BRANCH  26  27
ATOM     27  C   UNL     1       6.087   5.121  23.508  0.00  0.00    +0.231 C 
ATOM     28  N   UNL     1       4.769   4.729  23.650  0.00  0.00    -0.312 N 
ATOM     29  H   UNL     1       4.438   4.399  24.548  0.00  0.00    +0.149 HD
ATOM     30  O   UNL     1       6.519   5.604  22.462  0.00  0.00    -0.274 OA
BRANCH  28  31
ATOM     31  C   UNL     1       3.775   5.035  22.628  0.00  0.00    +0.132 C 
BRANCH  31  32
ATOM     32  C   UNL     1       3.060   3.781  22.131  0.00  0.00    +0.174 C 
BRANCH  32  33
ATOM     33  O   UNL     1       3.659   2.616  22.700  0.00  0.00    -0.393 OA
ATOM     34  H   UNL     1       3.310   1.863  22.194  0.00  0.00    +0.209 HD
ENDBRANCH  32  33
ENDBRANCH  31  32
ENDBRANCH  28  31
ENDBRANCH  26  27
ENDBRANCH   4  26
TORSDOF 7
ENDMDL
MODEL 6
REMARK VINA RESULT:      -6.5      4.534      8.724
REMARK  Name = 
REMARK  7 active torsions:
REMARK  status: ('A' for Active; 'I' for Inactive)
REMARK    1  A    between atoms: C_2  and  N_20
REMARK    2  A    between atoms: N_10  and  C_11
REMARK    3  A    between atoms: C_11  and  C_12
REMARK    4  A    between atoms: N_14  and  C_15
REMARK    5  A    between atoms: C_15  and  C_16
REMARK    6  A    between atoms: C_16  and  O_17
REMARK    7  A    between atoms: C_21  and  C_23
REMARK                            x       y       z     vdW  Elec       q    Type
REMARK                         _______ _______ _______ _____ _____    ______ ____
ROOT
ATOM      1  C   UNL     1       7.443   1.830  25.397  0.00  0.00    +0.164 C 
ATOM      2  C   UNL     1       8.850   1.579  24.863  0.00  0.00    +0.241 C 
ATOM      3  O   UNL     1       9.450   0.516  25.028  0.00  0.00    -0.273 OA
ATOM      4  N   UNL     1       9.312   2.619  24.052  0.00  0.00    -0.261 N 
ATOM      5  C   UNL     1       9.087   3.969  24.466  0.00  0.00    +0.040 A 
ATOM      6  C   UNL     1       9.790   5.052  23.916  0.00  0.00    +0.024 A 
ATOM      7  C   UNL     1       9.610   6.352  24.403  0.00  0.00    +0.002 A 
ATOM      8  C   UNL     1       8.718   6.596  25.440  0.00  0.00    +0.000 A 
ATOM      9  C   UNL     1       8.006   5.538  25.996  0.00  0.00    +0.005 A 
ATOM     10  C   UNL     1       8.186   4.227  25.520  0.00  0.00    -0.024 A 
ATOM     11  C   UNL     1       7.437   3.115  26.210  0.00  0.00    +0.068 C 
ENDROOT
BRANCH   1  12
ATOM     12  N   UNL     1       6.969   0.665  26.130  0.00  0.00    -0.299 N 
ATOM     13  H   UNL     1       7.373   0.508  27.043  0.00  0.00    +0.150 HD
ATOM     14  C   UNL     1       6.327  -0.350  25.476  0.00  0.00    +0.261 C 
ATOM     15  O   UNL     1       5.951  -0.252  24.308  0.00  0.00    -0.269 OA
BRANCH  14  16
ATOM     16  C   UNL     1       6.097  -1.555  26.241  0.00  0.00    +0.103 A 
ATOM     17  N   UNL     1       6.951  -2.652  26.092  0.00  0.00    -0.345 N 
ATOM     18  H   UNL     1       7.755  -2.672  25.474  0.00  0.00    +0.167 HD
ATOM     19  C   UNL     1       6.493  -3.647  26.880  0.00  0.00    +0.087 A 
ATOM     20  S   UNL     1       6.912  -5.219  27.216  0.00  0.00    -0.059 S 
ATOM     21  C   UNL     1       5.570  -5.315  28.297  0.00  0.00    +0.081 A 
ATOM     22  C   UNL     1       4.834  -4.144  28.394  0.00  0.00    +0.037 A 
ATOM     23 CL   UNL     1       5.264  -6.791  29.122  0.00  0.00    -0.076 Cl
ATOM     24  C   UNL     1       5.415  -3.212  27.539  0.00  0.00    +0.009 A 
ATOM     25  C   UNL     1       5.127  -1.898  27.190  0.00  0.00    +0.041 A 
ENDBRANCH  14  16
ENDBRANCH   1  12
BRANCH   4  26
ATOM     26  C   UNL     1      10.269   2.257  23.014  0.00  0.00    +0.209 C 
BRANCH  26  27
ATOM     27  C   UNL     1       9.666   1.242  22.017  0.00  0.00    +0.231 C 
ATOM     28  N   UNL     1      10.093  -0.060  22.207  0.00  0.00    -0.312 N 
ATOM     29  H   UNL     1      10.659  -0.289  23.015  0.00  0.00    +0.149 HD
ATOM     30  O   UNL     1       8.913   1.557  21.098  0.00  0.00    -0.274 OA
BRANCH  28  31
ATOM     31  C   UNL     1       9.528  -1.160  21.436  0.00  0.00    +0.132 C 
BRANCH  31  32
ATOM     32  C   UNL     1       8.441  -1.902  22.212  0.00  0.00    +0.174 C 
BRANCH  32  33
ATOM     33  O   UNL     1       8.663  -1.772  23.616  0.00  0.00    -0.393 OA
ATOM     34  H   UNL     1       7.783  -1.678  24.018  0.00  0.00    +0.209 HD
ENDBRANCH  32  33
ENDBRANCH  31  32
ENDBRANCH  28  31
ENDBRANCH  26  27
ENDBRANCH   4  26
TORSDOF 7
ENDMDL
MODEL 7
REMARK VINA RESULT:      -6.3      3.519      5.543
REMARK  Name = 
REMARK  7 active torsions:
REMARK  status: ('A' for Active; 'I' for Inactive)
REMARK    1  A    between atoms: C_2  and  N_20
REMARK    2  A    between atoms: N_10  and  C_11
REMARK    3  A    between atoms: C_11  and  C_12
REMARK    4  A    between atoms: N_14  and  C_15
REMARK    5  A    between atoms: C_15  and  C_16
REMARK    6  A    between atoms: C_16  and  O_17
REMARK    7  A    between atoms: C_21  and  C_23
REMARK                            x       y       z     vdW  Elec       q    Type
REMARK                         _______ _______ _______ _____ _____    ______ ____
ROOT
ATOM      1  C   UNL     1       5.911  -3.721  26.005  0.00  0.00    +0.164 C 
ATOM      2  C   UNL     1       4.504  -3.215  25.704  0.00  0.00    +0.241 C 
ATOM      3  O   UNL     1       4.272  -2.063  25.331  0.00  0.00    -0.273 OA
ATOM      4  N   UNL     1       3.544  -4.228  25.753  0.00  0.00    -0.261 N 
ATOM      5  C   UNL     1       3.597  -5.178  26.822  0.00  0.00    +0.040 A 
ATOM      6  C   UNL     1       2.511  -6.004  27.148  0.00  0.00    +0.024 A 
ATOM      7  C   UNL     1       2.563  -6.861  28.253  0.00  0.00    +0.002 A 
ATOM      8  C   UNL     1       3.703  -6.916  29.046  0.00  0.00    +0.000 A 
ATOM      9  C   UNL     1       4.793  -6.110  28.738  0.00  0.00    +0.005 A 
ATOM     10  C   UNL     1       4.748  -5.239  27.635  0.00  0.00    -0.024 A 
ATOM     11  C   UNL     1       5.935  -4.341  27.393  0.00  0.00    +0.068 C 
ENDROOT
BRANCH   1  12
ATOM     12  N   UNL     1       6.881  -2.651  25.819  0.00  0.00    -0.299 N 
ATOM     13  H   UNL     1       6.780  -1.840  26.412  0.00  0.00    +0.150 HD
ATOM     14  C   UNL     1       7.620  -2.579  24.670  0.00  0.00    +0.261 C 
ATOM     15  O   UNL     1       7.651  -3.490  23.844  0.00  0.00    -0.269 OA
BRANCH  14  16
ATOM     16  C   UNL     1       8.385  -1.366  24.481  0.00  0.00    +0.103 A 
ATOM     17  N   UNL     1       7.748  -0.197  24.052  0.00  0.00    -0.345 N 
ATOM     18  H   UNL     1       6.754  -0.123  23.864  0.00  0.00    +0.167 HD
ATOM     19  C   UNL     1       8.686   0.763  23.918  0.00  0.00    +0.087 A 
ATOM     20  S   UNL     1       8.736   2.350  23.431  0.00  0.00    -0.059 S 
ATOM     21  C   UNL     1      10.440   2.352  23.710  0.00  0.00    +0.081 A 
ATOM     22  C   UNL     1      10.938   1.148  24.183  0.00  0.00    +0.037 A 
ATOM     23 CL   UNL     1      11.339   3.780  23.385  0.00  0.00    -0.076 Cl
ATOM     24  C   UNL     1       9.871   0.259  24.275  0.00  0.00    +0.009 A 
ATOM     25  C   UNL     1       9.742  -1.071  24.653  0.00  0.00    +0.041 A 
ENDBRANCH  14  16
ENDBRANCH   1  12
BRANCH   4  26
ATOM     26  C   UNL     1       2.373  -4.056  24.903  0.00  0.00    +0.209 C 
BRANCH  26  27
ATOM     27  C   UNL     1       2.376  -5.056  23.724  0.00  0.00    +0.231 C 
ATOM     28  N   UNL     1       1.233  -5.829  23.634  0.00  0.00    -0.312 N 
ATOM     29  H   UNL     1       0.447  -5.634  24.242  0.00  0.00    +0.149 HD
ATOM     30  O   UNL     1       3.327  -5.199  22.958  0.00  0.00    -0.274 OA
BRANCH  28  31
ATOM     31  C   UNL     1       1.018  -6.731  22.510  0.00  0.00    +0.132 C 
BRANCH  31  32
ATOM     32  C   UNL     1       1.329  -8.182  22.873  0.00  0.00    +0.174 C 
BRANCH  32  33
ATOM     33  O   UNL     1       2.605  -8.267  23.509  0.00  0.00    -0.393 OA
ATOM     34  H   UNL     1       2.517  -8.951  24.194  0.00  0.00    +0.209 HD
ENDBRANCH  32  33
ENDBRANCH  31  32
ENDBRANCH  28  31
ENDBRANCH  26  27
ENDBRANCH   4  26
TORSDOF 7
ENDMDL
MODEL 8
REMARK VINA RESULT:      -6.3      2.837      3.999
REMARK  Name = 
REMARK  7 active torsions:
REMARK  status: ('A' for Active; 'I' for Inactive)
REMARK    1  A    between atoms: C_2  and  N_20
REMARK    2  A    between atoms: N_10  and  C_11
REMARK    3  A    between atoms: C_11  and  C_12
REMARK    4  A    between atoms: N_14  and  C_15
REMARK    5  A    between atoms: C_15  and  C_16
REMARK    6  A    between atoms: C_16  and  O_17
REMARK    7  A    between atoms: C_21  and  C_23
REMARK                            x       y       z     vdW  Elec       q    Type
REMARK                         _______ _______ _______ _____ _____    ______ ____
ROOT
ATOM      1  C   UNL     1       5.881  -1.922  25.044  0.00  0.00    +0.164 C 
ATOM      2  C   UNL     1       5.651  -2.481  23.643  0.00  0.00    +0.241 C 
ATOM      3  O   UNL     1       6.041  -1.911  22.622  0.00  0.00    -0.273 OA
ATOM      4  N   UNL     1       5.091  -3.760  23.658  0.00  0.00    -0.261 N 
ATOM      5  C   UNL     1       4.023  -4.035  24.569  0.00  0.00    +0.040 A 
ATOM      6  C   UNL     1       3.185  -5.152  24.430  0.00  0.00    +0.024 A 
ATOM      7  C   UNL     1       2.095  -5.347  25.286  0.00  0.00    +0.002 A 
ATOM      8  C   UNL     1       1.828  -4.438  26.303  0.00  0.00    +0.000 A 
ATOM      9  C   UNL     1       2.650  -3.327  26.463  0.00  0.00    +0.005 A 
ATOM     10  C   UNL     1       3.742  -3.117  25.602  0.00  0.00    -0.024 A 
ATOM     11  C   UNL     1       4.554  -1.859  25.784  0.00  0.00    +0.068 C 
ENDROOT
BRANCH   1  12
ATOM     12  N   UNL     1       6.577  -0.646  24.969  0.00  0.00    -0.299 N 
ATOM     13  H   UNL     1       6.075   0.119  24.539  0.00  0.00    +0.150 HD
ATOM     14  C   UNL     1       7.936  -0.589  25.105  0.00  0.00    +0.261 C 
ATOM     15  O   UNL     1       8.605  -1.550  25.483  0.00  0.00    -0.269 OA
BRANCH  14  16
ATOM     16  C   UNL     1       8.555   0.680  24.792  0.00  0.00    +0.103 A 
ATOM     17  N   UNL     1       7.960   1.872  25.217  0.00  0.00    -0.345 N 
ATOM     18  H   UNL     1       7.102   1.924  25.755  0.00  0.00    +0.167 HD
ATOM     19  C   UNL     1       8.710   2.898  24.761  0.00  0.00    +0.087 A 
ATOM     20  S   UNL     1       8.651   4.557  24.806  0.00  0.00    -0.059 S 
ATOM     21  C   UNL     1      10.111   4.604  23.887  0.00  0.00    +0.081 A 
ATOM     22  C   UNL     1      10.626   3.356  23.574  0.00  0.00    +0.037 A 
ATOM     23 CL   UNL     1      10.773   6.128  23.446  0.00  0.00    -0.076 Cl
ATOM     24  C   UNL     1       9.762   2.401  24.103  0.00  0.00    +0.009 A 
ATOM     25  C   UNL     1       9.727   1.012  24.101  0.00  0.00    +0.041 A 
ENDBRANCH  14  16
ENDBRANCH   1  12
BRANCH   4  26
ATOM     26  C   UNL     1       5.410  -4.623  22.528  0.00  0.00    +0.209 C 
BRANCH  26  27
ATOM     27  C   UNL     1       6.806  -5.268  22.685  0.00  0.00    +0.231 C 
ATOM     28  N   UNL     1       7.418  -5.007  23.898  0.00  0.00    -0.312 N 
ATOM     29  H   UNL     1       6.903  -4.528  24.626  0.00  0.00    +0.149 HD
ATOM     30  O   UNL     1       7.358  -5.917  21.797  0.00  0.00    -0.274 OA
BRANCH  28  31
ATOM     31  C   UNL     1       8.679  -5.642  24.259  0.00  0.00    +0.132 C 
BRANCH  31  32
ATOM     32  C   UNL     1       9.412  -4.873  25.357  0.00  0.00    +0.174 C 
BRANCH  32  33
ATOM     33  O   UNL     1      10.561  -5.605  25.785  0.00  0.00    -0.393 OA
ATOM     34  H   UNL     1      10.222  -6.401  26.226  0.00  0.00    +0.209 HD
ENDBRANCH  32  33
ENDBRANCH  31  32
ENDBRANCH  28  31
ENDBRANCH  26  27
ENDBRANCH   4  26
TORSDOF 7
ENDMDL
MODEL 9
REMARK VINA RESULT:      -6.2      3.158      5.604
REMARK  Name = 
REMARK  7 active torsions:
REMARK  status: ('A' for Active; 'I' for Inactive)
REMARK    1  A    between atoms: C_2  and  N_20
REMARK    2  A    between atoms: N_10  and  C_11
REMARK    3  A    between atoms: C_11  and  C_12
REMARK    4  A    between atoms: N_14  and  C_15
REMARK    5  A    between atoms: C_15  and  C_16
REMARK    6  A    between atoms: C_16  and  O_17
REMARK    7  A    between atoms: C_21  and  C_23
REMARK                            x       y       z     vdW  Elec       q    Type
REMARK                         _______ _______ _______ _____ _____    ______ ____
ROOT
ATOM      1  C   UNL     1       5.395  -3.310  26.714  0.00  0.00    +0.164 C 
ATOM      2  C   UNL     1       4.416  -3.497  25.558  0.00  0.00    +0.241 C 
ATOM      3  O   UNL     1       4.459  -2.821  24.528  0.00  0.00    -0.273 OA
ATOM      4  N   UNL     1       3.579  -4.601  25.733  0.00  0.00    -0.261 N 
ATOM      5  C   UNL     1       2.997  -4.828  27.020  0.00  0.00    +0.040 A 
ATOM      6  C   UNL     1       1.902  -5.685  27.210  0.00  0.00    +0.024 A 
ATOM      7  C   UNL     1       1.301  -5.819  28.467  0.00  0.00    +0.002 A 
ATOM      8  C   UNL     1       1.789  -5.111  29.559  0.00  0.00    +0.000 A 
ATOM      9  C   UNL     1       2.877  -4.261  29.394  0.00  0.00    +0.005 A 
ATOM     10  C   UNL     1       3.483  -4.111  28.134  0.00  0.00    -0.024 A 
ATOM     11  C   UNL     1       4.615  -3.123  28.005  0.00  0.00    +0.068 C 
ENDROOT
BRANCH   1  12
ATOM     12  N   UNL     1       6.319  -2.225  26.419  0.00  0.00    -0.299 N 
ATOM     13  H   UNL     1       5.917  -1.305  26.306  0.00  0.00    +0.150 HD
ATOM     14  C   UNL     1       7.573  -2.493  25.943  0.00  0.00    +0.261 C 
ATOM     15  O   UNL     1       8.045  -3.630  25.925  0.00  0.00    -0.269 OA
BRANCH  14  16
ATOM     16  C   UNL     1       8.331  -1.357  25.470  0.00  0.00    +0.103 A 
ATOM     17  N   UNL     1       7.768  -0.077  25.503  0.00  0.00    -0.345 N 
ATOM     18  H   UNL     1       6.839   0.130  25.852  0.00  0.00    +0.167 HD
ATOM     19  C   UNL     1       8.660   0.785  24.972  0.00  0.00    +0.087 A 
ATOM     20  S   UNL     1       8.723   2.409  24.632  0.00  0.00    -0.059 S 
ATOM     21  C   UNL     1      10.315   2.187  24.003  0.00  0.00    +0.081 A 
ATOM     22  C   UNL     1      10.777   0.881  24.077  0.00  0.00    +0.037 A 
ATOM     23 CL   UNL     1      11.156   3.539  23.359  0.00  0.00    -0.076 Cl
ATOM     24  C   UNL     1       9.765   0.110  24.641  0.00  0.00    +0.009 A 
ATOM     25  C   UNL     1       9.624  -1.238  24.945  0.00  0.00    +0.041 A 
ENDBRANCH  14  16
ENDBRANCH   1  12
BRANCH   4  26
ATOM     26  C   UNL     1       3.100  -5.252  24.521  0.00  0.00    +0.209 C 
BRANCH  26  27
ATOM     27  C   UNL     1       4.204  -6.114  23.867  0.00  0.00    +0.231 C 
ATOM     28  N   UNL     1       4.799  -5.529  22.763  0.00  0.00    -0.312 N 
ATOM     29  H   UNL     1       4.574  -4.572  22.521  0.00  0.00    +0.149 HD
ATOM     30  O   UNL     1       4.501  -7.244  24.251  0.00  0.00    -0.274 OA
BRANCH  28  31
ATOM     31  C   UNL     1       5.942  -6.149  22.105  0.00  0.00    +0.132 C 
BRANCH  31  32
ATOM     32  C   UNL     1       7.184  -5.263  22.160  0.00  0.00    +0.174 C 
BRANCH  32  33
ATOM     33  O   UNL     1       7.674  -5.186  23.499  0.00  0.00    -0.393 OA
ATOM     34  H   UNL     1       7.983  -6.080  23.722  0.00  0.00    +0.209 HD
ENDBRANCH  32  33
ENDBRANCH  31  32
ENDBRANCH  28  31
ENDBRANCH  26  27
ENDBRANCH   4  26
TORSDOF 7
ENDMDL
