MODEL 1
REMARK VINA RESULT:      -5.5      0.000      0.000
REMARK  Name = 
REMARK  5 active torsions:
REMARK  status: ('A' for Active; 'I' for Inactive)
REMARK    1  A    between atoms: C_1  and  C_2
REMARK    2  A    between atoms: C_2  and  C_3
REMARK    3  A    between atoms: C_6  and  N_7
REMARK    4  A    between atoms: N_7  and  S_8
REMARK    5  A    between atoms: S_8  and  O_9
REMARK                            x       y       z     vdW  Elec       q    Type
REMARK                         _______ _______ _______ _____ _____    ______ ____
ROOT
ATOM      1  C   UNL     1       9.125  -0.734  22.353  0.00  0.00    -0.048 A 
ATOM      2  C   UNL     1      10.217  -1.554  22.666  0.00  0.00    +0.005 A 
ATOM      3  C   UNL     1      10.129  -2.488  23.701  0.00  0.00    +0.025 A 
ATOM      4  C   UNL     1       8.948  -2.596  24.433  0.00  0.00    +0.050 A 
ATOM      5  C   UNL     1       7.831  -1.839  24.083  0.00  0.00    +0.025 A 
ATOM      6  C   UNL     1       7.922  -0.903  23.052  0.00  0.00    +0.005 A 
ENDROOT
BRANCH   1   8
ATOM      7  C   UNL     1       9.912   1.605  22.001  0.00  0.00    +0.009 C 
ATOM      8  C   UNL     1       9.271   0.385  21.351  0.00  0.00    +0.032 C 
ENDBRANCH   1   8
BRANCH   4   9
ATOM      9  N   UNL     1       8.856  -3.476  25.551  0.00  0.00    -0.197 N 
ATOM     10  H   UNL     1       9.540  -3.286  26.282  0.00  0.00    +0.176 HD
BRANCH   9  11
ATOM     11  S   UNL     1       8.848  -5.127  25.241  0.00  0.00    +0.164 S 
ATOM     12  O   UNL     1       8.475  -5.287  23.856  0.00  0.00    -0.127 OA
ATOM     13  O   UNL     1       8.121  -5.783  26.300  0.00  0.00    -0.127 OA
BRANCH  11  14
ATOM     14  O   UNL     1      10.384  -5.557  25.411  0.00  0.00    -0.238 OA
ATOM     15  H   UNL     1      10.738  -5.732  24.516  0.00  0.00    +0.246 HD
ENDBRANCH  11  14
ENDBRANCH   9  11
ENDBRANCH   4   9
TORSDOF 4
ENDMDL
MODEL 2
REMARK VINA RESULT:      -5.1      2.426      3.480
REMARK  Name = 
REMARK  5 active torsions:
REMARK  status: ('A' for Active; 'I' for Inactive)
REMARK    1  A    between atoms: C_1  and  C_2
REMARK    2  A    between atoms: C_2  and  C_3
REMARK    3  A    between atoms: C_6  and  N_7
REMARK    4  A    between atoms: N_7  and  S_8
REMARK    5  A    between atoms: S_8  and  O_9
REMARK                            x       y       z     vdW  Elec       q    Type
REMARK                         _______ _______ _______ _____ _____    ______ ____
ROOT
ATOM      1  C   UNL     1      10.358   2.213  23.208  0.00  0.00    -0.048 A 
ATOM      2  C   UNL     1      10.767   1.222  24.112  0.00  0.00    +0.005 A 
ATOM      3  C   UNL     1      10.576  -0.129  23.818  0.00  0.00    +0.025 A 
ATOM      4  C   UNL     1       9.964  -0.493  22.619  0.00  0.00    +0.050 A 
ATOM      5  C   UNL     1       9.623   0.478  21.680  0.00  0.00    +0.025 A 
ATOM      6  C   UNL     1       9.810   1.828  21.978  0.00  0.00    +0.005 A 
ENDROOT
BRANCH   1   8
ATOM      7  C   UNL     1      11.793   4.248  23.308  0.00  0.00    +0.009 C 
ATOM      8  C   UNL     1      10.413   3.670  23.595  0.00  0.00    +0.032 C 
ENDBRANCH   1   8
BRANCH   4   9
ATOM      9  N   UNL     1       9.676  -1.859  22.330  0.00  0.00    -0.197 N 
ATOM     10  H   UNL     1       9.316  -2.014  21.389  0.00  0.00    +0.176 HD
BRANCH   9  11
ATOM     11  S   UNL     1       8.707  -2.696  23.417  0.00  0.00    +0.164 S 
ATOM     12  O   UNL     1       7.823  -1.726  24.017  0.00  0.00    -0.127 OA
ATOM     13  O   UNL     1       9.555  -3.544  24.220  0.00  0.00    -0.127 OA
BRANCH  11  14
ATOM     14  O   UNL     1       7.840  -3.673  22.486  0.00  0.00    -0.238 OA
ATOM     15  H   UNL     1       7.213  -4.148  23.068  0.00  0.00    +0.246 HD
ENDBRANCH  11  14
ENDBRANCH   9  11
ENDBRANCH   4   9
TORSDOF 4
ENDMDL
MODEL 3
REMARK VINA RESULT:      -5.1      4.537      5.619
REMARK  Name = 
REMARK  5 active torsions:
REMARK  status: ('A' for Active; 'I' for Inactive)
REMARK    1  A    between atoms: C_1  and  C_2
REMARK    2  A    between atoms: C_2  and  C_3
REMARK    3  A    between atoms: C_6  and  N_7
REMARK    4  A    between atoms: N_7  and  S_8
REMARK    5  A    between atoms: S_8  and  O_9
REMARK                            x       y       z     vdW  Elec       q    Type
REMARK                         _______ _______ _______ _____ _____    ______ ____
ROOT
ATOM      1  C   UNL     1       8.526  -3.588  23.804  0.00  0.00    -0.048 A 
ATOM      2  C   UNL     1       9.753  -2.968  24.079  0.00  0.00    +0.005 A 
ATOM      3  C   UNL     1      10.151  -1.836  23.364  0.00  0.00    +0.025 A 
ATOM      4  C   UNL     1       9.325  -1.328  22.363  0.00  0.00    +0.050 A 
ATOM      5  C   UNL     1       8.071  -1.890  22.132  0.00  0.00    +0.025 A 
ATOM      6  C   UNL     1       7.676  -3.024  22.844  0.00  0.00    +0.005 A 
ENDROOT
BRANCH   1   8
ATOM      7  C   UNL     1       9.330  -5.408  25.306  0.00  0.00    +0.009 C 
ATOM      8  C   UNL     1       8.171  -4.901  24.457  0.00  0.00    +0.032 C 
ENDBRANCH   1   8
BRANCH   4   9
ATOM      9  N   UNL     1       9.743  -0.229  21.556  0.00  0.00    -0.197 N 
ATOM     10  H   UNL     1      10.750  -0.188  21.405  0.00  0.00    +0.176 HD
BRANCH   9  11
ATOM     11  S   UNL     1       9.203   1.301  21.989  0.00  0.00    +0.164 S 
ATOM     12  O   UNL     1       9.149   1.330  23.431  0.00  0.00    -0.127 OA
ATOM     13  O   UNL     1       8.049   1.620  21.183  0.00  0.00    -0.127 OA
BRANCH  11  14
ATOM     14  O   UNL     1      10.380   2.276  21.501  0.00  0.00    -0.238 OA
ATOM     15  H   UNL     1      10.372   3.058  22.089  0.00  0.00    +0.246 HD
ENDBRANCH  11  14
ENDBRANCH   9  11
ENDBRANCH   4   9
TORSDOF 4
ENDMDL
MODEL 4
REMARK VINA RESULT:      -5.0      6.191      6.937
REMARK  Name = 
REMARK  5 active torsions:
REMARK  status: ('A' for Active; 'I' for Inactive)
REMARK    1  A    between atoms: C_1  and  C_2
REMARK    2  A    between atoms: C_2  and  C_3
REMARK    3  A    between atoms: C_6  and  N_7
REMARK    4  A    between atoms: N_7  and  S_8
REMARK    5  A    between atoms: S_8  and  O_9
REMARK                            x       y       z     vdW  Elec       q    Type
REMARK                         _______ _______ _______ _____ _____    ______ ____
ROOT
ATOM      1  C   UNL     1      10.155  -0.397  23.034  0.00  0.00    -0.048 A 
ATOM      2  C   UNL     1      10.374   0.258  24.254  0.00  0.00    +0.005 A 
ATOM      3  C   UNL     1      10.375   1.653  24.320  0.00  0.00    +0.025 A 
ATOM      4  C   UNL     1      10.168   2.398  23.160  0.00  0.00    +0.050 A 
ATOM      5  C   UNL     1       9.874   1.759  21.956  0.00  0.00    +0.025 A 
ATOM      6  C   UNL     1       9.878   0.365  21.891  0.00  0.00    +0.005 A 
ENDROOT
BRANCH   1   8
ATOM      7  C   UNL     1       9.570  -2.591  24.060  0.00  0.00    +0.009 C 
ATOM      8  C   UNL     1      10.317  -1.893  22.930  0.00  0.00    +0.032 C 
ENDBRANCH   1   8
BRANCH   4   9
ATOM      9  N   UNL     1      10.251   3.821  23.178  0.00  0.00    -0.197 N 
ATOM     10  H   UNL     1      11.073   4.179  23.663  0.00  0.00    +0.176 HD
BRANCH   9  11
ATOM     11  S   UNL     1       8.903   4.671  23.707  0.00  0.00    +0.164 S 
ATOM     12  O   UNL     1       9.195   5.121  25.046  0.00  0.00    -0.127 OA
ATOM     13  O   UNL     1       7.728   3.887  23.412  0.00  0.00    -0.127 OA
BRANCH  11  14
ATOM     14  O   UNL     1       8.850   5.948  22.738  0.00  0.00    -0.238 OA
ATOM     15  H   UNL     1       8.213   5.746  22.024  0.00  0.00    +0.246 HD
ENDBRANCH  11  14
ENDBRANCH   9  11
ENDBRANCH   4   9
TORSDOF 4
ENDMDL
MODEL 5
REMARK VINA RESULT:      -5.0      1.577      2.052
REMARK  Name = 
REMARK  5 active torsions:
REMARK  status: ('A' for Active; 'I' for Inactive)
REMARK    1  A    between atoms: C_1  and  C_2
REMARK    2  A    between atoms: C_2  and  C_3
REMARK    3  A    between atoms: C_6  and  N_7
REMARK    4  A    between atoms: N_7  and  S_8
REMARK    5  A    between atoms: S_8  and  O_9
REMARK                            x       y       z     vdW  Elec       q    Type
REMARK                         _______ _______ _______ _____ _____    ______ ____
ROOT
ATOM      1  C   UNL     1       9.094  -1.529  22.360  0.00  0.00    -0.048 A 
ATOM      2  C   UNL     1       7.911  -2.276  22.275  0.00  0.00    +0.005 A 
ATOM      3  C   UNL     1       7.711  -3.383  23.102  0.00  0.00    +0.025 A 
ATOM      4  C   UNL     1       8.701  -3.752  24.011  0.00  0.00    +0.050 A 
ATOM      5  C   UNL     1       9.847  -2.974  24.158  0.00  0.00    +0.025 A 
ATOM      6  C   UNL     1      10.048  -1.870  23.327  0.00  0.00    +0.005 A 
ENDROOT
BRANCH   1   8
ATOM      7  C   UNL     1       9.865   0.823  22.066  0.00  0.00    +0.009 C 
ATOM      8  C   UNL     1       9.383  -0.438  21.359  0.00  0.00    +0.032 C 
ENDBRANCH   1   8
BRANCH   4   9
ATOM      9  N   UNL     1       8.563  -4.928  24.806  0.00  0.00    -0.197 N 
ATOM     10  H   UNL     1       8.424  -5.779  24.263  0.00  0.00    +0.176 HD
BRANCH   9  11
ATOM     11  S   UNL     1       7.437  -4.897  26.051  0.00  0.00    +0.164 S 
ATOM     12  O   UNL     1       6.221  -5.467  25.524  0.00  0.00    -0.127 OA
ATOM     13  O   UNL     1       7.458  -3.584  26.649  0.00  0.00    -0.127 OA
BRANCH  11  14
ATOM     14  O   UNL     1       8.043  -5.903  27.143  0.00  0.00    -0.238 OA
ATOM     15  H   UNL     1       8.123  -5.407  27.982  0.00  0.00    +0.246 HD
ENDBRANCH  11  14
ENDBRANCH   9  11
ENDBRANCH   4   9
TORSDOF 4
ENDMDL
MODEL 6
REMARK VINA RESULT:      -4.9      5.550      6.436
REMARK  Name = 
REMARK  5 active torsions:
REMARK  status: ('A' for Active; 'I' for Inactive)
REMARK    1  A    between atoms: C_1  and  C_2
REMARK    2  A    between atoms: C_2  and  C_3
REMARK    3  A    between atoms: C_6  and  N_7
REMARK    4  A    between atoms: N_7  and  S_8
REMARK    5  A    between atoms: S_8  and  O_9
REMARK                            x       y       z     vdW  Elec       q    Type
REMARK                         _______ _______ _______ _____ _____    ______ ____
ROOT
ATOM      1  C   UNL     1       9.971  -1.134  23.191  0.00  0.00    -0.048 A 
ATOM      2  C   UNL     1       9.446  -0.927  21.908  0.00  0.00    +0.005 A 
ATOM      3  C   UNL     1       9.171   0.365  21.454  0.00  0.00    +0.025 A 
ATOM      4  C   UNL     1       9.410   1.454  22.290  0.00  0.00    +0.050 A 
ATOM      5  C   UNL     1      10.002   1.267  23.538  0.00  0.00    +0.025 A 
ATOM      6  C   UNL     1      10.273  -0.025  23.992  0.00  0.00    +0.005 A 
ENDROOT
BRANCH   1   8
ATOM      7  C   UNL     1       8.757  -3.220  23.810  0.00  0.00    +0.009 C 
ATOM      8  C   UNL     1      10.114  -2.531  23.742  0.00  0.00    +0.032 C 
ENDBRANCH   1   8
BRANCH   4   9
ATOM      9  N   UNL     1       9.057   2.776  21.890  0.00  0.00    -0.197 N 
ATOM     10  H   UNL     1       9.803   3.459  22.017  0.00  0.00    +0.176 HD
BRANCH   9  11
ATOM     11  S   UNL     1       7.632   3.419  22.503  0.00  0.00    +0.164 S 
ATOM     12  O   UNL     1       7.903   3.799  23.868  0.00  0.00    -0.127 OA
ATOM     13  O   UNL     1       6.550   2.526  22.168  0.00  0.00    -0.127 OA
BRANCH  11  14
ATOM     14  O   UNL     1       7.407   4.750  21.636  0.00  0.00    -0.238 OA
ATOM     15  H   UNL     1       6.684   4.565  21.003  0.00  0.00    +0.246 HD
ENDBRANCH  11  14
ENDBRANCH   9  11
ENDBRANCH   4   9
TORSDOF 4
ENDMDL
MODEL 7
REMARK VINA RESULT:      -4.8      1.590      2.307
REMARK  Name = 
REMARK  5 active torsions:
REMARK  status: ('A' for Active; 'I' for Inactive)
REMARK    1  A    between atoms: C_1  and  C_2
REMARK    2  A    between atoms: C_2  and  C_3
REMARK    3  A    between atoms: C_6  and  N_7
REMARK    4  A    between atoms: N_7  and  S_8
REMARK    5  A    between atoms: S_8  and  O_9
REMARK                            x       y       z     vdW  Elec       q    Type
REMARK                         _______ _______ _______ _____ _____    ______ ____
ROOT
ATOM      1  C   UNL     1       9.932   0.816  22.727  0.00  0.00    -0.048 A 
ATOM      2  C   UNL     1       9.880  -0.248  21.816  0.00  0.00    +0.005 A 
ATOM      3  C   UNL     1       9.858  -1.569  22.269  0.00  0.00    +0.025 A 
ATOM      4  C   UNL     1       9.900  -1.829  23.638  0.00  0.00    +0.050 A 
ATOM      5  C   UNL     1       9.875  -0.780  24.554  0.00  0.00    +0.025 A 
ATOM      6  C   UNL     1       9.902   0.540  24.100  0.00  0.00    +0.005 A 
ENDROOT
BRANCH   1   8
ATOM      7  C   UNL     1      10.711   3.102  23.343  0.00  0.00    +0.009 C 
ATOM      8  C   UNL     1      10.122   2.231  22.240  0.00  0.00    +0.032 C 
ENDBRANCH   1   8
BRANCH   4   9
ATOM      9  N   UNL     1       9.968  -3.166  24.128  0.00  0.00    -0.197 N 
ATOM     10  H   UNL     1      10.519  -3.792  23.542  0.00  0.00    +0.176 HD
BRANCH   9  11
ATOM     11  S   UNL     1       8.521  -3.927  24.512  0.00  0.00    +0.164 S 
ATOM     12  O   UNL     1       8.327  -3.756  25.931  0.00  0.00    -0.127 OA
ATOM     13  O   UNL     1       8.521  -5.235  23.901  0.00  0.00    -0.127 OA
BRANCH  11  14
ATOM     14  O   UNL     1       7.414  -3.064  23.736  0.00  0.00    -0.238 OA
ATOM     15  H   UNL     1       6.721  -3.685  23.434  0.00  0.00    +0.246 HD
ENDBRANCH  11  14
ENDBRANCH   9  11
ENDBRANCH   4   9
TORSDOF 4
ENDMDL
MODEL 8
REMARK VINA RESULT:      -4.7      6.010      6.695
REMARK  Name = 
REMARK  5 active torsions:
REMARK  status: ('A' for Active; 'I' for Inactive)
REMARK    1  A    between atoms: C_1  and  C_2
REMARK    2  A    between atoms: C_2  and  C_3
REMARK    3  A    between atoms: C_6  and  N_7
REMARK    4  A    between atoms: N_7  and  S_8
REMARK    5  A    between atoms: S_8  and  O_9
REMARK                            x       y       z     vdW  Elec       q    Type
REMARK                         _______ _______ _______ _____ _____    ______ ____
ROOT
ATOM      1  C   UNL     1      10.120  -0.416  22.874  0.00  0.00    -0.048 A 
ATOM      2  C   UNL     1       9.756   0.428  21.815  0.00  0.00    +0.005 A 
ATOM      3  C   UNL     1       9.868   1.814  21.942  0.00  0.00    +0.025 A 
ATOM      4  C   UNL     1      10.335   2.361  23.136  0.00  0.00    +0.050 A 
ATOM      5  C   UNL     1      10.771   1.532  24.167  0.00  0.00    +0.025 A 
ATOM      6  C   UNL     1      10.655   0.146  24.041  0.00  0.00    +0.005 A 
ENDROOT
BRANCH   1   8
ATOM      7  C   UNL     1       8.431  -2.155  22.298  0.00  0.00    +0.009 C 
ATOM      8  C   UNL     1       9.846  -1.897  22.800  0.00  0.00    +0.032 C 
ENDBRANCH   1   8
BRANCH   4   9
ATOM      9  N   UNL     1      10.377   3.773  23.328  0.00  0.00    -0.197 N 
ATOM     10  H   UNL     1      11.202   4.097  23.831  0.00  0.00    +0.176 HD
BRANCH   9  11
ATOM     11  S   UNL     1       9.021   4.507  23.994  0.00  0.00    +0.164 S 
ATOM     12  O   UNL     1       8.041   4.605  22.940  0.00  0.00    -0.127 OA
ATOM     13  O   UNL     1       9.452   5.668  24.735  0.00  0.00    -0.127 OA
BRANCH  11  14
ATOM     14  O   UNL     1       8.503   3.445  25.079  0.00  0.00    -0.238 OA
ATOM     15  H   UNL     1       7.539   3.577  25.177  0.00  0.00    +0.246 HD
ENDBRANCH  11  14
ENDBRANCH   9  11
ENDBRANCH   4   9
TORSDOF 4
ENDMDL
MODEL 9
REMARK VINA RESULT:      -4.7      2.713      3.417
REMARK  Name = 
REMARK  5 active torsions:
REMARK  status: ('A' for Active; 'I' for Inactive)
REMARK    1  A    between atoms: C_1  and  C_2
REMARK    2  A    between atoms: C_2  and  C_3
REMARK    3  A    between atoms: C_6  and  N_7
REMARK    4  A    between atoms: N_7  and  S_8
REMARK    5  A    between atoms: S_8  and  O_9
REMARK                            x       y       z     vdW  Elec       q    Type
REMARK                         _______ _______ _______ _____ _____    ______ ____
ROOT
ATOM      1  C   UNL     1      10.041  -0.116  23.782  0.00  0.00    -0.048 A 
ATOM      2  C   UNL     1       9.783  -0.237  22.409  0.00  0.00    +0.005 A 
ATOM      3  C   UNL     1       9.035  -1.310  21.921  0.00  0.00    +0.025 A 
ATOM      4  C   UNL     1       8.552  -2.273  22.805  0.00  0.00    +0.050 A 
ATOM      5  C   UNL     1       8.738  -2.123  24.178  0.00  0.00    +0.025 A 
ATOM      6  C   UNL     1       9.489  -1.053  24.665  0.00  0.00    +0.005 A 
ENDROOT
BRANCH   1   8
ATOM      7  C   UNL     1      10.660   2.295  23.662  0.00  0.00    +0.009 C 
ATOM      8  C   UNL     1      10.984   0.946  24.292  0.00  0.00    +0.032 C 
ENDBRANCH   1   8
BRANCH   4   9
ATOM      9  N   UNL     1       7.862  -3.425  22.328  0.00  0.00    -0.197 N 
ATOM     10  H   UNL     1       8.129  -3.704  21.385  0.00  0.00    +0.176 HD
BRANCH   9  11
ATOM     11  S   UNL     1       6.186  -3.427  22.434  0.00  0.00    +0.164 S 
ATOM     12  O   UNL     1       5.848  -4.127  23.649  0.00  0.00    -0.127 OA
ATOM     13  O   UNL     1       5.652  -3.830  21.156  0.00  0.00    -0.127 OA
BRANCH  11  14
ATOM     14  O   UNL     1       5.811  -1.878  22.613  0.00  0.00    -0.238 OA
ATOM     15  H   UNL     1       6.387  -1.367  22.009  0.00  0.00    +0.246 HD
ENDBRANCH  11  14
ENDBRANCH   9  11
ENDBRANCH   4   9
TORSDOF 4
ENDMDL
