MODEL 1
REMARK VINA RESULT:      -6.8      0.000      0.000
REMARK  Name = 
REMARK  5 active torsions:
REMARK  status: ('A' for Active; 'I' for Inactive)
REMARK    1  A    between atoms: N_1  and  CA_2
REMARK    2  A    between atoms: CA_2  and  C_4
REMARK    3  A    between atoms: CA_2  and  C_19
REMARK    4  A    between atoms: C_4  and  C_5
REMARK    5  A    between atoms: C_19  and  O_20
REMARK                            x       y       z     vdW  Elec       q    Type
REMARK                         _______ _______ _______ _____ _____    ______ ____
ROOT
ATOM      1  C   UNL     1       7.583  -4.665  23.452  0.00  0.00    +0.044 A 
ATOM      2  N   UNL     1       8.055  -3.509  22.923  0.00  0.00    -0.249 NA
ATOM      3  C   UNL     1       8.421  -2.480  23.735  0.00  0.00    +0.097 A 
ATOM      4  C   UNL     1       8.308  -2.622  25.137  0.00  0.00    +0.003 A 
ATOM      5  C   UNL     1       8.690  -1.588  25.997  0.00  0.00    +0.011 A 
ATOM      6  C   UNL     1       9.193  -0.403  25.478  0.00  0.00    +0.011 A 
ATOM      7  C   UNL     1       9.305  -0.241  24.095  0.00  0.00    +0.003 A 
ATOM      8  C   UNL     1       9.812   0.956  23.572  0.00  0.00    +0.011 A 
ATOM      9  C   UNL     1       9.918   1.124  22.199  0.00  0.00    +0.020 A 
ATOM     10  C   UNL     1       9.510   0.082  21.393  0.00  0.00    +0.111 A 
ATOM     11  N   UNL     1       9.022  -1.086  21.864  0.00  0.00    -0.253 NA
ATOM     12  C   UNL     1       7.805  -3.818  25.662  0.00  0.00    +0.012 A 
ATOM     13  C   UNL     1       8.915  -1.272  23.205  0.00  0.00    +0.097 A 
ATOM     14  C   UNL     1       7.438  -4.853  24.813  0.00  0.00    +0.024 A 
ENDROOT
BRANCH   1  15
ATOM     15  C   UNL     1       7.215  -5.752  22.470  0.00  0.00    +0.085 C 
BRANCH  15  16
ATOM     16  CA  UNL     1       5.889  -5.487  21.743  0.00  0.00    +0.166 C 
BRANCH  16  17
ATOM     17  N   UNL     1       5.781  -4.114  21.148  0.00  0.00    -0.318 NA
ATOM     18  H1  UNL     1       5.220  -4.216  20.277  0.00  0.00    +0.119 HD
ATOM     19  H2  UNL     1       5.139  -3.575  21.736  0.00  0.00    +0.119 HD
ENDBRANCH  16  17
BRANCH  16  20
ATOM     20  C   UNL     1       4.709  -5.712  22.699  0.00  0.00    +0.322 C 
ATOM     21  OXT UNL     1       3.789  -4.930  22.873  0.00  0.00    -0.249 OA
BRANCH  20  22
ATOM     22  O   UNL     1       4.821  -6.898  23.354  0.00  0.00    -0.480 OA
ATOM     23  H   UNL     1       4.552  -7.587  22.689  0.00  0.00    +0.295 HD
ENDBRANCH  20  22
ENDBRANCH  16  20
ENDBRANCH  15  16
ENDBRANCH   1  15
TORSDOF 5
ENDMDL
MODEL 2
REMARK VINA RESULT:      -6.3      3.591      6.094
REMARK  Name = 
REMARK  5 active torsions:
REMARK  status: ('A' for Active; 'I' for Inactive)
REMARK    1  A    between atoms: N_1  and  CA_2
REMARK    2  A    between atoms: CA_2  and  C_4
REMARK    3  A    between atoms: CA_2  and  C_19
REMARK    4  A    between atoms: C_4  and  C_5
REMARK    5  A    between atoms: C_19  and  O_20
REMARK                            x       y       z     vdW  Elec       q    Type
REMARK                         _______ _______ _______ _____ _____    ______ ____
ROOT
ATOM      1  C   UNL     1       7.843  -0.069  23.603  0.00  0.00    +0.044 A 
ATOM      2  N   UNL     1       7.390  -1.179  22.969  0.00  0.00    -0.249 NA
ATOM      3  C   UNL     1       7.763  -2.416  23.394  0.00  0.00    +0.097 A 
ATOM      4  C   UNL     1       8.629  -2.540  24.506  0.00  0.00    +0.003 A 
ATOM      5  C   UNL     1       9.018  -3.798  24.976  0.00  0.00    +0.011 A 
ATOM      6  C   UNL     1       8.552  -4.947  24.353  0.00  0.00    +0.011 A 
ATOM      7  C   UNL     1       7.702  -4.845  23.249  0.00  0.00    +0.003 A 
ATOM      8  C   UNL     1       7.232  -6.005  22.620  0.00  0.00    +0.011 A 
ATOM      9  C   UNL     1       6.394  -5.907  21.519  0.00  0.00    +0.020 A 
ATOM     10  C   UNL     1       6.056  -4.645  21.082  0.00  0.00    +0.111 A 
ATOM     11  N   UNL     1       6.486  -3.506  21.668  0.00  0.00    -0.253 NA
ATOM     12  C   UNL     1       9.097  -1.382  25.137  0.00  0.00    +0.012 A 
ATOM     13  C   UNL     1       7.303  -3.580  22.751  0.00  0.00    +0.097 A 
ATOM     14  C   UNL     1       8.701  -0.131  24.684  0.00  0.00    +0.024 A 
ENDROOT
BRANCH   1  15
ATOM     15  C   UNL     1       7.362   1.257  23.063  0.00  0.00    +0.085 C 
BRANCH  15  16
ATOM     16  CA  UNL     1       8.257   1.817  21.949  0.00  0.00    +0.166 C 
BRANCH  16  17
ATOM     17  N   UNL     1       8.832   0.771  21.041  0.00  0.00    -0.318 NA
ATOM     18  H1  UNL     1       9.126  -0.018  21.653  0.00  0.00    +0.119 HD
ATOM     19  H2  UNL     1       8.053   0.347  20.529  0.00  0.00    +0.119 HD
ENDBRANCH  16  17
BRANCH  16  20
ATOM     20  C   UNL     1       9.404   2.637  22.557  0.00  0.00    +0.322 C 
ATOM     21  OXT UNL     1       9.331   3.290  23.586  0.00  0.00    -0.249 OA
BRANCH  20  22
ATOM     22  O   UNL     1      10.526   2.565  21.793  0.00  0.00    -0.480 OA
ATOM     23  H   UNL     1      11.280   2.708  22.425  0.00  0.00    +0.295 HD
ENDBRANCH  20  22
ENDBRANCH  16  20
ENDBRANCH  15  16
ENDBRANCH   1  15
TORSDOF 5
ENDMDL
MODEL 3
REMARK VINA RESULT:      -6.3      3.147      5.858
REMARK  Name = 
REMARK  5 active torsions:
REMARK  status: ('A' for Active; 'I' for Inactive)
REMARK    1  A    between atoms: N_1  and  CA_2
REMARK    2  A    between atoms: CA_2  and  C_4
REMARK    3  A    between atoms: CA_2  and  C_19
REMARK    4  A    between atoms: C_4  and  C_5
REMARK    5  A    between atoms: C_19  and  O_20
REMARK                            x       y       z     vdW  Elec       q    Type
REMARK                         _______ _______ _______ _____ _____    ______ ____
ROOT
ATOM      1  C   UNL     1       8.880  -1.025  24.388  0.00  0.00    +0.044 A 
ATOM      2  N   UNL     1       8.251  -1.967  23.642  0.00  0.00    -0.249 NA
ATOM      3  C   UNL     1       7.639  -3.024  24.242  0.00  0.00    +0.097 A 
ATOM      4  C   UNL     1       7.660  -3.135  25.652  0.00  0.00    +0.003 A 
ATOM      5  C   UNL     1       7.028  -4.203  26.298  0.00  0.00    +0.011 A 
ATOM      6  C   UNL     1       6.363  -5.168  25.556  0.00  0.00    +0.011 A 
ATOM      7  C   UNL     1       6.337  -5.080  24.162  0.00  0.00    +0.003 A 
ATOM      8  C   UNL     1       5.667  -6.055  23.412  0.00  0.00    +0.011 A 
ATOM      9  C   UNL     1       5.645  -5.974  22.028  0.00  0.00    +0.020 A 
ATOM     10  C   UNL     1       6.300  -4.914  21.438  0.00  0.00    +0.111 A 
ATOM     11  N   UNL     1       6.951  -3.954  22.130  0.00  0.00    -0.253 NA
ATOM     12  C   UNL     1       8.327  -2.160  26.402  0.00  0.00    +0.012 A 
ATOM     13  C   UNL     1       6.980  -4.012  23.486  0.00  0.00    +0.097 A 
ATOM     14  C   UNL     1       8.944  -1.091  25.767  0.00  0.00    +0.024 A 
ENDROOT
BRANCH   1  15
ATOM     15  C   UNL     1       9.518   0.116  23.631  0.00  0.00    +0.085 C 
BRANCH  15  16
ATOM     16  CA  UNL     1       8.917   0.325  22.234  0.00  0.00    +0.166 C 
BRANCH  16  17
ATOM     17  N   UNL     1       9.582  -0.476  21.155  0.00  0.00    -0.318 NA
ATOM     18  H1  UNL     1      10.366   0.108  20.797  0.00  0.00    +0.119 HD
ATOM     19  H2  UNL     1      10.094  -1.239  21.609  0.00  0.00    +0.119 HD
ENDBRANCH  16  17
BRANCH  16  20
ATOM     20  C   UNL     1       8.969   1.813  21.856  0.00  0.00    +0.322 C 
ATOM     21  OXT UNL     1       8.000   2.553  21.788  0.00  0.00    -0.249 OA
BRANCH  20  22
ATOM     22  O   UNL     1      10.239   2.213  21.585  0.00  0.00    -0.480 OA
ATOM     23  H   UNL     1      10.794   1.824  22.313  0.00  0.00    +0.295 HD
ENDBRANCH  20  22
ENDBRANCH  16  20
ENDBRANCH  15  16
ENDBRANCH   1  15
TORSDOF 5
ENDMDL
MODEL 4
REMARK VINA RESULT:      -6.2      2.688      3.911
REMARK  Name = 
REMARK  5 active torsions:
REMARK  status: ('A' for Active; 'I' for Inactive)
REMARK    1  A    between atoms: N_1  and  CA_2
REMARK    2  A    between atoms: CA_2  and  C_4
REMARK    3  A    between atoms: CA_2  and  C_19
REMARK    4  A    between atoms: C_4  and  C_5
REMARK    5  A    between atoms: C_19  and  O_20
REMARK                            x       y       z     vdW  Elec       q    Type
REMARK                         _______ _______ _______ _____ _____    ______ ____
ROOT
ATOM      1  C   UNL     1       8.710  -2.456  24.702  0.00  0.00    +0.044 A 
ATOM      2  N   UNL     1       7.925  -1.367  24.508  0.00  0.00    -0.249 NA
ATOM      3  C   UNL     1       8.227  -0.467  23.533  0.00  0.00    +0.097 A 
ATOM      4  C   UNL     1       9.365  -0.673  22.719  0.00  0.00    +0.003 A 
ATOM      5  C   UNL     1       9.692   0.227  21.700  0.00  0.00    +0.011 A 
ATOM      6  C   UNL     1       8.893   1.338  21.472  0.00  0.00    +0.011 A 
ATOM      7  C   UNL     1       7.769   1.563  22.270  0.00  0.00    +0.003 A 
ATOM      8  C   UNL     1       6.963   2.687  22.041  0.00  0.00    +0.011 A 
ATOM      9  C   UNL     1       5.850   2.917  22.836  0.00  0.00    +0.020 A 
ATOM     10  C   UNL     1       5.582   2.012  23.840  0.00  0.00    +0.111 A 
ATOM     11  N   UNL     1       6.334   0.917  24.086  0.00  0.00    -0.253 NA
ATOM     12  C   UNL     1      10.169  -1.796  22.946  0.00  0.00    +0.012 A 
ATOM     13  C   UNL     1       7.425   0.669  23.315  0.00  0.00    +0.097 A 
ATOM     14  C   UNL     1       9.841  -2.700  23.947  0.00  0.00    +0.024 A 
ENDROOT
BRANCH   1  15
ATOM     15  C   UNL     1       8.285  -3.402  25.800  0.00  0.00    +0.085 C 
BRANCH  15  16
ATOM     16  CA  UNL     1       7.342  -4.511  25.313  0.00  0.00    +0.166 C 
BRANCH  16  17
ATOM     17  N   UNL     1       6.005  -4.016  24.849  0.00  0.00    -0.318 NA
ATOM     18  H1  UNL     1       5.883  -4.370  23.877  0.00  0.00    +0.119 HD
ATOM     19  H2  UNL     1       5.288  -4.554  25.347  0.00  0.00    +0.119 HD
ENDBRANCH  16  17
BRANCH  16  20
ATOM     20  C   UNL     1       7.133  -5.551  26.423  0.00  0.00    +0.322 C 
ATOM     21  OXT UNL     1       6.128  -6.229  26.568  0.00  0.00    -0.249 OA
BRANCH  20  22
ATOM     22  O   UNL     1       8.210  -5.617  27.250  0.00  0.00    -0.480 OA
ATOM     23  H   UNL     1       8.853  -6.220  26.790  0.00  0.00    +0.295 HD
ENDBRANCH  20  22
ENDBRANCH  16  20
ENDBRANCH  15  16
ENDBRANCH   1  15
TORSDOF 5
ENDMDL
MODEL 5
REMARK VINA RESULT:      -6.2      3.011      4.257
REMARK  Name = 
REMARK  5 active torsions:
REMARK  status: ('A' for Active; 'I' for Inactive)
REMARK    1  A    between atoms: N_1  and  CA_2
REMARK    2  A    between atoms: CA_2  and  C_4
REMARK    3  A    between atoms: CA_2  and  C_19
REMARK    4  A    between atoms: C_4  and  C_5
REMARK    5  A    between atoms: C_19  and  O_20
REMARK                            x       y       z     vdW  Elec       q    Type
REMARK                         _______ _______ _______ _____ _____    ______ ____
ROOT
ATOM      1  C   UNL     1       6.082  -5.009  25.432  0.00  0.00    +0.044 A 
ATOM      2  N   UNL     1       6.848  -3.902  25.596  0.00  0.00    -0.249 NA
ATOM      3  C   UNL     1       7.353  -3.248  24.514  0.00  0.00    +0.097 A 
ATOM      4  C   UNL     1       7.073  -3.729  23.214  0.00  0.00    +0.003 A 
ATOM      5  C   UNL     1       7.566  -3.070  22.083  0.00  0.00    +0.011 A 
ATOM      6  C   UNL     1       8.337  -1.925  22.227  0.00  0.00    +0.011 A 
ATOM      7  C   UNL     1       8.630  -1.439  23.503  0.00  0.00    +0.003 A 
ATOM      8  C   UNL     1       9.410  -0.284  23.648  0.00  0.00    +0.011 A 
ATOM      9  C   UNL     1       9.710   0.197  24.914  0.00  0.00    +0.020 A 
ATOM     10  C   UNL     1       9.217  -0.499  25.997  0.00  0.00    +0.111 A 
ATOM     11  N   UNL     1       8.459  -1.612  25.894  0.00  0.00    -0.253 NA
ATOM     12  C   UNL     1       6.292  -4.881  23.067  0.00  0.00    +0.012 A 
ATOM     13  C   UNL     1       8.150  -2.097  24.663  0.00  0.00    +0.097 A 
ATOM     14  C   UNL     1       5.788  -5.530  24.186  0.00  0.00    +0.024 A 
ENDROOT
BRANCH   1  15
ATOM     15  C   UNL     1       5.559  -5.656  26.692  0.00  0.00    +0.085 C 
BRANCH  15  16
ATOM     16  CA  UNL     1       6.536  -5.562  27.871  0.00  0.00    +0.166 C 
BRANCH  16  17
ATOM     17  N   UNL     1       7.960  -5.869  27.512  0.00  0.00    -0.318 NA
ATOM     18  H1  UNL     1       8.552  -5.290  28.142  0.00  0.00    +0.119 HD
ATOM     19  H2  UNL     1       8.167  -6.812  27.856  0.00  0.00    +0.119 HD
ENDBRANCH  16  17
BRANCH  16  20
ATOM     20  C   UNL     1       6.092  -6.503  29.001  0.00  0.00    +0.322 C 
ATOM     21  OXT UNL     1       6.300  -6.318  30.190  0.00  0.00    -0.249 OA
BRANCH  20  22
ATOM     22  O   UNL     1       5.443  -7.593  28.513  0.00  0.00    -0.480 OA
ATOM     23  H   UNL     1       5.103  -8.072  29.316  0.00  0.00    +0.295 HD
ENDBRANCH  20  22
ENDBRANCH  16  20
ENDBRANCH  15  16
ENDBRANCH   1  15
TORSDOF 5
ENDMDL
MODEL 6
REMARK VINA RESULT:      -6.2      2.797      4.179
REMARK  Name = 
REMARK  5 active torsions:
REMARK  status: ('A' for Active; 'I' for Inactive)
REMARK    1  A    between atoms: N_1  and  CA_2
REMARK    2  A    between atoms: CA_2  and  C_4
REMARK    3  A    between atoms: CA_2  and  C_19
REMARK    4  A    between atoms: C_4  and  C_5
REMARK    5  A    between atoms: C_19  and  O_20
REMARK                            x       y       z     vdW  Elec       q    Type
REMARK                         _______ _______ _______ _____ _____    ______ ____
ROOT
ATOM      1  C   UNL     1       7.830  -2.255  23.760  0.00  0.00    +0.044 A 
ATOM      2  N   UNL     1       7.798  -0.993  24.256  0.00  0.00    -0.249 NA
ATOM      3  C   UNL     1       8.456   0.013  23.620  0.00  0.00    +0.097 A 
ATOM      4  C   UNL     1       9.174  -0.262  22.433  0.00  0.00    +0.003 A 
ATOM      5  C   UNL     1       9.848   0.754  21.749  0.00  0.00    +0.011 A 
ATOM      6  C   UNL     1       9.814   2.056  22.229  0.00  0.00    +0.011 A 
ATOM      7  C   UNL     1       9.117   2.346  23.404  0.00  0.00    +0.003 A 
ATOM      8  C   UNL     1       9.084   3.660  23.889  0.00  0.00    +0.011 A 
ATOM      9  C   UNL     1       8.398   3.951  25.060  0.00  0.00    +0.020 A 
ATOM     10  C   UNL     1       7.768   2.911  25.707  0.00  0.00    +0.111 A 
ATOM     11  N   UNL     1       7.774   1.635  25.265  0.00  0.00    -0.253 NA
ATOM     12  C   UNL     1       9.206  -1.574  21.945  0.00  0.00    +0.012 A 
ATOM     13  C   UNL     1       8.435   1.330  24.118  0.00  0.00    +0.097 A 
ATOM     14  C   UNL     1       8.526  -2.583  22.612  0.00  0.00    +0.024 A 
ENDROOT
BRANCH   1  15
ATOM     15  C   UNL     1       7.059  -3.300  24.531  0.00  0.00    +0.085 C 
BRANCH  15  16
ATOM     16  CA  UNL     1       7.764  -3.743  25.820  0.00  0.00    +0.166 C 
BRANCH  16  17
ATOM     17  N   UNL     1       8.744  -2.743  26.357  0.00  0.00    -0.318 NA
ATOM     18  H1  UNL     1       9.684  -3.052  26.032  0.00  0.00    +0.119 HD
ATOM     19  H2  UNL     1       8.624  -1.877  25.822  0.00  0.00    +0.119 HD
ENDBRANCH  16  17
BRANCH  16  20
ATOM     20  C   UNL     1       8.485  -5.079  25.594  0.00  0.00    +0.322 C 
ATOM     21  OXT UNL     1       9.200  -5.337  24.637  0.00  0.00    -0.249 OA
BRANCH  20  22
ATOM     22  O   UNL     1       8.217  -5.964  26.590  0.00  0.00    -0.480 OA
ATOM     23  H   UNL     1       7.471  -5.555  27.105  0.00  0.00    +0.295 HD
ENDBRANCH  20  22
ENDBRANCH  16  20
ENDBRANCH  15  16
ENDBRANCH   1  15
TORSDOF 5
ENDMDL
MODEL 7
REMARK VINA RESULT:      -6.1      1.773      2.276
REMARK  Name = 
REMARK  5 active torsions:
REMARK  status: ('A' for Active; 'I' for Inactive)
REMARK    1  A    between atoms: N_1  and  CA_2
REMARK    2  A    between atoms: CA_2  and  C_4
REMARK    3  A    between atoms: CA_2  and  C_19
REMARK    4  A    between atoms: C_4  and  C_5
REMARK    5  A    between atoms: C_19  and  O_20
REMARK                            x       y       z     vdW  Elec       q    Type
REMARK                         _______ _______ _______ _____ _____    ______ ____
ROOT
ATOM      1  C   UNL     1       7.520  -2.659  22.784  0.00  0.00    +0.044 A 
ATOM      2  N   UNL     1       7.402  -1.315  22.642  0.00  0.00    -0.249 NA
ATOM      3  C   UNL     1       8.281  -0.479  23.257  0.00  0.00    +0.097 A 
ATOM      4  C   UNL     1       9.323  -1.018  24.048  0.00  0.00    +0.003 A 
ATOM      5  C   UNL     1      10.250  -0.184  24.681  0.00  0.00    +0.011 A 
ATOM      6  C   UNL     1      10.159   1.192  24.534  0.00  0.00    +0.011 A 
ATOM      7  C   UNL     1       9.134   1.745  23.763  0.00  0.00    +0.003 A 
ATOM      8  C   UNL     1       9.042   3.135  23.616  0.00  0.00    +0.011 A 
ATOM      9  C   UNL     1       8.020   3.687  22.857  0.00  0.00    +0.020 A 
ATOM     10  C   UNL     1       7.120   2.824  22.271  0.00  0.00    +0.111 A 
ATOM     11  N   UNL     1       7.182   1.480  22.387  0.00  0.00    -0.253 NA
ATOM     12  C   UNL     1       9.417  -2.407  24.194  0.00  0.00    +0.012 A 
ATOM     13  C   UNL     1       8.177   0.918  23.121  0.00  0.00    +0.097 A 
ATOM     14  C   UNL     1       8.508  -3.240  23.556  0.00  0.00    +0.024 A 
ENDROOT
BRANCH   1  15
ATOM     15  C   UNL     1       6.503  -3.503  22.052  0.00  0.00    +0.085 C 
BRANCH  15  16
ATOM     16  CA  UNL     1       6.522  -4.978  22.477  0.00  0.00    +0.166 C 
BRANCH  16  17
ATOM     17  N   UNL     1       7.144  -5.897  21.468  0.00  0.00    -0.318 NA
ATOM     18  H1  UNL     1       8.088  -5.508  21.261  0.00  0.00    +0.119 HD
ATOM     19  H2  UNL     1       7.389  -6.765  21.954  0.00  0.00    +0.119 HD
ENDBRANCH  16  17
BRANCH  16  20
ATOM     20  C   UNL     1       5.095  -5.458  22.779  0.00  0.00    +0.322 C 
ATOM     21  OXT UNL     1       4.087  -4.780  22.656  0.00  0.00    -0.249 OA
BRANCH  20  22
ATOM     22  O   UNL     1       5.087  -6.742  23.223  0.00  0.00    -0.480 OA
ATOM     23  H   UNL     1       4.637  -7.262  22.504  0.00  0.00    +0.295 HD
ENDBRANCH  20  22
ENDBRANCH  16  20
ENDBRANCH  15  16
ENDBRANCH   1  15
TORSDOF 5
ENDMDL
MODEL 8
REMARK VINA RESULT:      -6.0      3.684      6.632
REMARK  Name = 
REMARK  5 active torsions:
REMARK  status: ('A' for Active; 'I' for Inactive)
REMARK    1  A    between atoms: N_1  and  CA_2
REMARK    2  A    between atoms: CA_2  and  C_4
REMARK    3  A    between atoms: CA_2  and  C_19
REMARK    4  A    between atoms: C_4  and  C_5
REMARK    5  A    between atoms: C_19  and  O_20
REMARK                            x       y       z     vdW  Elec       q    Type
REMARK                         _______ _______ _______ _____ _____    ______ ____
ROOT
ATOM      1  C   UNL     1       9.968  -0.577  23.475  0.00  0.00    +0.044 A 
ATOM      2  N   UNL     1       9.413  -1.448  24.354  0.00  0.00    -0.249 NA
ATOM      3  C   UNL     1       8.582  -2.433  23.916  0.00  0.00    +0.097 A 
ATOM      4  C   UNL     1       8.300  -2.545  22.534  0.00  0.00    +0.003 A 
ATOM      5  C   UNL     1       7.462  -3.556  22.053  0.00  0.00    +0.011 A 
ATOM      6  C   UNL     1       6.898  -4.469  22.932  0.00  0.00    +0.011 A 
ATOM      7  C   UNL     1       7.159  -4.370  24.300  0.00  0.00    +0.003 A 
ATOM      8  C   UNL     1       6.588  -5.291  25.189  0.00  0.00    +0.011 A 
ATOM      9  C   UNL     1       6.839  -5.192  26.549  0.00  0.00    +0.020 A 
ATOM     10  C   UNL     1       7.655  -4.166  26.976  0.00  0.00    +0.111 A 
ATOM     11  N   UNL     1       8.226  -3.264  26.148  0.00  0.00    -0.253 NA
ATOM     12  C   UNL     1       8.872  -1.627  21.646  0.00  0.00    +0.012 A 
ATOM     13  C   UNL     1       7.997  -3.348  24.812  0.00  0.00    +0.097 A 
ATOM     14  C   UNL     1       9.716  -0.632  22.118  0.00  0.00    +0.024 A 
ENDROOT
BRANCH   1  15
ATOM     15  C   UNL     1      10.885   0.472  24.058  0.00  0.00    +0.085 C 
BRANCH  15  16
ATOM     16  CA  UNL     1      10.146   1.741  24.504  0.00  0.00    +0.166 C 
BRANCH  16  17
ATOM     17  N   UNL     1       8.847   1.479  25.207  0.00  0.00    -0.318 NA
ATOM     18  H1  UNL     1       8.104   1.541  24.480  0.00  0.00    +0.119 HD
ATOM     19  H2  UNL     1       8.818   0.480  25.435  0.00  0.00    +0.119 HD
ENDBRANCH  16  17
BRANCH  16  20
ATOM     20  C   UNL     1       9.886   2.652  23.296  0.00  0.00    +0.322 C 
ATOM     21  OXT UNL     1       8.827   2.732  22.693  0.00  0.00    -0.249 OA
BRANCH  20  22
ATOM     22  O   UNL     1      10.997   3.359  22.959  0.00  0.00    -0.480 OA
ATOM     23  H   UNL     1      11.680   3.106  23.636  0.00  0.00    +0.295 HD
ENDBRANCH  20  22
ENDBRANCH  16  20
ENDBRANCH  15  16
ENDBRANCH   1  15
TORSDOF 5
ENDMDL
MODEL 9
REMARK VINA RESULT:      -5.9      4.800      7.569
REMARK  Name = 
REMARK  5 active torsions:
REMARK  status: ('A' for Active; 'I' for Inactive)
REMARK    1  A    between atoms: N_1  and  CA_2
REMARK    2  A    between atoms: CA_2  and  C_4
REMARK    3  A    between atoms: CA_2  and  C_19
REMARK    4  A    between atoms: C_4  and  C_5
REMARK    5  A    between atoms: C_19  and  O_20
REMARK                            x       y       z     vdW  Elec       q    Type
REMARK                         _______ _______ _______ _____ _____    ______ ____
ROOT
ATOM      1  C   UNL     1       8.521   2.886  23.493  0.00  0.00    +0.044 A 
ATOM      2  N   UNL     1       7.818   1.738  23.664  0.00  0.00    -0.249 NA
ATOM      3  C   UNL     1       8.253   0.576  23.104  0.00  0.00    +0.097 A 
ATOM      4  C   UNL     1       9.444   0.570  22.342  0.00  0.00    +0.003 A 
ATOM      5  C   UNL     1       9.923  -0.611  21.767  0.00  0.00    +0.011 A 
ATOM      6  C   UNL     1       9.230  -1.800  21.944  0.00  0.00    +0.011 A 
ATOM      7  C   UNL     1       8.047  -1.813  22.687  0.00  0.00    +0.003 A 
ATOM      8  C   UNL     1       7.347  -3.014  22.864  0.00  0.00    +0.011 A 
ATOM      9  C   UNL     1       6.168  -3.029  23.595  0.00  0.00    +0.020 A 
ATOM     10  C   UNL     1       5.728  -1.835  24.124  0.00  0.00    +0.111 A 
ATOM     11  N   UNL     1       6.380  -0.661  23.978  0.00  0.00    -0.253 NA
ATOM     12  C   UNL     1      10.146   1.768  22.166  0.00  0.00    +0.012 A 
ATOM     13  C   UNL     1       7.539  -0.626  23.270  0.00  0.00    +0.097 A 
ATOM     14  C   UNL     1       9.683   2.941  22.748  0.00  0.00    +0.024 A 
ENDROOT
BRANCH   1  15
ATOM     15  C   UNL     1       7.964   4.120  24.164  0.00  0.00    +0.085 C 
BRANCH  15  16
ATOM     16  CA  UNL     1       7.040   4.939  23.252  0.00  0.00    +0.166 C 
BRANCH  16  17
ATOM     17  N   UNL     1       6.359   4.132  22.187  0.00  0.00    -0.318 NA
ATOM     18  H1  UNL     1       6.711   3.157  22.288  0.00  0.00    +0.119 HD
ATOM     19  H2  UNL     1       5.379   4.020  22.465  0.00  0.00    +0.119 HD
ENDBRANCH  16  17
BRANCH  16  20
ATOM     20  C   UNL     1       7.828   6.079  22.590  0.00  0.00    +0.322 C 
ATOM     21  OXT UNL     1       8.656   6.778  23.153  0.00  0.00    -0.249 OA
BRANCH  20  22
ATOM     22  O   UNL     1       7.477   6.233  21.286  0.00  0.00    -0.480 OA
ATOM     23  H   UNL     1       6.894   5.454  21.082  0.00  0.00    +0.295 HD
ENDBRANCH  20  22
ENDBRANCH  16  20
ENDBRANCH  15  16
ENDBRANCH   1  15
TORSDOF 5
ENDMDL
