MODEL 1
REMARK VINA RESULT:      -4.5      0.000      0.000
REMARK  Name = 
REMARK  13 active torsions:
REMARK  status: ('A' for Active; 'I' for Inactive)
REMARK    1  A    between atoms: O_1  and  C_2
REMARK    2  A    between atoms: C_2  and  C_3
REMARK    3  A    between atoms: C_3  and  C_4
REMARK    4  A    between atoms: C_4  and  C_5
REMARK    5  A    between atoms: C_5  and  C_6
REMARK    6  A    between atoms: C_6  and  C_7
REMARK    7  A    between atoms: C_7  and  C_8
REMARK    8  A    between atoms: C_8  and  C_9
REMARK    9  A    between atoms: C_9  and  C_10
REMARK   10  A    between atoms: C_10  and  C_11
REMARK   11  A    between atoms: C_11  and  C_12
REMARK   12  A    between atoms: C_12  and  C_13
REMARK   13  A    between atoms: C_13  and  O_14
REMARK                            x       y       z     vdW  Elec       q    Type
REMARK                         _______ _______ _______ _____ _____    ______ ____
ROOT
ATOM      1  C   UNL     1       8.643   3.056  24.683  0.00  0.00    +0.000 C 
ENDROOT
BRANCH   1   2
ATOM      2  C   UNL     1       8.207   3.963  23.534  0.00  0.00    +0.000 C 
BRANCH   2   3
ATOM      3  C   UNL     1       8.221   5.432  23.955  0.00  0.00    +0.000 C 
BRANCH   3   4
ATOM      4  C   UNL     1       9.526   5.789  24.664  0.00  0.00    +0.000 C 
BRANCH   4   5
ATOM      5  C   UNL     1      10.614   6.152  23.655  0.00  0.00    +0.002 C 
BRANCH   5   6
ATOM      6  C   UNL     1      11.954   5.530  24.036  0.00  0.00    +0.028 C 
BRANCH   6   7
ATOM      7  C   UNL     1      12.779   5.195  22.802  0.00  0.00    +0.156 C 
BRANCH   7   8
ATOM      8  O   UNL     1      14.145   5.092  23.177  0.00  0.00    -0.395 OA
ATOM      9  H   UNL     1      14.444   5.986  23.412  0.00  0.00    +0.209 HD
ENDBRANCH   7   8
ENDBRANCH   6   7
ENDBRANCH   5   6
ENDBRANCH   4   5
ENDBRANCH   3   4
ENDBRANCH   2   3
ENDBRANCH   1   2
BRANCH   1  10
ATOM     10  C   UNL     1       9.427   1.854  24.161  0.00  0.00    +0.000 C 
BRANCH  10  11
ATOM     11  C   UNL     1      10.134   2.176  22.846  0.00  0.00    +0.001 C 
BRANCH  11  12
ATOM     12  C   UNL     1       9.938   1.050  21.832  0.00  0.00    +0.011 C 
BRANCH  12  13
ATOM     13  C   UNL     1       8.722   0.193  22.176  0.00  0.00    +0.120 C 
BRANCH  13  14
ATOM     14  C   UNL     1       9.009  -1.281  22.004  0.00  0.00    +0.305 C 
ATOM     15  O   UNL     1       8.267  -2.192  22.332  0.00  0.00    -0.251 OA
BRANCH  14  16
ATOM     16  O   UNL     1      10.215  -1.503  21.429  0.00  0.00    -0.481 OA
ATOM     17  H   UNL     1      10.411  -2.447  21.282  0.00  0.00    +0.295 HD
ENDBRANCH  14  16
ENDBRANCH  13  14
ENDBRANCH  12  13
ENDBRANCH  11  12
ENDBRANCH  10  11
ENDBRANCH   1  10
TORSDOF 13
ENDMDL
MODEL 2
REMARK VINA RESULT:      -4.4      3.285      5.378
REMARK  Name = 
REMARK  13 active torsions:
REMARK  status: ('A' for Active; 'I' for Inactive)
REMARK    1  A    between atoms: O_1  and  C_2
REMARK    2  A    between atoms: C_2  and  C_3
REMARK    3  A    between atoms: C_3  and  C_4
REMARK    4  A    between atoms: C_4  and  C_5
REMARK    5  A    between atoms: C_5  and  C_6
REMARK    6  A    between atoms: C_6  and  C_7
REMARK    7  A    between atoms: C_7  and  C_8
REMARK    8  A    between atoms: C_8  and  C_9
REMARK    9  A    between atoms: C_9  and  C_10
REMARK   10  A    between atoms: C_10  and  C_11
REMARK   11  A    between atoms: C_11  and  C_12
REMARK   12  A    between atoms: C_12  and  C_13
REMARK   13  A    between atoms: C_13  and  O_14
REMARK                            x       y       z     vdW  Elec       q    Type
REMARK                         _______ _______ _______ _____ _____    ______ ____
ROOT
ATOM      1  C   UNL     1       9.118  -1.767  22.080  0.00  0.00    +0.000 C 
ENDROOT
BRANCH   1   2
ATOM      2  C   UNL     1      10.311  -1.371  22.948  0.00  0.00    +0.000 C 
BRANCH   2   3
ATOM      3  C   UNL     1       9.853  -0.825  24.299  0.00  0.00    +0.000 C 
BRANCH   3   4
ATOM      4  C   UNL     1      10.749   0.324  24.761  0.00  0.00    +0.000 C 
BRANCH   4   5
ATOM      5  C   UNL     1      10.503   1.577  23.923  0.00  0.00    +0.002 C 
BRANCH   5   6
ATOM      6  C   UNL     1       9.011   1.838  23.740  0.00  0.00    +0.028 C 
BRANCH   6   7
ATOM      7  C   UNL     1       8.702   2.316  22.329  0.00  0.00    +0.156 C 
BRANCH   7   8
ATOM      8  O   UNL     1       9.786   1.970  21.478  0.00  0.00    -0.395 OA
ATOM      9  H   UNL     1       9.407   1.529  20.700  0.00  0.00    +0.209 HD
ENDBRANCH   7   8
ENDBRANCH   6   7
ENDBRANCH   5   6
ENDBRANCH   4   5
ENDBRANCH   3   4
ENDBRANCH   2   3
ENDBRANCH   1   2
BRANCH   1  10
ATOM     10  C   UNL     1       7.868  -1.975  22.933  0.00  0.00    +0.000 C 
BRANCH  10  11
ATOM     11  C   UNL     1       7.130  -3.253  22.540  0.00  0.00    +0.001 C 
BRANCH  11  12
ATOM     12  C   UNL     1       7.665  -4.454  23.319  0.00  0.00    +0.011 C 
BRANCH  12  13
ATOM     13  C   UNL     1       7.885  -4.113  24.791  0.00  0.00    +0.120 C 
BRANCH  13  14
ATOM     14  C   UNL     1       9.244  -4.563  25.274  0.00  0.00    +0.305 C 
ATOM     15  O   UNL     1      10.277  -4.521  24.627  0.00  0.00    -0.251 OA
BRANCH  14  16
ATOM     16  O   UNL     1       9.204  -5.035  26.543  0.00  0.00    -0.481 OA
ATOM     17  H   UNL     1      10.041  -5.440  26.837  0.00  0.00    +0.295 HD
ENDBRANCH  14  16
ENDBRANCH  13  14
ENDBRANCH  12  13
ENDBRANCH  11  12
ENDBRANCH  10  11
ENDBRANCH   1  10
TORSDOF 13
ENDMDL
MODEL 3
REMARK VINA RESULT:      -4.4      2.354      3.314
REMARK  Name = 
REMARK  13 active torsions:
REMARK  status: ('A' for Active; 'I' for Inactive)
REMARK    1  A    between atoms: O_1  and  C_2
REMARK    2  A    between atoms: C_2  and  C_3
REMARK    3  A    between atoms: C_3  and  C_4
REMARK    4  A    between atoms: C_4  and  C_5
REMARK    5  A    between atoms: C_5  and  C_6
REMARK    6  A    between atoms: C_6  and  C_7
REMARK    7  A    between atoms: C_7  and  C_8
REMARK    8  A    between atoms: C_8  and  C_9
REMARK    9  A    between atoms: C_9  and  C_10
REMARK   10  A    between atoms: C_10  and  C_11
REMARK   11  A    between atoms: C_11  and  C_12
REMARK   12  A    between atoms: C_12  and  C_13
REMARK   13  A    between atoms: C_13  and  O_14
REMARK                            x       y       z     vdW  Elec       q    Type
REMARK                         _______ _______ _______ _____ _____    ______ ____
ROOT
ATOM      1  C   UNL     1       9.463   0.479  21.658  0.00  0.00    +0.000 C 
ENDROOT
BRANCH   1   2
ATOM      2  C   UNL     1      10.001   1.880  21.939  0.00  0.00    +0.000 C 
BRANCH   2   3
ATOM      3  C   UNL     1       9.053   2.664  22.844  0.00  0.00    +0.000 C 
BRANCH   3   4
ATOM      4  C   UNL     1       9.795   3.775  23.587  0.00  0.00    +0.000 C 
BRANCH   4   5
ATOM      5  C   UNL     1      11.296   3.706  23.313  0.00  0.00    +0.002 C 
BRANCH   5   6
ATOM      6  C   UNL     1      11.964   5.059  23.536  0.00  0.00    +0.028 C 
BRANCH   6   7
ATOM      7  C   UNL     1      13.064   5.309  22.515  0.00  0.00    +0.156 C 
BRANCH   7   8
ATOM      8  O   UNL     1      14.325   5.155  23.151  0.00  0.00    -0.395 OA
ATOM      9  H   UNL     1      15.005   5.337  22.481  0.00  0.00    +0.209 HD
ENDBRANCH   7   8
ENDBRANCH   6   7
ENDBRANCH   5   6
ENDBRANCH   4   5
ENDBRANCH   3   4
ENDBRANCH   2   3
ENDBRANCH   1   2
BRANCH   1  10
ATOM     10  C   UNL     1       9.904  -0.502  22.742  0.00  0.00    +0.000 C 
BRANCH  10  11
ATOM     11  C   UNL     1       8.728  -0.940  23.612  0.00  0.00    +0.001 C 
BRANCH  11  12
ATOM     12  C   UNL     1       8.546  -2.457  23.559  0.00  0.00    +0.011 C 
BRANCH  12  13
ATOM     13  C   UNL     1       9.727  -3.185  24.196  0.00  0.00    +0.120 C 
BRANCH  13  14
ATOM     14  C   UNL     1       9.280  -4.386  24.997  0.00  0.00    +0.305 C 
ATOM     15  O   UNL     1       8.207  -4.500  25.565  0.00  0.00    -0.251 OA
BRANCH  14  16
ATOM     16  O   UNL     1      10.220  -5.360  25.024  0.00  0.00    -0.481 OA
ATOM     17  H   UNL     1       9.949  -6.178  24.570  0.00  0.00    +0.295 HD
ENDBRANCH  14  16
ENDBRANCH  13  14
ENDBRANCH  12  13
ENDBRANCH  11  12
ENDBRANCH  10  11
ENDBRANCH   1  10
TORSDOF 13
ENDMDL
MODEL 4
REMARK VINA RESULT:      -4.4      3.524      7.645
REMARK  Name = 
REMARK  13 active torsions:
REMARK  status: ('A' for Active; 'I' for Inactive)
REMARK    1  A    between atoms: O_1  and  C_2
REMARK    2  A    between atoms: C_2  and  C_3
REMARK    3  A    between atoms: C_3  and  C_4
REMARK    4  A    between atoms: C_4  and  C_5
REMARK    5  A    between atoms: C_5  and  C_6
REMARK    6  A    between atoms: C_6  and  C_7
REMARK    7  A    between atoms: C_7  and  C_8
REMARK    8  A    between atoms: C_8  and  C_9
REMARK    9  A    between atoms: C_9  and  C_10
REMARK   10  A    between atoms: C_10  and  C_11
REMARK   11  A    between atoms: C_11  and  C_12
REMARK   12  A    between atoms: C_12  and  C_13
REMARK   13  A    between atoms: C_13  and  O_14
REMARK                            x       y       z     vdW  Elec       q    Type
REMARK                         _______ _______ _______ _____ _____    ______ ____
ROOT
ATOM      1  C   UNL     1       7.449  -1.262  24.598  0.00  0.00    +0.000 C 
ENDROOT
BRANCH   1   2
ATOM      2  C   UNL     1       7.207  -1.638  23.137  0.00  0.00    +0.000 C 
BRANCH   2   3
ATOM      3  C   UNL     1       8.090  -2.810  22.715  0.00  0.00    +0.000 C 
BRANCH   3   4
ATOM      4  C   UNL     1       7.373  -4.143  22.928  0.00  0.00    +0.000 C 
BRANCH   4   5
ATOM      5  C   UNL     1       8.118  -5.007  23.943  0.00  0.00    +0.002 C 
BRANCH   5   6
ATOM      6  C   UNL     1       7.398  -5.029  25.287  0.00  0.00    +0.028 C 
BRANCH   6   7
ATOM      7  C   UNL     1       8.384  -5.008  26.445  0.00  0.00    +0.156 C 
BRANCH   7   8
ATOM      8  O   UNL     1       7.880  -5.821  27.495  0.00  0.00    -0.395 OA
ATOM      9  H   UNL     1       7.164  -6.359  27.119  0.00  0.00    +0.209 HD
ENDBRANCH   7   8
ENDBRANCH   6   7
ENDBRANCH   5   6
ENDBRANCH   4   5
ENDBRANCH   3   4
ENDBRANCH   2   3
ENDBRANCH   1   2
BRANCH   1  10
ATOM     10  C   UNL     1       8.913  -1.474  24.979  0.00  0.00    +0.000 C 
BRANCH  10  11
ATOM     11  C   UNL     1       9.536  -0.195  25.535  0.00  0.00    +0.001 C 
BRANCH  11  12
ATOM     12  C   UNL     1      10.577   0.369  24.568  0.00  0.00    +0.011 C 
BRANCH  12  13
ATOM     13  C   UNL     1      10.010   1.524  23.747  0.00  0.00    +0.120 C 
BRANCH  13  14
ATOM     14  C   UNL     1      10.045   1.228  22.265  0.00  0.00    +0.305 C 
ATOM     15  O   UNL     1       9.891   0.131  21.757  0.00  0.00    -0.251 OA
BRANCH  14  16
ATOM     16  O   UNL     1      10.271   2.342  21.528  0.00  0.00    -0.481 OA
ATOM     17  H   UNL     1      10.656   3.078  22.039  0.00  0.00    +0.295 HD
ENDBRANCH  14  16
ENDBRANCH  13  14
ENDBRANCH  12  13
ENDBRANCH  11  12
ENDBRANCH  10  11
ENDBRANCH   1  10
TORSDOF 13
ENDMDL
MODEL 5
REMARK VINA RESULT:      -4.4      3.836      6.300
REMARK  Name = 
REMARK  13 active torsions:
REMARK  status: ('A' for Active; 'I' for Inactive)
REMARK    1  A    between atoms: O_1  and  C_2
REMARK    2  A    between atoms: C_2  and  C_3
REMARK    3  A    between atoms: C_3  and  C_4
REMARK    4  A    between atoms: C_4  and  C_5
REMARK    5  A    between atoms: C_5  and  C_6
REMARK    6  A    between atoms: C_6  and  C_7
REMARK    7  A    between atoms: C_7  and  C_8
REMARK    8  A    between atoms: C_8  and  C_9
REMARK    9  A    between atoms: C_9  and  C_10
REMARK   10  A    between atoms: C_10  and  C_11
REMARK   11  A    between atoms: C_11  and  C_12
REMARK   12  A    between atoms: C_12  and  C_13
REMARK   13  A    between atoms: C_13  and  O_14
REMARK                            x       y       z     vdW  Elec       q    Type
REMARK                         _______ _______ _______ _____ _____    ______ ____
ROOT
ATOM      1  C   UNL     1       8.305  -2.572  25.523  0.00  0.00    +0.000 C 
ENDROOT
BRANCH   1   2
ATOM      2  C   UNL     1       9.195  -1.599  24.754  0.00  0.00    +0.000 C 
BRANCH   2   3
ATOM      3  C   UNL     1      10.077  -2.335  23.747  0.00  0.00    +0.000 C 
BRANCH   3   4
ATOM      4  C   UNL     1      10.233  -1.528  22.459  0.00  0.00    +0.000 C 
BRANCH   4   5
ATOM      5  C   UNL     1       8.872  -1.092  21.920  0.00  0.00    +0.002 C 
BRANCH   5   6
ATOM      6  C   UNL     1       8.811   0.419  21.724  0.00  0.00    +0.028 C 
BRANCH   6   7
ATOM      7  C   UNL     1      10.077   1.094  22.228  0.00  0.00    +0.156 C 
BRANCH   7   8
ATOM      8  O   UNL     1      10.226   2.343  21.568  0.00  0.00    -0.395 OA
ATOM      9  H   UNL     1       9.738   2.283  20.731  0.00  0.00    +0.209 HD
ENDBRANCH   7   8
ENDBRANCH   6   7
ENDBRANCH   5   6
ENDBRANCH   4   5
ENDBRANCH   3   4
ENDBRANCH   2   3
ENDBRANCH   1   2
BRANCH   1  10
ATOM     10  C   UNL     1       8.804  -4.007  25.368  0.00  0.00    +0.000 C 
BRANCH  10  11
ATOM     11  C   UNL     1       7.657  -4.967  25.057  0.00  0.00    +0.001 C 
BRANCH  11  12
ATOM     12  C   UNL     1       6.834  -4.465  23.871  0.00  0.00    +0.011 C 
BRANCH  12  13
ATOM     13  C   UNL     1       7.426  -4.930  22.542  0.00  0.00    +0.120 C 
BRANCH  13  14
ATOM     14  C   UNL     1       6.367  -5.496  21.624  0.00  0.00    +0.305 C 
ATOM     15  O   UNL     1       5.873  -4.919  20.669  0.00  0.00    -0.251 OA
BRANCH  14  16
ATOM     16  O   UNL     1       6.005  -6.752  21.976  0.00  0.00    -0.481 OA
ATOM     17  H   UNL     1       6.167  -7.416  21.281  0.00  0.00    +0.295 HD
ENDBRANCH  14  16
ENDBRANCH  13  14
ENDBRANCH  12  13
ENDBRANCH  11  12
ENDBRANCH  10  11
ENDBRANCH   1  10
TORSDOF 13
ENDMDL
MODEL 6
REMARK VINA RESULT:      -4.2      3.913      5.767
REMARK  Name = 
REMARK  13 active torsions:
REMARK  status: ('A' for Active; 'I' for Inactive)
REMARK    1  A    between atoms: O_1  and  C_2
REMARK    2  A    between atoms: C_2  and  C_3
REMARK    3  A    between atoms: C_3  and  C_4
REMARK    4  A    between atoms: C_4  and  C_5
REMARK    5  A    between atoms: C_5  and  C_6
REMARK    6  A    between atoms: C_6  and  C_7
REMARK    7  A    between atoms: C_7  and  C_8
REMARK    8  A    between atoms: C_8  and  C_9
REMARK    9  A    between atoms: C_9  and  C_10
REMARK   10  A    between atoms: C_10  and  C_11
REMARK   11  A    between atoms: C_11  and  C_12
REMARK   12  A    between atoms: C_12  and  C_13
REMARK   13  A    between atoms: C_13  and  O_14
REMARK                            x       y       z     vdW  Elec       q    Type
REMARK                         _______ _______ _______ _____ _____    ______ ____
ROOT
ATOM      1  C   UNL     1       8.600  -1.762  24.482  0.00  0.00    +0.000 C 
ENDROOT
BRANCH   1   2
ATOM      2  C   UNL     1       9.503  -0.612  24.922  0.00  0.00    +0.000 C 
BRANCH   2   3
ATOM      3  C   UNL     1      10.381  -0.128  23.770  0.00  0.00    +0.000 C 
BRANCH   3   4
ATOM      4  C   UNL     1      10.200   1.371  23.533  0.00  0.00    +0.000 C 
BRANCH   4   5
ATOM      5  C   UNL     1      10.002   1.668  22.047  0.00  0.00    +0.002 C 
BRANCH   5   6
ATOM      6  C   UNL     1       8.710   1.047  21.525  0.00  0.00    +0.028 C 
BRANCH   6   7
ATOM      7  C   UNL     1       7.490   1.659  22.198  0.00  0.00    +0.156 C 
BRANCH   7   8
ATOM      8  O   UNL     1       6.635   0.614  22.639  0.00  0.00    -0.395 OA
ATOM      9  H   UNL     1       5.788   0.726  22.178  0.00  0.00    +0.209 HD
ENDBRANCH   7   8
ENDBRANCH   6   7
ENDBRANCH   5   6
ENDBRANCH   4   5
ENDBRANCH   3   4
ENDBRANCH   2   3
ENDBRANCH   1   2
BRANCH   1  10
ATOM     10  C   UNL     1       8.988  -2.259  23.091  0.00  0.00    +0.000 C 
BRANCH  10  11
ATOM     11  C   UNL     1       7.844  -3.029  22.434  0.00  0.00    +0.001 C 
BRANCH  11  12
ATOM     12  C   UNL     1       7.409  -4.207  23.306  0.00  0.00    +0.011 C 
BRANCH  12  13
ATOM     13  C   UNL     1       7.406  -5.515  22.518  0.00  0.00    +0.120 C 
BRANCH  13  14
ATOM     14  C   UNL     1       6.139  -5.680  21.710  0.00  0.00    +0.305 C 
ATOM     15  O   UNL     1       5.974  -5.298  20.563  0.00  0.00    -0.251 OA
BRANCH  14  16
ATOM     16  O   UNL     1       5.169  -6.316  22.407  0.00  0.00    -0.481 OA
ATOM     17  H   UNL     1       4.325  -5.828  22.439  0.00  0.00    +0.295 HD
ENDBRANCH  14  16
ENDBRANCH  13  14
ENDBRANCH  12  13
ENDBRANCH  11  12
ENDBRANCH  10  11
ENDBRANCH   1  10
TORSDOF 13
ENDMDL
MODEL 7
REMARK VINA RESULT:      -4.2      3.216      7.935
REMARK  Name = 
REMARK  13 active torsions:
REMARK  status: ('A' for Active; 'I' for Inactive)
REMARK    1  A    between atoms: O_1  and  C_2
REMARK    2  A    between atoms: C_2  and  C_3
REMARK    3  A    between atoms: C_3  and  C_4
REMARK    4  A    between atoms: C_4  and  C_5
REMARK    5  A    between atoms: C_5  and  C_6
REMARK    6  A    between atoms: C_6  and  C_7
REMARK    7  A    between atoms: C_7  and  C_8
REMARK    8  A    between atoms: C_8  and  C_9
REMARK    9  A    between atoms: C_9  and  C_10
REMARK   10  A    between atoms: C_10  and  C_11
REMARK   11  A    between atoms: C_11  and  C_12
REMARK   12  A    between atoms: C_12  and  C_13
REMARK   13  A    between atoms: C_13  and  O_14
REMARK                            x       y       z     vdW  Elec       q    Type
REMARK                         _______ _______ _______ _____ _____    ______ ____
ROOT
ATOM      1  C   UNL     1       9.915  -1.793  23.321  0.00  0.00    +0.000 C 
ENDROOT
BRANCH   1   2
ATOM      2  C   UNL     1       8.866  -2.015  22.234  0.00  0.00    +0.000 C 
BRANCH   2   3
ATOM      3  C   UNL     1       7.452  -1.906  22.801  0.00  0.00    +0.000 C 
BRANCH   3   4
ATOM      4  C   UNL     1       6.637  -3.161  22.494  0.00  0.00    +0.000 C 
BRANCH   4   5
ATOM      5  C   UNL     1       7.132  -4.347  23.319  0.00  0.00    +0.002 C 
BRANCH   5   6
ATOM      6  C   UNL     1       7.310  -5.590  22.453  0.00  0.00    +0.028 C 
BRANCH   6   7
ATOM      7  C   UNL     1       6.390  -5.557  21.241  0.00  0.00    +0.156 C 
BRANCH   7   8
ATOM      8  O   UNL     1       5.187  -6.243  21.559  0.00  0.00    -0.395 OA
ATOM      9  H   UNL     1       5.298  -7.163  21.267  0.00  0.00    +0.209 HD
ENDBRANCH   7   8
ENDBRANCH   6   7
ENDBRANCH   5   6
ENDBRANCH   4   5
ENDBRANCH   3   4
ENDBRANCH   2   3
ENDBRANCH   1   2
BRANCH   1  10
ATOM     10  C   UNL     1       9.254  -1.473  24.660  0.00  0.00    +0.000 C 
BRANCH  10  11
ATOM     11  C   UNL     1       9.536  -0.035  25.093  0.00  0.00    +0.001 C 
BRANCH  11  12
ATOM     12  C   UNL     1      10.766   0.519  24.374  0.00  0.00    +0.011 C 
BRANCH  12  13
ATOM     13  C   UNL     1      10.555   1.967  23.940  0.00  0.00    +0.120 C 
BRANCH  13  14
ATOM     14  C   UNL     1       9.879   2.055  22.591  0.00  0.00    +0.305 C 
ATOM     15  O   UNL     1      10.002   1.252  21.681  0.00  0.00    -0.251 OA
BRANCH  14  16
ATOM     16  O   UNL     1       9.092   3.152  22.485  0.00  0.00    -0.481 OA
ATOM     17  H   UNL     1       8.434   3.094  21.768  0.00  0.00    +0.295 HD
ENDBRANCH  14  16
ENDBRANCH  13  14
ENDBRANCH  12  13
ENDBRANCH  11  12
ENDBRANCH  10  11
ENDBRANCH   1  10
TORSDOF 13
ENDMDL
MODEL 8
REMARK VINA RESULT:      -4.2      3.706      5.912
REMARK  Name = 
REMARK  13 active torsions:
REMARK  status: ('A' for Active; 'I' for Inactive)
REMARK    1  A    between atoms: O_1  and  C_2
REMARK    2  A    between atoms: C_2  and  C_3
REMARK    3  A    between atoms: C_3  and  C_4
REMARK    4  A    between atoms: C_4  and  C_5
REMARK    5  A    between atoms: C_5  and  C_6
REMARK    6  A    between atoms: C_6  and  C_7
REMARK    7  A    between atoms: C_7  and  C_8
REMARK    8  A    between atoms: C_8  and  C_9
REMARK    9  A    between atoms: C_9  and  C_10
REMARK   10  A    between atoms: C_10  and  C_11
REMARK   11  A    between atoms: C_11  and  C_12
REMARK   12  A    between atoms: C_12  and  C_13
REMARK   13  A    between atoms: C_13  and  O_14
REMARK                            x       y       z     vdW  Elec       q    Type
REMARK                         _______ _______ _______ _____ _____    ______ ____
ROOT
ATOM      1  C   UNL     1       9.404  -2.303  23.197  0.00  0.00    +0.000 C 
ENDROOT
BRANCH   1   2
ATOM      2  C   UNL     1      10.332  -1.295  22.523  0.00  0.00    +0.000 C 
BRANCH   2   3
ATOM      3  C   UNL     1       9.542  -0.284  21.695  0.00  0.00    +0.000 C 
BRANCH   3   4
ATOM      4  C   UNL     1       9.969   1.147  22.020  0.00  0.00    +0.000 C 
BRANCH   4   5
ATOM      5  C   UNL     1      10.175   1.326  23.522  0.00  0.00    +0.002 C 
BRANCH   5   6
ATOM      6  C   UNL     1       8.856   1.611  24.233  0.00  0.00    +0.028 C 
BRANCH   6   7
ATOM      7  C   UNL     1       8.575   0.578  25.314  0.00  0.00    +0.156 C 
BRANCH   7   8
ATOM      8  O   UNL     1       9.810   0.126  25.851  0.00  0.00    -0.395 OA
ATOM      9  H   UNL     1       9.630  -0.192  26.751  0.00  0.00    +0.209 HD
ENDBRANCH   7   8
ENDBRANCH   6   7
ENDBRANCH   5   6
ENDBRANCH   4   5
ENDBRANCH   3   4
ENDBRANCH   2   3
ENDBRANCH   1   2
BRANCH   1  10
ATOM     10  C   UNL     1       8.051  -2.356  22.489  0.00  0.00    +0.000 C 
BRANCH  10  11
ATOM     11  C   UNL     1       7.265  -3.606  22.878  0.00  0.00    +0.001 C 
BRANCH  11  12
ATOM     12  C   UNL     1       8.090  -4.502  23.802  0.00  0.00    +0.011 C 
BRANCH  12  13
ATOM     13  C   UNL     1       7.305  -4.888  25.054  0.00  0.00    +0.120 C 
BRANCH  13  14
ATOM     14  C   UNL     1       8.165  -4.828  26.295  0.00  0.00    +0.305 C 
ATOM     15  O   UNL     1       8.782  -3.850  26.684  0.00  0.00    -0.251 OA
BRANCH  14  16
ATOM     16  O   UNL     1       8.184  -6.007  26.961  0.00  0.00    -0.481 OA
ATOM     17  H   UNL     1       8.809  -6.025  27.708  0.00  0.00    +0.295 HD
ENDBRANCH  14  16
ENDBRANCH  13  14
ENDBRANCH  12  13
ENDBRANCH  11  12
ENDBRANCH  10  11
ENDBRANCH   1  10
TORSDOF 13
ENDMDL
MODEL 9
REMARK VINA RESULT:      -4.2      3.744      5.346
REMARK  Name = 
REMARK  13 active torsions:
REMARK  status: ('A' for Active; 'I' for Inactive)
REMARK    1  A    between atoms: O_1  and  C_2
REMARK    2  A    between atoms: C_2  and  C_3
REMARK    3  A    between atoms: C_3  and  C_4
REMARK    4  A    between atoms: C_4  and  C_5
REMARK    5  A    between atoms: C_5  and  C_6
REMARK    6  A    between atoms: C_6  and  C_7
REMARK    7  A    between atoms: C_7  and  C_8
REMARK    8  A    between atoms: C_8  and  C_9
REMARK    9  A    between atoms: C_9  and  C_10
REMARK   10  A    between atoms: C_10  and  C_11
REMARK   11  A    between atoms: C_11  and  C_12
REMARK   12  A    between atoms: C_12  and  C_13
REMARK   13  A    between atoms: C_13  and  O_14
REMARK                            x       y       z     vdW  Elec       q    Type
REMARK                         _______ _______ _______ _____ _____    ______ ____
ROOT
ATOM      1  C   UNL     1      10.064  -0.410  24.502  0.00  0.00    +0.000 C 
ENDROOT
BRANCH   1   2
ATOM      2  C   UNL     1      10.936   0.832  24.334  0.00  0.00    +0.000 C 
BRANCH   2   3
ATOM      3  C   UNL     1      10.272   1.853  23.412  0.00  0.00    +0.000 C 
BRANCH   3   4
ATOM      4  C   UNL     1       9.938   1.234  22.055  0.00  0.00    +0.000 C 
BRANCH   4   5
ATOM      5  C   UNL     1       8.470   1.461  21.699  0.00  0.00    +0.002 C 
BRANCH   5   6
ATOM      6  C   UNL     1       7.743   2.224  22.802  0.00  0.00    +0.028 C 
BRANCH   6   7
ATOM      7  C   UNL     1       6.610   1.397  23.392  0.00  0.00    +0.156 C 
BRANCH   7   8
ATOM      8  O   UNL     1       6.588   0.127  22.757  0.00  0.00    -0.395 OA
ATOM      9  H   UNL     1       7.441   0.020  22.305  0.00  0.00    +0.209 HD
ENDBRANCH   7   8
ENDBRANCH   6   7
ENDBRANCH   5   6
ENDBRANCH   4   5
ENDBRANCH   3   4
ENDBRANCH   2   3
ENDBRANCH   1   2
BRANCH   1  10
ATOM     10  C   UNL     1       9.091  -0.240  25.667  0.00  0.00    +0.000 C 
BRANCH  10  11
ATOM     11  C   UNL     1       8.013  -1.322  25.658  0.00  0.00    +0.001 C 
BRANCH  11  12
ATOM     12  C   UNL     1       8.494  -2.563  24.907  0.00  0.00    +0.011 C 
BRANCH  12  13
ATOM     13  C   UNL     1       8.789  -3.716  25.864  0.00  0.00    +0.120 C 
BRANCH  13  14
ATOM     14  C   UNL     1       9.310  -4.932  25.133  0.00  0.00    +0.305 C 
ATOM     15  O   UNL     1       8.850  -5.391  24.101  0.00  0.00    -0.251 OA
BRANCH  14  16
ATOM     16  O   UNL     1      10.379  -5.482  25.756  0.00  0.00    -0.481 OA
ATOM     17  H   UNL     1      10.148  -6.210  26.361  0.00  0.00    +0.295 HD
ENDBRANCH  14  16
ENDBRANCH  13  14
ENDBRANCH  12  13
ENDBRANCH  11  12
ENDBRANCH  10  11
ENDBRANCH   1  10
TORSDOF 13
ENDMDL
