MODEL 1
REMARK VINA RESULT:      -6.6      0.000      0.000
REMARK  Name = 
REMARK  15 active torsions:
REMARK  status: ('A' for Active; 'I' for Inactive)
REMARK    1  A    between atoms: C_1  and  C_2
REMARK    2  A    between atoms: C_2  and  C_4
REMARK    3  A    between atoms: N_5  and  C_6
REMARK    4  A    between atoms: C_6  and  C_7
REMARK    5  A    between atoms: C_10  and  C_11
REMARK    6  A    between atoms: C_15  and  C_16
REMARK    7  A    between atoms: C_17  and  C_18
REMARK    8  A    between atoms: C_18  and  C_19
REMARK    9  A    between atoms: C_19  and  O_20
REMARK   10  A    between atoms: O_20  and  P_21
REMARK   11  A    between atoms: P_21  and  O_22
REMARK   12  A    between atoms: P_21  and  O_24
REMARK   13  A    between atoms: O_24  and  P_25
REMARK   14  A    between atoms: P_25  and  O_26
REMARK   15  A    between atoms: P_25  and  O_27
REMARK                            x       y       z     vdW  Elec       q    Type
REMARK                         _______ _______ _______ _____ _____    ______ ____
ROOT
ATOM      1  C   UNL     1       7.160  -4.035  22.961  0.00  0.00    +0.290 A 
ATOM      2  S   UNL     1       8.076  -2.656  22.490  0.00  0.00    -0.016 S 
ATOM      3  C   UNL     1       8.784  -2.504  24.035  0.00  0.00    +0.064 A 
ATOM      4  C   UNL     1       8.255  -3.441  24.902  0.00  0.00    +0.192 A 
ATOM      5  C   UNL     1       8.627  -3.602  26.339  0.00  0.00    +0.123 C 
ATOM      6  N   UNL     1       7.343  -4.303  24.258  0.00  0.00    -0.181 N 
ENDROOT
BRANCH   1   8
ATOM      7  C   UNL     1       6.726  -5.966  21.334  0.00  0.00    +0.099 C 
ATOM      8  C   UNL     1       6.323  -4.642  21.929  0.00  0.00    +0.231 C 
ATOM      9  O   UNL     1       5.348  -4.060  21.462  0.00  0.00    -0.285 OA
ENDBRANCH   1   8
BRANCH   3  10
ATOM     10  C   UNL     1       9.875  -1.490  24.249  0.00  0.00    +0.077 C 
BRANCH  10  11
ATOM     11  C   UNL     1      10.304  -0.926  22.899  0.00  0.00    +0.178 C 
BRANCH  11  12
ATOM     12  O   UNL     1      10.519   0.477  22.964  0.00  0.00    -0.286 OA
BRANCH  12  13
ATOM     13  P   UNL     1       9.227   1.379  22.249  0.00  0.00    +0.483 P 
ATOM     14  O   UNL     1       9.118   0.355  21.113  0.00  0.00    -0.227 OA
BRANCH  13  15
ATOM     15  O   UNL     1      10.332   2.482  21.777  0.00  0.00    -0.302 OA
ATOM     16  H   UNL     1      10.475   2.519  20.811  0.00  0.00    +0.222 HD
ENDBRANCH  13  15
BRANCH  13  17
ATOM     17  O   UNL     1       7.936   2.282  21.534  0.00  0.00    -0.186 OA
BRANCH  17  18
ATOM     18  P   UNL     1       7.249   3.343  22.497  0.00  0.00    +0.481 P 
ATOM     19  O   UNL     1       6.942   2.929  23.894  0.00  0.00    -0.227 OA
BRANCH  18  20
ATOM     20  O   UNL     1       5.978   3.805  21.649  0.00  0.00    -0.302 OA
ATOM     21  H   UNL     1       6.265   4.053  20.748  0.00  0.00    +0.222 HD
ENDBRANCH  18  20
BRANCH  18  22
ATOM     22  O   UNL     1       8.175   4.631  22.342  0.00  0.00    -0.302 OA
ATOM     23  H   UNL     1       8.262   4.920  21.413  0.00  0.00    +0.222 HD
ENDBRANCH  18  22
ENDBRANCH  17  18
ENDBRANCH  13  17
ENDBRANCH  12  13
ENDBRANCH  11  12
ENDBRANCH  10  11
ENDBRANCH   3  10
BRANCH   6  24
ATOM     24  C   UNL     1       6.554  -5.328  24.974  0.00  0.00    +0.399 C 
BRANCH  24  25
ATOM     25  C   UNL     1       5.109  -4.965  25.131  0.00  0.00    +0.075 A 
ATOM     26  C   UNL     1       4.105  -5.718  24.543  0.00  0.00    +0.129 A 
ATOM     27  N   UNL     1       4.357  -6.959  23.966  0.00  0.00    -0.343 N 
ATOM     28  H   UNL     1       4.968  -6.956  23.159  0.00  0.00    +0.144 HD
ATOM     29  H   UNL     1       3.443  -7.324  23.674  0.00  0.00    +0.144 HD
ATOM     30  N   UNL     1       2.820  -5.345  24.538  0.00  0.00    -0.218 NA
ATOM     31  C   UNL     1       2.500  -4.196  25.154  0.00  0.00    +0.128 A 
ATOM     32  C   UNL     1       1.096  -3.686  25.046  0.00  0.00    +0.088 C 
ATOM     33  N   UNL     1       3.376  -3.464  25.855  0.00  0.00    -0.240 NA
ATOM     34  C   UNL     1       4.652  -3.870  25.836  0.00  0.00    +0.126 A 
ENDBRANCH  24  25
ENDBRANCH   6  24
TORSDOF 12
ENDMDL
MODEL 2
REMARK VINA RESULT:      -6.6      1.980      2.794
REMARK  Name = 
REMARK  15 active torsions:
REMARK  status: ('A' for Active; 'I' for Inactive)
REMARK    1  A    between atoms: C_1  and  C_2
REMARK    2  A    between atoms: C_2  and  C_4
REMARK    3  A    between atoms: N_5  and  C_6
REMARK    4  A    between atoms: C_6  and  C_7
REMARK    5  A    between atoms: C_10  and  C_11
REMARK    6  A    between atoms: C_15  and  C_16
REMARK    7  A    between atoms: C_17  and  C_18
REMARK    8  A    between atoms: C_18  and  C_19
REMARK    9  A    between atoms: C_19  and  O_20
REMARK   10  A    between atoms: O_20  and  P_21
REMARK   11  A    between atoms: P_21  and  O_22
REMARK   12  A    between atoms: P_21  and  O_24
REMARK   13  A    between atoms: O_24  and  P_25
REMARK   14  A    between atoms: P_25  and  O_26
REMARK   15  A    between atoms: P_25  and  O_27
REMARK                            x       y       z     vdW  Elec       q    Type
REMARK                         _______ _______ _______ _____ _____    ______ ____
ROOT
ATOM      1  C   UNL     1       7.621  -3.766  25.962  0.00  0.00    +0.290 A 
ATOM      2  S   UNL     1       8.159  -2.188  26.394  0.00  0.00    -0.016 S 
ATOM      3  C   UNL     1       8.380  -1.734  24.765  0.00  0.00    +0.064 A 
ATOM      4  C   UNL     1       8.126  -2.804  23.928  0.00  0.00    +0.192 A 
ATOM      5  C   UNL     1       8.226  -2.783  22.438  0.00  0.00    +0.123 C 
ATOM      6  N   UNL     1       7.686  -3.940  24.639  0.00  0.00    -0.181 N 
ENDROOT
BRANCH   1   8
ATOM      7  C   UNL     1       6.001  -4.340  27.863  0.00  0.00    +0.099 C 
ATOM      8  C   UNL     1       7.241  -4.647  27.064  0.00  0.00    +0.231 C 
ATOM      9  O   UNL     1       7.953  -5.581  27.420  0.00  0.00    -0.285 OA
ENDBRANCH   1   8
BRANCH   3  10
ATOM     10  C   UNL     1       8.730  -0.307  24.439  0.00  0.00    +0.077 C 
BRANCH  10  11
ATOM     11  C   UNL     1      10.233  -0.203  24.210  0.00  0.00    +0.178 C 
BRANCH  11  12
ATOM     12  O   UNL     1      10.530   0.291  22.912  0.00  0.00    -0.286 OA
BRANCH  12  13
ATOM     13  P   UNL     1       9.228   1.211  22.239  0.00  0.00    +0.483 P 
ATOM     14  O   UNL     1       9.117   0.228  21.067  0.00  0.00    -0.227 OA
BRANCH  13  15
ATOM     15  O   UNL     1      10.323   2.338  21.800  0.00  0.00    -0.302 OA
ATOM     16  H   UNL     1      10.594   2.289  20.863  0.00  0.00    +0.222 HD
ENDBRANCH  13  15
BRANCH  13  17
ATOM     17  O   UNL     1       7.926   2.131  21.567  0.00  0.00    -0.186 OA
BRANCH  17  18
ATOM     18  P   UNL     1       7.303   3.219  22.542  0.00  0.00    +0.481 P 
ATOM     19  O   UNL     1       7.008   2.819  23.946  0.00  0.00    -0.227 OA
BRANCH  18  20
ATOM     20  O   UNL     1       6.034   3.732  21.720  0.00  0.00    -0.302 OA
ATOM     21  H   UNL     1       5.991   3.258  20.866  0.00  0.00    +0.222 HD
ENDBRANCH  18  20
BRANCH  18  22
ATOM     22  O   UNL     1       8.277   4.468  22.366  0.00  0.00    -0.302 OA
ATOM     23  H   UNL     1       9.085   4.245  21.865  0.00  0.00    +0.222 HD
ENDBRANCH  18  22
ENDBRANCH  17  18
ENDBRANCH  13  17
ENDBRANCH  12  13
ENDBRANCH  11  12
ENDBRANCH  10  11
ENDBRANCH   3  10
BRANCH   6  24
ATOM     24  C   UNL     1       7.447  -5.252  24.000  0.00  0.00    +0.399 C 
BRANCH  24  25
ATOM     25  C   UNL     1       5.997  -5.539  23.754  0.00  0.00    +0.075 A 
ATOM     26  C   UNL     1       5.457  -5.498  22.478  0.00  0.00    +0.129 A 
ATOM     27  N   UNL     1       6.257  -5.409  21.343  0.00  0.00    -0.343 N 
ATOM     28  H   UNL     1       6.801  -4.560  21.250  0.00  0.00    +0.144 HD
ATOM     29  H   UNL     1       5.617  -5.468  20.543  0.00  0.00    +0.144 HD
ATOM     30  N   UNL     1       4.146  -5.604  22.236  0.00  0.00    -0.218 NA
ATOM     31  C   UNL     1       3.328  -5.778  23.286  0.00  0.00    +0.128 A 
ATOM     32  C   UNL     1       1.848  -5.760  23.058  0.00  0.00    +0.088 C 
ATOM     33  N   UNL     1       3.763  -5.953  24.541  0.00  0.00    -0.240 NA
ATOM     34  C   UNL     1       5.082  -5.841  24.742  0.00  0.00    +0.126 A 
ENDBRANCH  24  25
ENDBRANCH   6  24
TORSDOF 12
ENDMDL
MODEL 3
REMARK VINA RESULT:      -6.6      5.726      8.573
REMARK  Name = 
REMARK  15 active torsions:
REMARK  status: ('A' for Active; 'I' for Inactive)
REMARK    1  A    between atoms: C_1  and  C_2
REMARK    2  A    between atoms: C_2  and  C_4
REMARK    3  A    between atoms: N_5  and  C_6
REMARK    4  A    between atoms: C_6  and  C_7
REMARK    5  A    between atoms: C_10  and  C_11
REMARK    6  A    between atoms: C_15  and  C_16
REMARK    7  A    between atoms: C_17  and  C_18
REMARK    8  A    between atoms: C_18  and  C_19
REMARK    9  A    between atoms: C_19  and  O_20
REMARK   10  A    between atoms: O_20  and  P_21
REMARK   11  A    between atoms: P_21  and  O_22
REMARK   12  A    between atoms: P_21  and  O_24
REMARK   13  A    between atoms: O_24  and  P_25
REMARK   14  A    between atoms: P_25  and  O_26
REMARK   15  A    between atoms: P_25  and  O_27
REMARK                            x       y       z     vdW  Elec       q    Type
REMARK                         _______ _______ _______ _____ _____    ______ ____
ROOT
ATOM      1  C   UNL     1       6.625   0.912  23.943  0.00  0.00    +0.290 A 
ATOM      2  S   UNL     1       6.642  -0.771  24.308  0.00  0.00    -0.016 S 
ATOM      3  C   UNL     1       7.851  -1.088  23.148  0.00  0.00    +0.064 A 
ATOM      4  C   UNL     1       8.160   0.062  22.447  0.00  0.00    +0.192 A 
ATOM      5  C   UNL     1       9.166   0.165  21.348  0.00  0.00    +0.123 C 
ATOM      6  N   UNL     1       7.455   1.183  22.930  0.00  0.00    -0.181 N 
ENDROOT
BRANCH   1   8
ATOM      7  C   UNL     1       6.222   2.445  25.956  0.00  0.00    +0.099 C 
ATOM      8  C   UNL     1       5.711   1.737  24.728  0.00  0.00    +0.231 C 
ATOM      9  O   UNL     1       4.511   1.798  24.471  0.00  0.00    -0.285 OA
ENDBRANCH   1   8
BRANCH   3  10
ATOM     10  C   UNL     1       8.454  -2.465  23.069  0.00  0.00    +0.077 C 
BRANCH  10  11
ATOM     11  C   UNL     1       9.515  -2.607  24.154  0.00  0.00    +0.178 C 
BRANCH  11  12
ATOM     12  O   UNL     1       9.940  -3.955  24.295  0.00  0.00    -0.286 OA
BRANCH  12  13
ATOM     13  P   UNL     1       8.981  -4.837  25.434  0.00  0.00    +0.483 P 
ATOM     14  O   UNL     1       8.858  -3.591  26.320  0.00  0.00    -0.227 OA
BRANCH  13  15
ATOM     15  O   UNL     1      10.341  -5.607  25.901  0.00  0.00    -0.302 OA
ATOM     16  H   UNL     1      11.144  -5.050  25.883  0.00  0.00    +0.222 HD
ENDBRANCH  13  15
BRANCH  13  17
ATOM     17  O   UNL     1       8.023  -5.719  26.572  0.00  0.00    -0.186 OA
BRANCH  17  18
ATOM     18  P   UNL     1       6.456  -5.485  26.452  0.00  0.00    +0.481 P 
ATOM     19  O   UNL     1       5.560  -6.671  26.531  0.00  0.00    -0.227 OA
BRANCH  18  20
ATOM     20  O   UNL     1       6.335  -4.653  25.095  0.00  0.00    -0.302 OA
ATOM     21  H   UNL     1       6.783  -3.791  25.205  0.00  0.00    +0.222 HD
ENDBRANCH  18  20
BRANCH  18  22
ATOM     22  O   UNL     1       6.177  -4.332  27.517  0.00  0.00    -0.302 OA
ATOM     23  H   UNL     1       6.043  -3.460  27.098  0.00  0.00    +0.222 HD
ENDBRANCH  18  22
ENDBRANCH  17  18
ENDBRANCH  13  17
ENDBRANCH  12  13
ENDBRANCH  11  12
ENDBRANCH  10  11
ENDBRANCH   3  10
BRANCH   6  24
ATOM     24  C   UNL     1       7.518   2.516  22.294  0.00  0.00    +0.399 C 
BRANCH  24  25
ATOM     25  C   UNL     1       8.397   3.484  23.025  0.00  0.00    +0.075 A 
ATOM     26  C   UNL     1       7.933   4.729  23.418  0.00  0.00    +0.129 A 
ATOM     27  N   UNL     1       6.584   5.066  23.357  0.00  0.00    -0.343 N 
ATOM     28  H   UNL     1       6.177   5.093  22.431  0.00  0.00    +0.144 HD
ATOM     29  H   UNL     1       6.509   6.003  23.768  0.00  0.00    +0.144 HD
ATOM     30  N   UNL     1       8.725   5.673  23.940  0.00  0.00    -0.218 NA
ATOM     31  C   UNL     1      10.025   5.378  24.104  0.00  0.00    +0.128 A 
ATOM     32  C   UNL     1      10.959   6.458  24.555  0.00  0.00    +0.088 C 
ATOM     33  N   UNL     1      10.543   4.164  23.870  0.00  0.00    -0.240 NA
ATOM     34  C   UNL     1       9.717   3.247  23.349  0.00  0.00    +0.126 A 
ENDBRANCH  24  25
ENDBRANCH   6  24
TORSDOF 12
ENDMDL
MODEL 4
REMARK VINA RESULT:      -6.5      5.513      8.344
REMARK  Name = 
REMARK  15 active torsions:
REMARK  status: ('A' for Active; 'I' for Inactive)
REMARK    1  A    between atoms: C_1  and  C_2
REMARK    2  A    between atoms: C_2  and  C_4
REMARK    3  A    between atoms: N_5  and  C_6
REMARK    4  A    between atoms: C_6  and  C_7
REMARK    5  A    between atoms: C_10  and  C_11
REMARK    6  A    between atoms: C_15  and  C_16
REMARK    7  A    between atoms: C_17  and  C_18
REMARK    8  A    between atoms: C_18  and  C_19
REMARK    9  A    between atoms: C_19  and  O_20
REMARK   10  A    between atoms: O_20  and  P_21
REMARK   11  A    between atoms: P_21  and  O_22
REMARK   12  A    between atoms: P_21  and  O_24
REMARK   13  A    between atoms: O_24  and  P_25
REMARK   14  A    between atoms: P_25  and  O_26
REMARK   15  A    between atoms: P_25  and  O_27
REMARK                            x       y       z     vdW  Elec       q    Type
REMARK                         _______ _______ _______ _____ _____    ______ ____
ROOT
ATOM      1  C   UNL     1       8.555   0.657  23.718  0.00  0.00    +0.290 A 
ATOM      2  S   UNL     1       8.212  -0.989  23.347  0.00  0.00    -0.016 S 
ATOM      3  C   UNL     1       6.693  -0.927  24.119  0.00  0.00    +0.064 A 
ATOM      4  C   UNL     1       6.505   0.305  24.716  0.00  0.00    +0.192 A 
ATOM      5  C   UNL     1       5.297   0.720  25.490  0.00  0.00    +0.123 C 
ATOM      6  N   UNL     1       7.576   1.186  24.460  0.00  0.00    -0.181 N 
ENDROOT
BRANCH   1   8
ATOM      7  C   UNL     1       9.975   1.520  21.768  0.00  0.00    +0.099 C 
ATOM      8  C   UNL     1       9.827   1.182  23.229  0.00  0.00    +0.231 C 
ATOM      9  O   UNL     1      10.813   1.269  23.955  0.00  0.00    -0.285 OA
ENDBRANCH   1   8
BRANCH   3  10
ATOM     10  C   UNL     1       5.763  -2.106  24.012  0.00  0.00    +0.077 C 
BRANCH  10  11
ATOM     11  C   UNL     1       5.891  -2.717  22.621  0.00  0.00    +0.178 C 
BRANCH  11  12
ATOM     12  O   UNL     1       5.812  -4.135  22.665  0.00  0.00    -0.286 OA
BRANCH  12  13
ATOM     13  P   UNL     1       7.236  -4.858  23.333  0.00  0.00    +0.483 P 
ATOM     14  O   UNL     1       7.181  -5.974  22.282  0.00  0.00    -0.227 OA
BRANCH  13  15
ATOM     15  O   UNL     1       6.326  -5.358  24.591  0.00  0.00    -0.302 OA
ATOM     16  H   UNL     1       5.588  -5.949  24.343  0.00  0.00    +0.222 HD
ENDBRANCH  13  15
BRANCH  13  17
ATOM     17  O   UNL     1       8.658  -5.580  24.000  0.00  0.00    -0.186 OA
BRANCH  17  18
ATOM     18  P   UNL     1       9.103  -5.001  25.411  0.00  0.00    +0.481 P 
ATOM     19  O   UNL     1       8.887  -3.551  25.676  0.00  0.00    -0.227 OA
BRANCH  18  20
ATOM     20  O   UNL     1      10.625  -5.471  25.512  0.00  0.00    -0.302 OA
ATOM     21  H   UNL     1      10.666  -6.445  25.445  0.00  0.00    +0.222 HD
ENDBRANCH  18  20
BRANCH  18  22
ATOM     22  O   UNL     1       8.427  -6.004  26.448  0.00  0.00    -0.302 OA
ATOM     23  H   UNL     1       7.463  -6.084  26.318  0.00  0.00    +0.222 HD
ENDBRANCH  18  22
ENDBRANCH  17  18
ENDBRANCH  13  17
ENDBRANCH  12  13
ENDBRANCH  11  12
ENDBRANCH  10  11
ENDBRANCH   3  10
BRANCH   6  24
ATOM     24  C   UNL     1       7.681   2.531  25.066  0.00  0.00    +0.399 C 
BRANCH  24  25
ATOM     25  C   UNL     1       7.425   3.643  24.095  0.00  0.00    +0.075 A 
ATOM     26  C   UNL     1       8.408   4.565  23.775  0.00  0.00    +0.129 A 
ATOM     27  N   UNL     1       9.735   4.390  24.157  0.00  0.00    -0.343 N 
ATOM     28  H   UNL     1       9.913   4.394  25.154  0.00  0.00    +0.144 HD
ATOM     29  H   UNL     1      10.254   5.169  23.737  0.00  0.00    +0.144 HD
ATOM     30  N   UNL     1       8.176   5.652  23.030  0.00  0.00    -0.218 NA
ATOM     31  C   UNL     1       6.932   5.833  22.559  0.00  0.00    +0.128 A 
ATOM     32  C   UNL     1       6.611   7.107  21.841  0.00  0.00    +0.088 C 
ATOM     33  N   UNL     1       5.946   4.937  22.710  0.00  0.00    -0.240 NA
ATOM     34  C   UNL     1       6.219   3.863  23.462  0.00  0.00    +0.126 A 
ENDBRANCH  24  25
ENDBRANCH   6  24
TORSDOF 12
ENDMDL
MODEL 5
REMARK VINA RESULT:      -6.5      1.818      2.404
REMARK  Name = 
REMARK  15 active torsions:
REMARK  status: ('A' for Active; 'I' for Inactive)
REMARK    1  A    between atoms: C_1  and  C_2
REMARK    2  A    between atoms: C_2  and  C_4
REMARK    3  A    between atoms: N_5  and  C_6
REMARK    4  A    between atoms: C_6  and  C_7
REMARK    5  A    between atoms: C_10  and  C_11
REMARK    6  A    between atoms: C_15  and  C_16
REMARK    7  A    between atoms: C_17  and  C_18
REMARK    8  A    between atoms: C_18  and  C_19
REMARK    9  A    between atoms: C_19  and  O_20
REMARK   10  A    between atoms: O_20  and  P_21
REMARK   11  A    between atoms: P_21  and  O_22
REMARK   12  A    between atoms: P_21  and  O_24
REMARK   13  A    between atoms: O_24  and  P_25
REMARK   14  A    between atoms: P_25  and  O_26
REMARK   15  A    between atoms: P_25  and  O_27
REMARK                            x       y       z     vdW  Elec       q    Type
REMARK                         _______ _______ _______ _____ _____    ______ ____
ROOT
ATOM      1  C   UNL     1       6.666  -4.085  22.953  0.00  0.00    +0.290 A 
ATOM      2  S   UNL     1       7.143  -2.576  22.276  0.00  0.00    -0.016 S 
ATOM      3  C   UNL     1       8.171  -2.224  23.591  0.00  0.00    +0.064 A 
ATOM      4  C   UNL     1       8.073  -3.209  24.556  0.00  0.00    +0.192 A 
ATOM      5  C   UNL     1       8.819  -3.234  25.849  0.00  0.00    +0.123 C 
ATOM      6  N   UNL     1       7.219  -4.257  24.158  0.00  0.00    -0.181 N 
ENDROOT
BRANCH   1   8
ATOM      7  C   UNL     1       6.248  -5.673  20.985  0.00  0.00    +0.099 C 
ATOM      8  C   UNL     1       5.734  -4.885  22.163  0.00  0.00    +0.231 C 
ATOM      9  O   UNL     1       4.524  -4.863  22.371  0.00  0.00    -0.285 OA
ENDBRANCH   1   8
BRANCH   3  10
ATOM     10  C   UNL     1       9.058  -1.010  23.529  0.00  0.00    +0.077 C 
BRANCH  10  11
ATOM     11  C   UNL     1       9.931  -1.094  22.282  0.00  0.00    +0.178 C 
BRANCH  11  12
ATOM     12  O   UNL     1       9.600  -0.080  21.344  0.00  0.00    -0.286 OA
BRANCH  12  13
ATOM     13  P   UNL     1       8.983   1.348  22.103  0.00  0.00    +0.483 P 
ATOM     14  O   UNL     1       7.885   1.459  21.038  0.00  0.00    -0.227 OA
BRANCH  13  15
ATOM     15  O   UNL     1      10.279   2.151  21.522  0.00  0.00    -0.302 OA
ATOM     16  H   UNL     1      10.916   2.434  22.206  0.00  0.00    +0.222 HD
ENDBRANCH  13  15
BRANCH  13  17
ATOM     17  O   UNL     1       8.367   2.775  22.861  0.00  0.00    -0.186 OA
BRANCH  17  18
ATOM     18  P   UNL     1       9.248   3.327  24.063  0.00  0.00    +0.481 P 
ATOM     19  O   UNL     1       8.544   3.887  25.250  0.00  0.00    -0.227 OA
BRANCH  18  20
ATOM     20  O   UNL     1      10.226   4.353  23.330  0.00  0.00    -0.302 OA
ATOM     21  H   UNL     1      10.297   4.112  22.385  0.00  0.00    +0.222 HD
ENDBRANCH  18  20
BRANCH  18  22
ATOM     22  O   UNL     1      10.259   2.131  24.355  0.00  0.00    -0.302 OA
ATOM     23  H   UNL     1       9.809   1.337  24.705  0.00  0.00    +0.222 HD
ENDBRANCH  18  22
ENDBRANCH  17  18
ENDBRANCH  13  17
ENDBRANCH  12  13
ENDBRANCH  11  12
ENDBRANCH  10  11
ENDBRANCH   3  10
BRANCH   6  24
ATOM     24  C   UNL     1       6.853  -5.385  25.042  0.00  0.00    +0.399 C 
BRANCH  24  25
ATOM     25  C   UNL     1       6.007  -4.977  26.210  0.00  0.00    +0.075 A 
ATOM     26  C   UNL     1       6.261  -5.449  27.487  0.00  0.00    +0.129 A 
ATOM     27  N   UNL     1       7.426  -6.142  27.799  0.00  0.00    -0.343 N 
ATOM     28  H   UNL     1       7.548  -7.033  27.335  0.00  0.00    +0.144 HD
ATOM     29  H   UNL     1       7.392  -6.309  28.811  0.00  0.00    +0.144 HD
ATOM     30  N   UNL     1       5.445  -5.225  28.524  0.00  0.00    -0.218 NA
ATOM     31  C   UNL     1       4.344  -4.488  28.305  0.00  0.00    +0.128 A 
ATOM     32  C   UNL     1       3.345  -4.338  29.411  0.00  0.00    +0.088 C 
ATOM     33  N   UNL     1       4.076  -3.886  27.138  0.00  0.00    -0.240 NA
ATOM     34  C   UNL     1       4.917  -4.134  26.126  0.00  0.00    +0.126 A 
ENDBRANCH  24  25
ENDBRANCH   6  24
TORSDOF 12
ENDMDL
MODEL 6
REMARK VINA RESULT:      -6.5      5.110      7.787
REMARK  Name = 
REMARK  15 active torsions:
REMARK  status: ('A' for Active; 'I' for Inactive)
REMARK    1  A    between atoms: C_1  and  C_2
REMARK    2  A    between atoms: C_2  and  C_4
REMARK    3  A    between atoms: N_5  and  C_6
REMARK    4  A    between atoms: C_6  and  C_7
REMARK    5  A    between atoms: C_10  and  C_11
REMARK    6  A    between atoms: C_15  and  C_16
REMARK    7  A    between atoms: C_17  and  C_18
REMARK    8  A    between atoms: C_18  and  C_19
REMARK    9  A    between atoms: C_19  and  O_20
REMARK   10  A    between atoms: O_20  and  P_21
REMARK   11  A    between atoms: P_21  and  O_22
REMARK   12  A    between atoms: P_21  and  O_24
REMARK   13  A    between atoms: O_24  and  P_25
REMARK   14  A    between atoms: P_25  and  O_26
REMARK   15  A    between atoms: P_25  and  O_27
REMARK                            x       y       z     vdW  Elec       q    Type
REMARK                         _______ _______ _______ _____ _____    ______ ____
ROOT
ATOM      1  C   UNL     1       9.429  -1.418  23.855  0.00  0.00    +0.290 A 
ATOM      2  S   UNL     1       8.908  -3.006  24.270  0.00  0.00    -0.016 S 
ATOM      3  C   UNL     1       8.313  -2.496  25.785  0.00  0.00    +0.064 A 
ATOM      4  C   UNL     1       8.592  -1.158  25.988  0.00  0.00    +0.192 A 
ATOM      5  C   UNL     1       8.231  -0.370  27.204  0.00  0.00    +0.123 C 
ATOM      6  N   UNL     1       9.217  -0.572  24.868  0.00  0.00    -0.181 N 
ENDROOT
BRANCH   1   8
ATOM      7  C   UNL     1       9.327  -0.452  21.483  0.00  0.00    +0.099 C 
ATOM      8  C   UNL     1      10.040  -1.259  22.537  0.00  0.00    +0.231 C 
ATOM      9  O   UNL     1      11.076  -1.842  22.230  0.00  0.00    -0.285 OA
ENDBRANCH   1   8
BRANCH   3  10
ATOM     10  C   UNL     1       7.544  -3.468  26.640  0.00  0.00    +0.077 C 
BRANCH  10  11
ATOM     11  C   UNL     1       8.142  -4.860  26.473  0.00  0.00    +0.178 C 
BRANCH  11  12
ATOM     12  O   UNL     1       7.142  -5.868  26.527  0.00  0.00    -0.286 OA
BRANCH  12  13
ATOM     13  P   UNL     1       5.723  -5.441  25.633  0.00  0.00    +0.483 P 
ATOM     14  O   UNL     1       5.054  -6.762  26.033  0.00  0.00    -0.227 OA
BRANCH  13  15
ATOM     15  O   UNL     1       6.561  -5.740  24.265  0.00  0.00    -0.302 OA
ATOM     16  H   UNL     1       6.694  -6.689  24.076  0.00  0.00    +0.222 HD
ENDBRANCH  13  15
BRANCH  13  17
ATOM     17  O   UNL     1       4.305  -5.014  24.739  0.00  0.00    -0.186 OA
BRANCH  17  18
ATOM     18  P   UNL     1       4.234  -5.616  23.271  0.00  0.00    +0.481 P 
ATOM     19  O   UNL     1       5.107  -5.019  22.223  0.00  0.00    -0.227 OA
BRANCH  18  20
ATOM     20  O   UNL     1       2.672  -5.549  22.947  0.00  0.00    -0.302 OA
ATOM     21  H   UNL     1       2.296  -4.736  23.339  0.00  0.00    +0.222 HD
ENDBRANCH  18  20
BRANCH  18  22
ATOM     22  O   UNL     1       4.406  -7.182  23.509  0.00  0.00    -0.302 OA
ATOM     23  H   UNL     1       5.265  -7.518  23.186  0.00  0.00    +0.222 HD
ENDBRANCH  18  22
ENDBRANCH  17  18
ENDBRANCH  13  17
ENDBRANCH  12  13
ENDBRANCH  11  12
ENDBRANCH  10  11
ENDBRANCH   3  10
BRANCH   6  24
ATOM     24  C   UNL     1       9.718   0.819  24.855  0.00  0.00    +0.399 C 
BRANCH  24  25
ATOM     25  C   UNL     1       8.773   1.788  24.213  0.00  0.00    +0.075 A 
ATOM     26  C   UNL     1       9.232   2.846  23.445  0.00  0.00    +0.129 A 
ATOM     27  N   UNL     1      10.562   2.946  23.048  0.00  0.00    -0.343 N 
ATOM     28  H   UNL     1      11.238   3.059  23.792  0.00  0.00    +0.144 HD
ATOM     29  H   UNL     1      10.613   3.772  22.441  0.00  0.00    +0.144 HD
ATOM     30  N   UNL     1       8.431   3.811  22.978  0.00  0.00    -0.218 NA
ATOM     31  C   UNL     1       7.121   3.725  23.257  0.00  0.00    +0.128 A 
ATOM     32  C   UNL     1       6.225   4.860  22.867  0.00  0.00    +0.088 C 
ATOM     33  N   UNL     1       6.564   2.680  23.883  0.00  0.00    -0.240 NA
ATOM     34  C   UNL     1       7.399   1.734  24.334  0.00  0.00    +0.126 A 
ENDBRANCH  24  25
ENDBRANCH   6  24
TORSDOF 12
ENDMDL
MODEL 7
REMARK VINA RESULT:      -6.5      5.834      8.668
REMARK  Name = 
REMARK  15 active torsions:
REMARK  status: ('A' for Active; 'I' for Inactive)
REMARK    1  A    between atoms: C_1  and  C_2
REMARK    2  A    between atoms: C_2  and  C_4
REMARK    3  A    between atoms: N_5  and  C_6
REMARK    4  A    between atoms: C_6  and  C_7
REMARK    5  A    between atoms: C_10  and  C_11
REMARK    6  A    between atoms: C_15  and  C_16
REMARK    7  A    between atoms: C_17  and  C_18
REMARK    8  A    between atoms: C_18  and  C_19
REMARK    9  A    between atoms: C_19  and  O_20
REMARK   10  A    between atoms: O_20  and  P_21
REMARK   11  A    between atoms: P_21  and  O_22
REMARK   12  A    between atoms: P_21  and  O_24
REMARK   13  A    between atoms: O_24  and  P_25
REMARK   14  A    between atoms: P_25  and  O_26
REMARK   15  A    between atoms: P_25  and  O_27
REMARK                            x       y       z     vdW  Elec       q    Type
REMARK                         _______ _______ _______ _____ _____    ______ ____
ROOT
ATOM      1  C   UNL     1       8.338  -0.204  23.195  0.00  0.00    +0.290 A 
ATOM      2  S   UNL     1       7.284  -1.565  23.207  0.00  0.00    -0.016 S 
ATOM      3  C   UNL     1       7.223  -1.599  24.911  0.00  0.00    +0.064 A 
ATOM      4  C   UNL     1       8.063  -0.639  25.443  0.00  0.00    +0.192 A 
ATOM      5  C   UNL     1       8.275  -0.382  26.899  0.00  0.00    +0.123 C 
ATOM      6  N   UNL     1       8.673   0.144  24.442  0.00  0.00    -0.181 N 
ENDROOT
BRANCH   1   8
ATOM      7  C   UNL     1       8.034   1.526  21.330  0.00  0.00    +0.099 C 
ATOM      8  C   UNL     1       8.725   0.307  21.883  0.00  0.00    +0.231 C 
ATOM      9  O   UNL     1       9.533  -0.283  21.171  0.00  0.00    -0.285 OA
ENDBRANCH   1   8
BRANCH   3  10
ATOM     10  C   UNL     1       6.278  -2.550  25.596  0.00  0.00    +0.077 C 
BRANCH  10  11
ATOM     11  C   UNL     1       5.849  -3.626  24.605  0.00  0.00    +0.178 C 
BRANCH  11  12
ATOM     12  O   UNL     1       6.653  -4.791  24.720  0.00  0.00    -0.286 OA
BRANCH  12  13
ATOM     13  P   UNL     1       6.902  -5.265  26.366  0.00  0.00    +0.483 P 
ATOM     14  O   UNL     1       8.265  -5.868  26.003  0.00  0.00    -0.227 OA
BRANCH  13  15
ATOM     15  O   UNL     1       5.796  -6.442  26.137  0.00  0.00    -0.302 OA
ATOM     16  H   UNL     1       5.463  -6.507  25.221  0.00  0.00    +0.222 HD
ENDBRANCH  13  15
BRANCH  13  17
ATOM     17  O   UNL     1       7.151  -5.738  28.011  0.00  0.00    -0.186 OA
BRANCH  17  18
ATOM     18  P   UNL     1       5.822  -6.046  28.826  0.00  0.00    +0.481 P 
ATOM     19  O   UNL     1       4.628  -5.194  28.571  0.00  0.00    -0.227 OA
BRANCH  18  20
ATOM     20  O   UNL     1       6.335  -6.030  30.338  0.00  0.00    -0.302 OA
ATOM     21  H   UNL     1       7.018  -6.719  30.453  0.00  0.00    +0.222 HD
ENDBRANCH  18  20
BRANCH  18  22
ATOM     22  O   UNL     1       5.617  -7.612  28.613  0.00  0.00    -0.302 OA
ATOM     23  H   UNL     1       6.462  -8.099  28.577  0.00  0.00    +0.222 HD
ENDBRANCH  18  22
ENDBRANCH  17  18
ENDBRANCH  13  17
ENDBRANCH  12  13
ENDBRANCH  11  12
ENDBRANCH  10  11
ENDBRANCH   3  10
BRANCH   6  24
ATOM     24  C   UNL     1       9.697   1.172  24.729  0.00  0.00    +0.399 C 
BRANCH  24  25
ATOM     25  C   UNL     1       9.173   2.573  24.650  0.00  0.00    +0.075 A 
ATOM     26  C   UNL     1       9.801   3.538  23.878  0.00  0.00    +0.129 A 
ATOM     27  N   UNL     1      10.808   3.217  22.973  0.00  0.00    -0.343 N 
ATOM     28  H   UNL     1      11.657   2.837  23.372  0.00  0.00    +0.144 HD
ATOM     29  H   UNL     1      11.044   4.092  22.492  0.00  0.00    +0.144 HD
ATOM     30  N   UNL     1       9.451   4.829  23.896  0.00  0.00    -0.218 NA
ATOM     31  C   UNL     1       8.428   5.189  24.688  0.00  0.00    +0.128 A 
ATOM     32  C   UNL     1       8.106   6.644  24.833  0.00  0.00    +0.088 C 
ATOM     33  N   UNL     1       7.681   4.314  25.374  0.00  0.00    -0.240 NA
ATOM     34  C   UNL     1       8.063   3.031  25.330  0.00  0.00    +0.126 A 
ENDBRANCH  24  25
ENDBRANCH   6  24
TORSDOF 12
ENDMDL
MODEL 8
REMARK VINA RESULT:      -6.4      5.317      7.873
REMARK  Name = 
REMARK  15 active torsions:
REMARK  status: ('A' for Active; 'I' for Inactive)
REMARK    1  A    between atoms: C_1  and  C_2
REMARK    2  A    between atoms: C_2  and  C_4
REMARK    3  A    between atoms: N_5  and  C_6
REMARK    4  A    between atoms: C_6  and  C_7
REMARK    5  A    between atoms: C_10  and  C_11
REMARK    6  A    between atoms: C_15  and  C_16
REMARK    7  A    between atoms: C_17  and  C_18
REMARK    8  A    between atoms: C_18  and  C_19
REMARK    9  A    between atoms: C_19  and  O_20
REMARK   10  A    between atoms: O_20  and  P_21
REMARK   11  A    between atoms: P_21  and  O_22
REMARK   12  A    between atoms: P_21  and  O_24
REMARK   13  A    between atoms: O_24  and  P_25
REMARK   14  A    between atoms: P_25  and  O_26
REMARK   15  A    between atoms: P_25  and  O_27
REMARK                            x       y       z     vdW  Elec       q    Type
REMARK                         _______ _______ _______ _____ _____    ______ ____
ROOT
ATOM      1  C   UNL     1       6.702  -0.687  24.798  0.00  0.00    +0.290 A 
ATOM      2  S   UNL     1       5.990  -1.981  23.912  0.00  0.00    -0.016 S 
ATOM      3  C   UNL     1       7.463  -2.365  23.142  0.00  0.00    +0.064 A 
ATOM      4  C   UNL     1       8.445  -1.461  23.501  0.00  0.00    +0.192 A 
ATOM      5  C   UNL     1       9.858  -1.476  23.017  0.00  0.00    +0.123 C 
ATOM      6  N   UNL     1       7.983  -0.527  24.451  0.00  0.00    -0.181 N 
ENDROOT
BRANCH   1   8
ATOM      7  C   UNL     1       5.960  -0.182  27.198  0.00  0.00    +0.099 C 
ATOM      8  C   UNL     1       5.821   0.034  25.714  0.00  0.00    +0.231 C 
ATOM      9  O   UNL     1       4.905   0.743  25.306  0.00  0.00    -0.285 OA
ENDBRANCH   1   8
BRANCH   3  10
ATOM     10  C   UNL     1       7.545  -3.595  22.279  0.00  0.00    +0.077 C 
BRANCH  10  11
ATOM     11  C   UNL     1       7.627  -4.827  23.173  0.00  0.00    +0.178 C 
BRANCH  11  12
ATOM     12  O   UNL     1       8.755  -4.771  24.035  0.00  0.00    -0.286 OA
BRANCH  12  13
ATOM     13  P   UNL     1       8.359  -5.172  25.672  0.00  0.00    +0.483 P 
ATOM     14  O   UNL     1       8.635  -3.728  26.109  0.00  0.00    -0.227 OA
BRANCH  13  15
ATOM     15  O   UNL     1       9.782  -5.965  25.764  0.00  0.00    -0.302 OA
ATOM     16  H   UNL     1      10.277  -5.806  26.590  0.00  0.00    +0.222 HD
ENDBRANCH  13  15
BRANCH  13  17
ATOM     17  O   UNL     1       7.964  -5.573  27.307  0.00  0.00    -0.186 OA
BRANCH  17  18
ATOM     18  P   UNL     1       6.410  -5.599  27.633  0.00  0.00    +0.481 P 
ATOM     19  O   UNL     1       5.574  -6.649  26.986  0.00  0.00    -0.227 OA
BRANCH  18  20
ATOM     20  O   UNL     1       5.963  -4.103  27.303  0.00  0.00    -0.302 OA
ATOM     21  H   UNL     1       6.729  -3.609  26.948  0.00  0.00    +0.222 HD
ENDBRANCH  18  20
BRANCH  18  22
ATOM     22  O   UNL     1       6.369  -5.563  29.225  0.00  0.00    -0.302 OA
ATOM     23  H   UNL     1       6.890  -6.283  29.630  0.00  0.00    +0.222 HD
ENDBRANCH  18  22
ENDBRANCH  17  18
ENDBRANCH  13  17
ENDBRANCH  12  13
ENDBRANCH  11  12
ENDBRANCH  10  11
ENDBRANCH   3  10
BRANCH   6  24
ATOM     24  C   UNL     1       8.795   0.614  24.927  0.00  0.00    +0.399 C 
BRANCH  24  25
ATOM     25  C   UNL     1       8.481   1.901  24.228  0.00  0.00    +0.075 A 
ATOM     26  C   UNL     1       7.915   2.971  24.902  0.00  0.00    +0.129 A 
ATOM     27  N   UNL     1       7.809   2.996  26.289  0.00  0.00    -0.343 N 
ATOM     28  H   UNL     1       7.211   2.289  26.699  0.00  0.00    +0.144 HD
ATOM     29  H   UNL     1       7.424   3.917  26.525  0.00  0.00    +0.144 HD
ATOM     30  N   UNL     1       7.487   4.079  24.285  0.00  0.00    -0.218 NA
ATOM     31  C   UNL     1       7.641   4.152  22.953  0.00  0.00    +0.128 A 
ATOM     32  C   UNL     1       7.048   5.317  22.222  0.00  0.00    +0.088 C 
ATOM     33  N   UNL     1       8.286   3.226  22.231  0.00  0.00    -0.240 NA
ATOM     34  C   UNL     1       8.699   2.133  22.885  0.00  0.00    +0.126 A 
ENDBRANCH  24  25
ENDBRANCH   6  24
TORSDOF 12
ENDMDL
MODEL 9
REMARK VINA RESULT:      -6.4      4.982      8.287
REMARK  Name = 
REMARK  15 active torsions:
REMARK  status: ('A' for Active; 'I' for Inactive)
REMARK    1  A    between atoms: C_1  and  C_2
REMARK    2  A    between atoms: C_2  and  C_4
REMARK    3  A    between atoms: N_5  and  C_6
REMARK    4  A    between atoms: C_6  and  C_7
REMARK    5  A    between atoms: C_10  and  C_11
REMARK    6  A    between atoms: C_15  and  C_16
REMARK    7  A    between atoms: C_17  and  C_18
REMARK    8  A    between atoms: C_18  and  C_19
REMARK    9  A    between atoms: C_19  and  O_20
REMARK   10  A    between atoms: O_20  and  P_21
REMARK   11  A    between atoms: P_21  and  O_22
REMARK   12  A    between atoms: P_21  and  O_24
REMARK   13  A    between atoms: O_24  and  P_25
REMARK   14  A    between atoms: P_25  and  O_26
REMARK   15  A    between atoms: P_25  and  O_27
REMARK                            x       y       z     vdW  Elec       q    Type
REMARK                         _______ _______ _______ _____ _____    ______ ____
ROOT
ATOM      1  C   UNL     1       7.015   0.161  24.291  0.00  0.00    +0.290 A 
ATOM      2  S   UNL     1       7.217  -1.372  25.049  0.00  0.00    -0.016 S 
ATOM      3  C   UNL     1       8.319  -1.900  23.860  0.00  0.00    +0.064 A 
ATOM      4  C   UNL     1       8.451  -0.948  22.867  0.00  0.00    +0.192 A 
ATOM      5  C   UNL     1       9.322  -1.066  21.660  0.00  0.00    +0.123 C 
ATOM      6  N   UNL     1       7.706   0.216  23.148  0.00  0.00    -0.181 N 
ENDROOT
BRANCH   1   8
ATOM      7  C   UNL     1       6.647   1.950  26.087  0.00  0.00    +0.099 C 
ATOM      8  C   UNL     1       6.120   1.103  24.959  0.00  0.00    +0.231 C 
ATOM      9  O   UNL     1       4.923   1.159  24.691  0.00  0.00    -0.285 OA
ENDBRANCH   1   8
BRANCH   3  10
ATOM     10  C   UNL     1       9.028  -3.215  24.044  0.00  0.00    +0.077 C 
BRANCH  10  11
ATOM     11  C   UNL     1       8.023  -4.350  23.882  0.00  0.00    +0.178 C 
BRANCH  11  12
ATOM     12  O   UNL     1       7.456  -4.363  22.580  0.00  0.00    -0.286 OA
BRANCH  12  13
ATOM     13  P   UNL     1       5.752  -4.666  22.602  0.00  0.00    +0.483 P 
ATOM     14  O   UNL     1       5.472  -3.222  22.169  0.00  0.00    -0.227 OA
BRANCH  13  15
ATOM     15  O   UNL     1       5.827  -4.657  24.232  0.00  0.00    -0.302 OA
ATOM     16  H   UNL     1       5.229  -5.297  24.665  0.00  0.00    +0.222 HD
ENDBRANCH  13  15
BRANCH  13  17
ATOM     17  O   UNL     1       4.050  -4.971  22.625  0.00  0.00    -0.186 OA
BRANCH  17  18
ATOM     18  P   UNL     1       3.595  -6.158  23.578  0.00  0.00    +0.481 P 
ATOM     19  O   UNL     1       3.169  -5.822  24.965  0.00  0.00    -0.227 OA
BRANCH  18  20
ATOM     20  O   UNL     1       4.833  -7.162  23.492  0.00  0.00    -0.302 OA
ATOM     21  H   UNL     1       5.082  -7.286  22.555  0.00  0.00    +0.222 HD
ENDBRANCH  18  20
BRANCH  18  22
ATOM     22  O   UNL     1       2.528  -6.946  22.696  0.00  0.00    -0.302 OA
ATOM     23  H   UNL     1       2.119  -7.690  23.179  0.00  0.00    +0.222 HD
ENDBRANCH  18  22
ENDBRANCH  17  18
ENDBRANCH  13  17
ENDBRANCH  12  13
ENDBRANCH  11  12
ENDBRANCH  10  11
ENDBRANCH   3  10
BRANCH   6  24
ATOM     24  C   UNL     1       7.584   1.348  22.204  0.00  0.00    +0.399 C 
BRANCH  24  25
ATOM     25  C   UNL     1       8.091   2.644  22.759  0.00  0.00    +0.075 A 
ATOM     26  C   UNL     1       7.387   3.826  22.594  0.00  0.00    +0.129 A 
ATOM     27  N   UNL     1       6.084   3.846  22.105  0.00  0.00    -0.343 N 
ATOM     28  H   UNL     1       5.964   3.522  21.153  0.00  0.00    +0.144 HD
ATOM     29  H   UNL     1       5.782   4.825  22.151  0.00  0.00    +0.144 HD
ATOM     30  N   UNL     1       7.874   5.021  22.946  0.00  0.00    -0.218 NA
ATOM     31  C   UNL     1       9.095   5.059  23.504  0.00  0.00    +0.128 A 
ATOM     32  C   UNL     1       9.721   6.392  23.779  0.00  0.00    +0.088 C 
ATOM     33  N   UNL     1       9.800   3.963  23.817  0.00  0.00    -0.240 NA
ATOM     34  C   UNL     1       9.278   2.786  23.449  0.00  0.00    +0.126 A 
ENDBRANCH  24  25
ENDBRANCH   6  24
TORSDOF 12
ENDMDL
