MODEL 1
REMARK VINA RESULT:      -7.6      0.000      0.000
REMARK  Name = 
REMARK  4 active torsions:
REMARK  status: ('A' for Active; 'I' for Inactive)
REMARK    1  A    between atoms: O_1  and  N_2
REMARK    2  A    between atoms: C_8  and  C_12
REMARK    3  A    between atoms: N_14  and  C_23
REMARK    4  A    between atoms: C_16  and  C_17
REMARK                            x       y       z     vdW  Elec       q    Type
REMARK                         _______ _______ _______ _____ _____    ______ ____
ROOT
ATOM      1  C   UNL     1       8.157  -2.850  24.750  0.00  0.00    +0.027 A 
ATOM      2  C   UNL     1       8.133  -2.976  23.321  0.00  0.00    +0.100 A 
ATOM      3  N   UNL     1       8.922  -2.049  22.749  0.00  0.00    -0.170 NA
ATOM      4  N   UNL     1       9.423  -1.334  23.768  0.00  0.00    -0.267 N 
ATOM      5  C   UNL     1       8.953  -1.745  24.982  0.00  0.00    +0.117 A 
ENDROOT
BRANCH   1  11
ATOM      6  N   UNL     1       5.850  -6.824  29.483  0.00  0.00    -0.092 NA
ATOM      7  C   UNL     1       5.596  -5.682  28.929  0.00  0.00    +0.088 C 
ATOM      8  C   UNL     1       6.397  -5.118  27.858  0.00  0.00    +0.003 A 
ATOM      9  C   UNL     1       5.809  -3.920  27.469  0.00  0.00    -0.037 A 
ATOM     10  C   UNL     1       6.369  -3.174  26.441  0.00  0.00    +0.013 A 
ATOM     11  C   UNL     1       7.552  -3.626  25.826  0.00  0.00    -0.014 A 
ATOM     12  C   UNL     1       8.148  -4.824  26.279  0.00  0.00    +0.009 A 
ATOM     13  C   UNL     1       4.580  -3.593  28.254  0.00  0.00    +0.042 C 
ATOM     14  C   UNL     1       7.556  -5.596  27.284  0.00  0.00    +0.010 A 
ATOM     15  C   UNL     1       4.471  -4.734  29.274  0.00  0.00    +0.064 C 
BRANCH   6  16
ATOM     16  O   UNL     1       4.910  -7.097  30.485  0.00  0.00    -0.409 OA
ATOM     17  H   UNL     1       5.420  -6.928  31.299  0.00  0.00    +0.328 HD
ENDBRANCH   6  16
ENDBRANCH   1  11
BRANCH   4  18
ATOM     18  C   UNL     1      10.378  -0.247  23.546  0.00  0.00    +0.110 C 
ATOM     19  C   UNL     1      10.361   0.850  24.620  0.00  0.00    +0.042 C 
ATOM     20  C   UNL     1       9.121   1.739  24.515  0.00  0.00    +0.083 C 
ATOM     21  N   UNL     1       8.932   2.279  23.165  0.00  0.00    -0.316 NA
ATOM     22  H   UNL     1       8.045   2.785  23.144  0.00  0.00    +0.122 HD
ATOM     23  C   UNL     1       8.901   1.236  22.144  0.00  0.00    +0.083 C 
ATOM     24  C   UNL     1      10.181   0.408  22.170  0.00  0.00    +0.042 C 
ENDBRANCH   4  18
BRANCH   2  25
ATOM     25  C   UNL     1       7.395  -3.919  22.477  0.00  0.00    +0.006 A 
ATOM     26  C   UNL     1       7.626  -5.294  22.559  0.00  0.00    +0.030 A 
ATOM     27  C   UNL     1       6.923  -6.136  21.715  0.00  0.00    +0.111 A 
ATOM     28  N   UNL     1       6.000  -5.709  20.828  0.00  0.00    -0.263 NA
ATOM     29  C   UNL     1       5.764  -4.381  20.790  0.00  0.00    +0.111 A 
ATOM     30  C   UNL     1       6.430  -3.457  21.579  0.00  0.00    +0.030 A 
ENDBRANCH   2  25
TORSDOF 4
ENDMDL
MODEL 2
REMARK VINA RESULT:      -7.2      2.873      4.424
REMARK  Name = 
REMARK  4 active torsions:
REMARK  status: ('A' for Active; 'I' for Inactive)
REMARK    1  A    between atoms: O_1  and  N_2
REMARK    2  A    between atoms: C_8  and  C_12
REMARK    3  A    between atoms: N_14  and  C_23
REMARK    4  A    between atoms: C_16  and  C_17
REMARK                            x       y       z     vdW  Elec       q    Type
REMARK                         _______ _______ _______ _____ _____    ______ ____
ROOT
ATOM      1  C   UNL     1       7.605  -2.061  24.840  0.00  0.00    +0.027 A 
ATOM      2  C   UNL     1       7.462  -0.761  25.428  0.00  0.00    +0.100 A 
ATOM      3  N   UNL     1       8.438   0.062  25.005  0.00  0.00    -0.170 NA
ATOM      4  N   UNL     1       9.199  -0.684  24.189  0.00  0.00    -0.267 N 
ATOM      5  C   UNL     1       8.768  -1.976  24.100  0.00  0.00    +0.117 A 
ENDROOT
BRANCH   1  11
ATOM      6  N   UNL     1       3.856  -7.478  24.493  0.00  0.00    -0.092 NA
ATOM      7  C   UNL     1       4.479  -6.752  25.365  0.00  0.00    +0.088 C 
ATOM      8  C   UNL     1       5.248  -5.571  25.016  0.00  0.00    +0.003 A 
ATOM      9  C   UNL     1       5.728  -5.010  26.194  0.00  0.00    -0.037 A 
ATOM     10  C   UNL     1       6.489  -3.851  26.151  0.00  0.00    +0.013 A 
ATOM     11  C   UNL     1       6.798  -3.275  24.904  0.00  0.00    -0.014 A 
ATOM     12  C   UNL     1       6.334  -3.899  23.724  0.00  0.00    +0.009 A 
ATOM     13  C   UNL     1       5.321  -5.777  27.411  0.00  0.00    +0.042 C 
ATOM     14  C   UNL     1       5.529  -5.041  23.775  0.00  0.00    +0.010 A 
ATOM     15  C   UNL     1       4.541  -6.977  26.857  0.00  0.00    +0.064 C 
BRANCH   6  16
ATOM     16  O   UNL     1       3.209  -8.548  25.125  0.00  0.00    -0.409 OA
ATOM     17  H   UNL     1       3.959  -9.097  25.421  0.00  0.00    +0.328 HD
ENDBRANCH   6  16
ENDBRANCH   1  11
BRANCH   4  18
ATOM     18  C   UNL     1      10.351  -0.117  23.485  0.00  0.00    +0.110 C 
ATOM     19  C   UNL     1      10.603   1.372  23.762  0.00  0.00    +0.042 C 
ATOM     20  C   UNL     1       9.572   2.267  23.072  0.00  0.00    +0.083 C 
ATOM     21  N   UNL     1       9.450   1.980  21.640  0.00  0.00    -0.316 NA
ATOM     22  H   UNL     1       8.688   2.546  21.262  0.00  0.00    +0.122 HD
ATOM     23  C   UNL     1       9.166   0.573  21.373  0.00  0.00    +0.083 C 
ATOM     24  C   UNL     1      10.246  -0.325  21.966  0.00  0.00    +0.042 C 
ENDBRANCH   4  18
BRANCH   2  25
ATOM     25  C   UNL     1       6.458  -0.266  26.373  0.00  0.00    +0.006 A 
ATOM     26  C   UNL     1       5.094  -0.330  26.077  0.00  0.00    +0.030 A 
ATOM     27  C   UNL     1       4.192   0.182  26.993  0.00  0.00    +0.111 A 
ATOM     28  N   UNL     1       4.550   0.718  28.179  0.00  0.00    -0.263 NA
ATOM     29  C   UNL     1       5.868   0.736  28.463  0.00  0.00    +0.111 A 
ATOM     30  C   UNL     1       6.849   0.267  27.604  0.00  0.00    +0.030 A 
ENDBRANCH   2  25
TORSDOF 4
ENDMDL
MODEL 3
REMARK VINA RESULT:      -7.1      3.098      7.004
REMARK  Name = 
REMARK  4 active torsions:
REMARK  status: ('A' for Active; 'I' for Inactive)
REMARK    1  A    between atoms: O_1  and  N_2
REMARK    2  A    between atoms: C_8  and  C_12
REMARK    3  A    between atoms: N_14  and  C_23
REMARK    4  A    between atoms: C_16  and  C_17
REMARK                            x       y       z     vdW  Elec       q    Type
REMARK                         _______ _______ _______ _____ _____    ______ ____
ROOT
ATOM      1  C   UNL     1       7.267  -3.495  25.667  0.00  0.00    +0.027 A 
ATOM      2  C   UNL     1       6.571  -4.495  24.909  0.00  0.00    +0.100 A 
ATOM      3  N   UNL     1       6.050  -5.430  25.723  0.00  0.00    -0.170 NA
ATOM      4  N   UNL     1       6.412  -5.062  26.962  0.00  0.00    -0.267 N 
ATOM      5  C   UNL     1       7.185  -3.937  26.973  0.00  0.00    +0.117 A 
ENDROOT
BRANCH   1  11
ATOM      6  N   UNL     1      10.804   1.747  23.790  0.00  0.00    -0.092 NA
ATOM      7  C   UNL     1       9.680   1.457  24.364  0.00  0.00    +0.088 C 
ATOM      8  C   UNL     1       9.232   0.097  24.600  0.00  0.00    +0.003 A 
ATOM      9  C   UNL     1       8.022   0.156  25.282  0.00  0.00    -0.037 A 
ATOM     10  C   UNL     1       7.375  -1.015  25.650  0.00  0.00    +0.013 A 
ATOM     11  C   UNL     1       7.938  -2.255  25.295  0.00  0.00    -0.014 A 
ATOM     12  C   UNL     1       9.145  -2.277  24.561  0.00  0.00    +0.009 A 
ATOM     13  C   UNL     1       7.571   1.557  25.544  0.00  0.00    +0.042 C 
ATOM     14  C   UNL     1       9.818  -1.097  24.231  0.00  0.00    +0.010 A 
ATOM     15  C   UNL     1       8.643   2.429  24.876  0.00  0.00    +0.064 C 
BRANCH   6  16
ATOM     16  O   UNL     1      10.957   3.137  23.698  0.00  0.00    -0.409 OA
ATOM     17  H   UNL     1      11.032   3.400  24.634  0.00  0.00    +0.328 HD
ENDBRANCH   6  16
ENDBRANCH   1  11
BRANCH   4  18
ATOM     18  C   UNL     1       5.985  -5.816  28.142  0.00  0.00    +0.110 C 
ATOM     19  C   UNL     1       4.983  -6.945  27.853  0.00  0.00    +0.042 C 
ATOM     20  C   UNL     1       3.590  -6.406  27.528  0.00  0.00    +0.083 C 
ATOM     21  N   UNL     1       3.098  -5.472  28.545  0.00  0.00    -0.316 NA
ATOM     22  H   UNL     1       2.209  -5.085  28.224  0.00  0.00    +0.122 HD
ATOM     23  C   UNL     1       4.026  -4.372  28.791  0.00  0.00    +0.083 C 
ATOM     24  C   UNL     1       5.392  -4.895  29.220  0.00  0.00    +0.042 C 
ENDBRANCH   4  18
BRANCH   2  25
ATOM     25  C   UNL     1       6.387  -4.613  23.461  0.00  0.00    +0.006 A 
ATOM     26  C   UNL     1       5.878  -3.551  22.709  0.00  0.00    +0.030 A 
ATOM     27  C   UNL     1       5.695  -3.730  21.349  0.00  0.00    +0.111 A 
ATOM     28  N   UNL     1       6.007  -4.866  20.693  0.00  0.00    -0.263 NA
ATOM     29  C   UNL     1       6.534  -5.867  21.429  0.00  0.00    +0.111 A 
ATOM     30  C   UNL     1       6.736  -5.792  22.798  0.00  0.00    +0.030 A 
ENDBRANCH   2  25
TORSDOF 4
ENDMDL
MODEL 4
REMARK VINA RESULT:      -7.0      4.310      8.422
REMARK  Name = 
REMARK  4 active torsions:
REMARK  status: ('A' for Active; 'I' for Inactive)
REMARK    1  A    between atoms: O_1  and  N_2
REMARK    2  A    between atoms: C_8  and  C_12
REMARK    3  A    between atoms: N_14  and  C_23
REMARK    4  A    between atoms: C_16  and  C_17
REMARK                            x       y       z     vdW  Elec       q    Type
REMARK                         _______ _______ _______ _____ _____    ______ ____
ROOT
ATOM      1  C   UNL     1       7.909  -0.653  24.999  0.00  0.00    +0.027 A 
ATOM      2  C   UNL     1       6.970  -0.905  26.054  0.00  0.00    +0.100 A 
ATOM      3  N   UNL     1       6.549  -2.182  26.020  0.00  0.00    -0.170 NA
ATOM      4  N   UNL     1       7.174  -2.732  24.968  0.00  0.00    -0.267 N 
ATOM      5  C   UNL     1       7.960  -1.840  24.296  0.00  0.00    +0.117 A 
ENDROOT
BRANCH   1  11
ATOM      6  N   UNL     1      12.017   4.234  23.338  0.00  0.00    -0.092 NA
ATOM      7  C   UNL     1      10.775   4.038  23.649  0.00  0.00    +0.088 C 
ATOM      8  C   UNL     1      10.226   2.730  23.957  0.00  0.00    +0.003 A 
ATOM      9  C   UNL     1       8.889   2.897  24.298  0.00  0.00    -0.037 A 
ATOM     10  C   UNL     1       8.123   1.797  24.656  0.00  0.00    +0.013 A 
ATOM     11  C   UNL     1       8.703   0.515  24.634  0.00  0.00    -0.014 A 
ATOM     12  C   UNL     1      10.052   0.377  24.236  0.00  0.00    +0.009 A 
ATOM     13  C   UNL     1       8.447   4.323  24.236  0.00  0.00    +0.042 C 
ATOM     14  C   UNL     1      10.834   1.492  23.920  0.00  0.00    +0.010 A 
ATOM     15  C   UNL     1       9.686   5.081  23.740  0.00  0.00    +0.064 C 
BRANCH   6  16
ATOM     16  O   UNL     1      12.246   5.593  23.090  0.00  0.00    -0.409 OA
ATOM     17  H   UNL     1      12.440   5.600  22.135  0.00  0.00    +0.328 HD
ENDBRANCH   6  16
ENDBRANCH   1  11
BRANCH   4  18
ATOM     18  C   UNL     1       7.006  -4.147  24.630  0.00  0.00    +0.110 C 
ATOM     19  C   UNL     1       6.423  -5.010  25.758  0.00  0.00    +0.042 C 
ATOM     20  C   UNL     1       7.437  -5.260  26.874  0.00  0.00    +0.083 C 
ATOM     21  N   UNL     1       8.708  -5.789  26.368  0.00  0.00    -0.316 NA
ATOM     22  H   UNL     1       9.364  -5.848  27.148  0.00  0.00    +0.122 HD
ATOM     23  C   UNL     1       9.290  -4.948  25.327  0.00  0.00    +0.083 C 
ATOM     24  C   UNL     1       8.325  -4.778  24.158  0.00  0.00    +0.042 C 
ENDBRANCH   4  18
BRANCH   2  25
ATOM     25  C   UNL     1       6.449   0.001  27.080  0.00  0.00    +0.006 A 
ATOM     26  C   UNL     1       7.279   0.515  28.079  0.00  0.00    +0.030 A 
ATOM     27  C   UNL     1       6.726   1.342  29.041  0.00  0.00    +0.111 A 
ATOM     28  N   UNL     1       5.428   1.708  29.058  0.00  0.00    -0.263 NA
ATOM     29  C   UNL     1       4.650   1.233  28.064  0.00  0.00    +0.111 A 
ATOM     30  C   UNL     1       5.106   0.384  27.068  0.00  0.00    +0.030 A 
ENDBRANCH   2  25
TORSDOF 4
ENDMDL
MODEL 5
REMARK VINA RESULT:      -6.9      4.182      8.339
REMARK  Name = 
REMARK  4 active torsions:
REMARK  status: ('A' for Active; 'I' for Inactive)
REMARK    1  A    between atoms: O_1  and  N_2
REMARK    2  A    between atoms: C_8  and  C_12
REMARK    3  A    between atoms: N_14  and  C_23
REMARK    4  A    between atoms: C_16  and  C_17
REMARK                            x       y       z     vdW  Elec       q    Type
REMARK                         _______ _______ _______ _____ _____    ______ ____
ROOT
ATOM      1  C   UNL     1       8.342  -1.016  25.525  0.00  0.00    +0.027 A 
ATOM      2  C   UNL     1       7.336  -1.239  26.523  0.00  0.00    +0.100 A 
ATOM      3  N   UNL     1       7.126  -2.555  26.701  0.00  0.00    -0.170 NA
ATOM      4  N   UNL     1       7.950  -3.164  25.834  0.00  0.00    -0.267 N 
ATOM      5  C   UNL     1       8.660  -2.282  25.072  0.00  0.00    +0.117 A 
ENDROOT
BRANCH   1  11
ATOM      6  N   UNL     1      11.797   4.110  23.224  0.00  0.00    -0.092 NA
ATOM      7  C   UNL     1      10.593   3.801  23.584  0.00  0.00    +0.088 C 
ATOM      8  C   UNL     1      10.213   2.480  24.051  0.00  0.00    +0.003 A 
ATOM      9  C   UNL     1       8.869   2.521  24.404  0.00  0.00    -0.037 A 
ATOM     10  C   UNL     1       8.248   1.385  24.901  0.00  0.00    +0.013 A 
ATOM     11  C   UNL     1       8.982   0.189  25.011  0.00  0.00    -0.014 A 
ATOM     12  C   UNL     1      10.333   0.172  24.599  0.00  0.00    +0.009 A 
ATOM     13  C   UNL     1       8.252   3.866  24.191  0.00  0.00    +0.042 C 
ATOM     14  C   UNL     1      10.968   1.330  24.140  0.00  0.00    +0.010 A 
ATOM     15  C   UNL     1       9.384   4.707  23.583  0.00  0.00    +0.064 C 
BRANCH   6  16
ATOM     16  O   UNL     1      11.854   5.449  22.818  0.00  0.00    -0.409 OA
ATOM     17  H   UNL     1      12.811   5.637  22.854  0.00  0.00    +0.328 HD
ENDBRANCH   6  16
ENDBRANCH   1  11
BRANCH   4  18
ATOM     18  C   UNL     1       8.045  -4.624  25.762  0.00  0.00    +0.110 C 
ATOM     19  C   UNL     1       8.474  -5.172  24.393  0.00  0.00    +0.042 C 
ATOM     20  C   UNL     1       7.358  -5.060  23.354  0.00  0.00    +0.083 C 
ATOM     21  N   UNL     1       6.099  -5.649  23.819  0.00  0.00    -0.316 NA
ATOM     22  H   UNL     1       5.379  -5.462  23.119  0.00  0.00    +0.122 HD
ATOM     23  C   UNL     1       5.663  -5.099  25.099  0.00  0.00    +0.083 C 
ATOM     24  C   UNL     1       6.727  -5.299  26.172  0.00  0.00    +0.042 C 
ENDBRANCH   4  18
BRANCH   2  25
ATOM     25  C   UNL     1       6.562  -0.272  27.305  0.00  0.00    +0.006 A 
ATOM     26  C   UNL     1       5.174  -0.184  27.175  0.00  0.00    +0.030 A 
ATOM     27  C   UNL     1       4.498   0.771  27.915  0.00  0.00    +0.111 A 
ATOM     28  N   UNL     1       5.098   1.611  28.783  0.00  0.00    -0.263 NA
ATOM     29  C   UNL     1       6.434   1.485  28.923  0.00  0.00    +0.111 A 
ATOM     30  C   UNL     1       7.202   0.576  28.213  0.00  0.00    +0.030 A 
ENDBRANCH   2  25
TORSDOF 4
ENDMDL
MODEL 6
REMARK VINA RESULT:      -6.5      4.244      8.452
REMARK  Name = 
REMARK  4 active torsions:
REMARK  status: ('A' for Active; 'I' for Inactive)
REMARK    1  A    between atoms: O_1  and  N_2
REMARK    2  A    between atoms: C_8  and  C_12
REMARK    3  A    between atoms: N_14  and  C_23
REMARK    4  A    between atoms: C_16  and  C_17
REMARK                            x       y       z     vdW  Elec       q    Type
REMARK                         _______ _______ _______ _____ _____    ______ ____
ROOT
ATOM      1  C   UNL     1       6.915  -0.797  25.252  0.00  0.00    +0.027 A 
ATOM      2  C   UNL     1       5.982  -1.168  26.277  0.00  0.00    +0.100 A 
ATOM      3  N   UNL     1       5.803  -2.501  26.296  0.00  0.00    -0.170 NA
ATOM      4  N   UNL     1       6.573  -2.975  25.305  0.00  0.00    -0.267 N 
ATOM      5  C   UNL     1       7.218  -1.986  24.618  0.00  0.00    +0.117 A 
ENDROOT
BRANCH   1  11
ATOM      6  N   UNL     1       8.967   5.210  23.459  0.00  0.00    -0.092 NA
ATOM      7  C   UNL     1       9.432   4.020  23.670  0.00  0.00    +0.088 C 
ATOM      8  C   UNL     1       8.605   2.903  24.089  0.00  0.00    +0.003 A 
ATOM      9  C   UNL     1       9.414   1.776  24.164  0.00  0.00    -0.037 A 
ATOM     10  C   UNL     1       8.869   0.554  24.530  0.00  0.00    +0.013 A 
ATOM     11  C   UNL     1       7.502   0.478  24.857  0.00  0.00    -0.014 A 
ATOM     12  C   UNL     1       6.719   1.654  24.816  0.00  0.00    +0.009 A 
ATOM     13  C   UNL     1      10.839   2.058  23.809  0.00  0.00    +0.042 C 
ATOM     14  C   UNL     1       7.262   2.875  24.403  0.00  0.00    +0.010 A 
ATOM     15  C   UNL     1      10.868   3.569  23.541  0.00  0.00    +0.064 C 
BRANCH   6  16
ATOM     16  O   UNL     1      10.001   6.073  23.072  0.00  0.00    -0.409 OA
ATOM     17  H   UNL     1      10.053   6.687  23.828  0.00  0.00    +0.328 HD
ENDBRANCH   6  16
ENDBRANCH   1  11
BRANCH   4  18
ATOM     18  C   UNL     1       6.683  -4.411  25.039  0.00  0.00    +0.110 C 
ATOM     19  C   UNL     1       5.934  -5.307  26.036  0.00  0.00    +0.042 C 
ATOM     20  C   UNL     1       6.637  -5.368  27.393  0.00  0.00    +0.083 C 
ATOM     21  N   UNL     1       8.053  -5.730  27.274  0.00  0.00    -0.316 NA
ATOM     22  H   UNL     1       8.479  -5.665  28.200  0.00  0.00    +0.122 HD
ATOM     23  C   UNL     1       8.780  -4.853  26.361  0.00  0.00    +0.083 C 
ATOM     24  C   UNL     1       8.150  -4.864  24.973  0.00  0.00    +0.042 C 
ENDBRANCH   4  18
BRANCH   2  25
ATOM     25  C   UNL     1       5.251  -0.326  27.227  0.00  0.00    +0.006 A 
ATOM     26  C   UNL     1       3.860  -0.210  27.166  0.00  0.00    +0.030 A 
ATOM     27  C   UNL     1       3.224   0.625  28.068  0.00  0.00    +0.111 A 
ATOM     28  N   UNL     1       3.868   1.318  29.031  0.00  0.00    -0.263 NA
ATOM     29  C   UNL     1       5.206   1.163  29.098  0.00  0.00    +0.111 A 
ATOM     30  C   UNL     1       5.935   0.367  28.228  0.00  0.00    +0.030 A 
ENDBRANCH   2  25
TORSDOF 4
ENDMDL
MODEL 7
REMARK VINA RESULT:      -6.5      3.399      7.190
REMARK  Name = 
REMARK  4 active torsions:
REMARK  status: ('A' for Active; 'I' for Inactive)
REMARK    1  A    between atoms: O_1  and  N_2
REMARK    2  A    between atoms: C_8  and  C_12
REMARK    3  A    between atoms: N_14  and  C_23
REMARK    4  A    between atoms: C_16  and  C_17
REMARK                            x       y       z     vdW  Elec       q    Type
REMARK                         _______ _______ _______ _____ _____    ______ ____
ROOT
ATOM      1  C   UNL     1       6.679  -2.502  25.591  0.00  0.00    +0.027 A 
ATOM      2  C   UNL     1       6.175  -3.725  25.035  0.00  0.00    +0.100 A 
ATOM      3  N   UNL     1       5.430  -4.386  25.938  0.00  0.00    -0.170 NA
ATOM      4  N   UNL     1       5.468  -3.632  27.047  0.00  0.00    -0.267 N 
ATOM      5  C   UNL     1       6.246  -2.519  26.903  0.00  0.00    +0.117 A 
ENDROOT
BRANCH   1  11
ATOM      6  N   UNL     1      10.653   2.349  23.545  0.00  0.00    -0.092 NA
ATOM      7  C   UNL     1       9.501   1.824  23.275  0.00  0.00    +0.088 C 
ATOM      8  C   UNL     1       8.952   0.689  23.995  0.00  0.00    +0.003 A 
ATOM      9  C   UNL     1       7.687   0.429  23.483  0.00  0.00    -0.037 A 
ATOM     10  C   UNL     1       6.926  -0.606  24.008  0.00  0.00    +0.013 A 
ATOM     11  C   UNL     1       7.463  -1.406  25.034  0.00  0.00    -0.014 A 
ATOM     12  C   UNL     1       8.771  -1.142  25.498  0.00  0.00    +0.009 A 
ATOM     13  C   UNL     1       7.302   1.363  22.381  0.00  0.00    +0.042 C 
ATOM     14  C   UNL     1       9.517  -0.070  24.998  0.00  0.00    +0.010 A 
ATOM     15  C   UNL     1       8.537   2.255  22.195  0.00  0.00    +0.064 C 
BRANCH   6  16
ATOM     16  O   UNL     1      10.912   3.421  22.682  0.00  0.00    -0.409 OA
ATOM     17  H   UNL     1      11.241   2.969  21.882  0.00  0.00    +0.328 HD
ENDBRANCH   6  16
ENDBRANCH   1  11
BRANCH   4  18
ATOM     18  C   UNL     1       4.724  -4.003  28.253  0.00  0.00    +0.110 C 
ATOM     19  C   UNL     1       3.708  -5.137  28.056  0.00  0.00    +0.042 C 
ATOM     20  C   UNL     1       2.476  -4.675  27.276  0.00  0.00    +0.083 C 
ATOM     21  N   UNL     1       1.865  -3.474  27.855  0.00  0.00    -0.316 NA
ATOM     22  H   UNL     1       1.108  -3.171  27.240  0.00  0.00    +0.122 HD
ATOM     23  C   UNL     1       2.817  -2.378  28.003  0.00  0.00    +0.083 C 
ATOM     24  C   UNL     1       4.001  -2.795  28.868  0.00  0.00    +0.042 C 
ENDBRANCH   4  18
BRANCH   2  25
ATOM     25  C   UNL     1       6.371  -4.297  23.701  0.00  0.00    +0.006 A 
ATOM     26  C   UNL     1       5.693  -3.790  22.591  0.00  0.00    +0.030 A 
ATOM     27  C   UNL     1       5.893  -4.390  21.360  0.00  0.00    +0.111 A 
ATOM     28  N   UNL     1       6.732  -5.427  21.159  0.00  0.00    -0.263 NA
ATOM     29  C   UNL     1       7.407  -5.879  22.236  0.00  0.00    +0.111 A 
ATOM     30  C   UNL     1       7.260  -5.358  23.512  0.00  0.00    +0.030 A 
ENDBRANCH   2  25
TORSDOF 4
ENDMDL
MODEL 8
REMARK VINA RESULT:      -6.4      1.334      1.953
REMARK  Name = 
REMARK  4 active torsions:
REMARK  status: ('A' for Active; 'I' for Inactive)
REMARK    1  A    between atoms: O_1  and  N_2
REMARK    2  A    between atoms: C_8  and  C_12
REMARK    3  A    between atoms: N_14  and  C_23
REMARK    4  A    between atoms: C_16  and  C_17
REMARK                            x       y       z     vdW  Elec       q    Type
REMARK                         _______ _______ _______ _____ _____    ______ ____
ROOT
ATOM      1  C   UNL     1       7.047  -2.119  25.099  0.00  0.00    +0.027 A 
ATOM      2  C   UNL     1       7.489  -2.477  23.782  0.00  0.00    +0.100 A 
ATOM      3  N   UNL     1       8.304  -1.532  23.281  0.00  0.00    -0.170 NA
ATOM      4  N   UNL     1       8.371  -0.584  24.229  0.00  0.00    -0.267 N 
ATOM      5  C   UNL     1       7.594  -0.869  25.315  0.00  0.00    +0.117 A 
ENDROOT
BRANCH   1  11
ATOM      6  N   UNL     1       2.939  -4.708  29.564  0.00  0.00    -0.092 NA
ATOM      7  C   UNL     1       4.080  -4.950  29.001  0.00  0.00    +0.088 C 
ATOM      8  C   UNL     1       4.673  -4.087  27.996  0.00  0.00    +0.003 A 
ATOM      9  C   UNL     1       5.912  -4.615  27.655  0.00  0.00    -0.037 A 
ATOM     10  C   UNL     1       6.706  -3.971  26.717  0.00  0.00    +0.013 A 
ATOM     11  C   UNL     1       6.228  -2.803  26.093  0.00  0.00    -0.014 A 
ATOM     12  C   UNL     1       4.944  -2.321  26.429  0.00  0.00    +0.009 A 
ATOM     13  C   UNL     1       6.233  -5.871  28.399  0.00  0.00    +0.042 C 
ATOM     14  C   UNL     1       4.165  -2.947  27.408  0.00  0.00    +0.010 A 
ATOM     15  C   UNL     1       4.984  -6.133  29.251  0.00  0.00    +0.064 C 
BRANCH   6  16
ATOM     16  O   UNL     1       2.629  -5.718  30.484  0.00  0.00    -0.409 OA
ATOM     17  H   UNL     1       1.852  -6.141  30.073  0.00  0.00    +0.328 HD
ENDBRANCH   6  16
ENDBRANCH   1  11
BRANCH   4  18
ATOM     18  C   UNL     1       9.214   0.602  24.069  0.00  0.00    +0.110 C 
ATOM     19  C   UNL     1       8.443   1.907  23.821  0.00  0.00    +0.042 C 
ATOM     20  C   UNL     1       7.857   1.969  22.410  0.00  0.00    +0.083 C 
ATOM     21  N   UNL     1       8.862   1.711  21.374  0.00  0.00    -0.316 NA
ATOM     22  H   UNL     1       8.389   1.679  20.470  0.00  0.00    +0.122 HD
ATOM     23  C   UNL     1       9.566   0.449  21.580  0.00  0.00    +0.083 C 
ATOM     24  C   UNL     1      10.245   0.418  22.945  0.00  0.00    +0.042 C 
ENDBRANCH   4  18
BRANCH   2  25
ATOM     25  C   UNL     1       7.170  -3.658  22.977  0.00  0.00    +0.006 A 
ATOM     26  C   UNL     1       7.733  -4.903  23.268  0.00  0.00    +0.030 A 
ATOM     27  C   UNL     1       7.421  -5.978  22.454  0.00  0.00    +0.111 A 
ATOM     28  N   UNL     1       6.577  -5.904  21.404  0.00  0.00    -0.263 NA
ATOM     29  C   UNL     1       6.014  -4.702  21.162  0.00  0.00    +0.111 A 
ATOM     30  C   UNL     1       6.278  -3.563  21.906  0.00  0.00    +0.030 A 
ENDBRANCH   2  25
TORSDOF 4
ENDMDL
MODEL 9
REMARK VINA RESULT:      -6.3      4.078      7.130
REMARK  Name = 
REMARK  4 active torsions:
REMARK  status: ('A' for Active; 'I' for Inactive)
REMARK    1  A    between atoms: O_1  and  N_2
REMARK    2  A    between atoms: C_8  and  C_12
REMARK    3  A    between atoms: N_14  and  C_23
REMARK    4  A    between atoms: C_16  and  C_17
REMARK                            x       y       z     vdW  Elec       q    Type
REMARK                         _______ _______ _______ _____ _____    ______ ____
ROOT
ATOM      1  C   UNL     1       6.868  -1.014  24.764  0.00  0.00    +0.027 A 
ATOM      2  C   UNL     1       8.135  -1.033  24.092  0.00  0.00    +0.100 A 
ATOM      3  N   UNL     1       8.560  -2.296  23.914  0.00  0.00    -0.170 NA
ATOM      4  N   UNL     1       7.614  -3.069  24.469  0.00  0.00    -0.267 N 
ATOM      5  C   UNL     1       6.606  -2.343  25.037  0.00  0.00    +0.117 A 
ENDROOT
BRANCH   1  11
ATOM      6  N   UNL     1       2.541   3.473  26.920  0.00  0.00    -0.092 NA
ATOM      7  C   UNL     1       3.372   3.278  25.947  0.00  0.00    +0.088 C 
ATOM      8  C   UNL     1       4.200   2.091  25.831  0.00  0.00    +0.003 A 
ATOM      9  C   UNL     1       4.922   2.187  24.647  0.00  0.00    -0.037 A 
ATOM     10  C   UNL     1       5.789   1.169  24.279  0.00  0.00    +0.013 A 
ATOM     11  C   UNL     1       5.954   0.061  25.132  0.00  0.00    -0.014 A 
ATOM     12  C   UNL     1       5.241   0.019  26.350  0.00  0.00    +0.009 A 
ATOM     13  C   UNL     1       4.635   3.445  23.891  0.00  0.00    +0.042 C 
ATOM     14  C   UNL     1       4.333   1.026  26.697  0.00  0.00    +0.010 A 
ATOM     15  C   UNL     1       3.649   4.206  24.788  0.00  0.00    +0.064 C 
BRANCH   6  16
ATOM     16  O   UNL     1       1.891   4.704  26.764  0.00  0.00    -0.409 OA
ATOM     17  H   UNL     1       1.025   4.537  27.179  0.00  0.00    +0.328 HD
ENDBRANCH   6  16
ENDBRANCH   1  11
BRANCH   4  18
ATOM     18  C   UNL     1       7.697  -4.530  24.432  0.00  0.00    +0.110 C 
ATOM     19  C   UNL     1       6.589  -5.255  25.210  0.00  0.00    +0.042 C 
ATOM     20  C   UNL     1       6.785  -5.149  26.723  0.00  0.00    +0.083 C 
ATOM     21  N   UNL     1       8.126  -5.566  27.145  0.00  0.00    -0.316 NA
ATOM     22  H   UNL     1       8.218  -5.387  28.146  0.00  0.00    +0.122 HD
ATOM     23  C   UNL     1       9.183  -4.848  26.440  0.00  0.00    +0.083 C 
ATOM     24  C   UNL     1       9.060  -5.033  24.932  0.00  0.00    +0.042 C 
ENDBRANCH   4  18
BRANCH   2  25
ATOM     25  C   UNL     1       8.962   0.081  23.623  0.00  0.00    +0.006 A 
ATOM     26  C   UNL     1       9.729   0.836  24.513  0.00  0.00    +0.030 A 
ATOM     27  C   UNL     1      10.467   1.897  24.018  0.00  0.00    +0.111 A 
ATOM     28  N   UNL     1      10.514   2.234  22.713  0.00  0.00    -0.263 NA
ATOM     29  C   UNL     1       9.797   1.470  21.863  0.00  0.00    +0.111 A 
ATOM     30  C   UNL     1       9.012   0.401  22.264  0.00  0.00    +0.030 A 
ENDBRANCH   2  25
TORSDOF 4
ENDMDL
