MODEL 1
REMARK VINA RESULT:      -6.9      0.000      0.000
REMARK  Name = 
REMARK  19 active torsions:
REMARK  status: ('A' for Active; 'I' for Inactive)
REMARK    1  A    between atoms: C_1  and  C_2
REMARK    2  A    between atoms: C_2  and  C_3
REMARK    3  A    between atoms: C_2  and  C_4
REMARK    4  A    between atoms: C_4  and  C_5
REMARK    5  A    between atoms: C_5  and  N_7
REMARK    6  A    between atoms: C_5  and  C_18
REMARK    7  A    between atoms: C_8  and  O_10
REMARK    8  A    between atoms: O_10  and  C_11
REMARK    9  A    between atoms: C_11  and  C_12
REMARK   10  A    between atoms: N_20  and  C_21
REMARK   11  A    between atoms: C_28  and  C_30
REMARK   12  A    between atoms: C_30  and  C_32
REMARK   13  A    between atoms: C_30  and  N_36
REMARK   14  A    between atoms: C_32  and  C_33
REMARK   15  A    between atoms: C_33  and  C_34
REMARK   16  A    between atoms: C_33  and  C_35
REMARK   17  A    between atoms: C_37  and  O_39
REMARK   18  A    between atoms: O_39  and  C_40
REMARK   19  A    between atoms: C_40  and  C_41
REMARK                            x       y       z     vdW  Elec       q    Type
REMARK                         _______ _______ _______ _____ _____    ______ ____
ROOT
ATOM      1  C   UNL     1       9.557  -1.279  24.214  0.00  0.00    +0.158 C 
ATOM      2  C   UNL     1      10.207  -1.016  22.853  0.00  0.00    +0.172 C 
ATOM      3  O   UNL     1      10.833  -1.871  22.227  0.00  0.00    -0.294 OA
ATOM      4  C   UNL     1      10.055   0.425  22.380  0.00  0.00    +0.184 C 
ATOM      5  N   UNL     1       9.016   0.920  23.274  0.00  0.00    -0.291 N 
ATOM      6  C   UNL     1       8.052   1.827  22.803  0.00  0.00    +0.236 C 
ATOM      7  O   UNL     1       8.138   2.315  21.670  0.00  0.00    -0.274 OA
ATOM      8  C   UNL     1       9.050   0.160  24.540  0.00  0.00    +0.138 C 
ENDROOT
BRANCH   1  10
ATOM      9  C   UNL     1       8.881  -3.734  24.297  0.00  0.00    +0.234 C 
ATOM     10  N   UNL     1       8.578  -2.396  24.102  0.00  0.00    -0.303 N 
ATOM     11  H   UNL     1       7.675  -2.142  24.491  0.00  0.00    +0.150 HD
ATOM     12  O   UNL     1      10.037  -4.084  24.536  0.00  0.00    -0.274 OA
BRANCH   9  13
ATOM     13  C   UNL     1       7.650  -4.780  24.346  0.00  0.00    +0.162 C 
BRANCH  13  14
ATOM     14  N   UNL     1       7.642  -5.505  25.673  0.00  0.00    -0.270 N 
ATOM     15  H   UNL     1       7.823  -6.500  25.604  0.00  0.00    +0.153 HD
ATOM     16  C   UNL     1       7.558  -5.046  26.980  0.00  0.00    +0.401 C 
ATOM     17  O   UNL     1       7.517  -3.888  27.320  0.00  0.00    -0.226 OA
BRANCH  16  18
ATOM     18  O   UNL     1       7.375  -6.053  27.881  0.00  0.00    -0.446 OA
BRANCH  18  19
ATOM     19  C   UNL     1       6.087  -6.169  28.587  0.00  0.00    +0.269 C 
BRANCH  19  20
ATOM     20  C   UNL     1       4.760  -6.452  27.939  0.00  0.00    -0.010 A 
ATOM     21  C   UNL     1       3.663  -6.608  28.794  0.00  0.00    +0.007 A 
ATOM     22  C   UNL     1       2.420  -6.974  28.281  0.00  0.00    +0.000 A 
ATOM     23  C   UNL     1       2.257  -7.176  26.920  0.00  0.00    +0.000 A 
ATOM     24  C   UNL     1       3.349  -7.029  26.039  0.00  0.00    +0.000 A 
ATOM     25  C   UNL     1       4.597  -6.696  26.556  0.00  0.00    +0.007 A 
ENDBRANCH  19  20
ENDBRANCH  18  19
ENDBRANCH  16  18
ENDBRANCH  13  14
BRANCH  13  26
ATOM     26  C   UNL     1       7.627  -5.544  22.961  0.00  0.00    +0.035 C 
BRANCH  26  28
ATOM     27  C   UNL     1       5.081  -5.445  23.064  0.00  0.00    +0.007 C 
ATOM     28  C   UNL     1       6.291  -6.003  22.331  0.00  0.00    -0.015 C 
ATOM     29  C   UNL     1       6.178  -5.770  20.817  0.00  0.00    +0.007 C 
ENDBRANCH  26  28
ENDBRANCH  13  26
ENDBRANCH   9  13
ENDBRANCH   1  10
BRANCH   6  30
ATOM     30  C   UNL     1       6.769   2.090  23.681  0.00  0.00    +0.162 C 
BRANCH  30  31
ATOM     31  N   UNL     1       6.023   0.854  23.811  0.00  0.00    -0.270 N 
ATOM     32  H   UNL     1       5.526   0.433  23.048  0.00  0.00    +0.153 HD
ATOM     33  C   UNL     1       5.585   0.347  24.965  0.00  0.00    +0.401 C 
ATOM     34  O   UNL     1       5.687   0.823  26.065  0.00  0.00    -0.226 OA
BRANCH  33  35
ATOM     35  O   UNL     1       5.195  -0.913  24.761  0.00  0.00    -0.446 OA
BRANCH  35  36
ATOM     36  C   UNL     1       5.443  -1.661  25.955  0.00  0.00    +0.269 C 
BRANCH  36  37
ATOM     37  C   UNL     1       4.283  -2.556  26.347  0.00  0.00    -0.010 A 
ATOM     38  C   UNL     1       4.021  -2.797  27.694  0.00  0.00    +0.007 A 
ATOM     39  C   UNL     1       2.762  -3.191  28.133  0.00  0.00    +0.000 A 
ATOM     40  C   UNL     1       1.799  -3.495  27.196  0.00  0.00    +0.000 A 
ATOM     41  C   UNL     1       2.171  -3.594  25.857  0.00  0.00    +0.000 A 
ATOM     42  C   UNL     1       3.416  -3.128  25.427  0.00  0.00    +0.007 A 
ENDBRANCH  36  37
ENDBRANCH  35  36
ENDBRANCH  33  35
ENDBRANCH  30  31
BRANCH  30  43
ATOM     43  C   UNL     1       5.747   3.069  23.050  0.00  0.00    +0.035 C 
BRANCH  43  44
ATOM     44  C   UNL     1       5.926   4.536  23.557  0.00  0.00    -0.015 C 
ATOM     45  C   UNL     1       6.697   5.412  22.572  0.00  0.00    +0.007 C 
ATOM     46  C   UNL     1       6.584   4.594  24.935  0.00  0.00    +0.007 C 
ENDBRANCH  43  44
ENDBRANCH  30  43
ENDBRANCH   6  30
TORSDOF 15
ENDMDL
MODEL 2
REMARK VINA RESULT:      -6.8      2.435      6.199
REMARK  Name = 
REMARK  19 active torsions:
REMARK  status: ('A' for Active; 'I' for Inactive)
REMARK    1  A    between atoms: C_1  and  C_2
REMARK    2  A    between atoms: C_2  and  C_3
REMARK    3  A    between atoms: C_2  and  C_4
REMARK    4  A    between atoms: C_4  and  C_5
REMARK    5  A    between atoms: C_5  and  N_7
REMARK    6  A    between atoms: C_5  and  C_18
REMARK    7  A    between atoms: C_8  and  O_10
REMARK    8  A    between atoms: O_10  and  C_11
REMARK    9  A    between atoms: C_11  and  C_12
REMARK   10  A    between atoms: N_20  and  C_21
REMARK   11  A    between atoms: C_28  and  C_30
REMARK   12  A    between atoms: C_30  and  C_32
REMARK   13  A    between atoms: C_30  and  N_36
REMARK   14  A    between atoms: C_32  and  C_33
REMARK   15  A    between atoms: C_33  and  C_34
REMARK   16  A    between atoms: C_33  and  C_35
REMARK   17  A    between atoms: C_37  and  O_39
REMARK   18  A    between atoms: O_39  and  C_40
REMARK   19  A    between atoms: C_40  and  C_41
REMARK                            x       y       z     vdW  Elec       q    Type
REMARK                         _______ _______ _______ _____ _____    ______ ____
ROOT
ATOM      1  C   UNL     1       3.460  -1.297  28.062  0.00  0.00    +0.158 C 
ATOM      2  C   UNL     1       3.961  -1.294  29.509  0.00  0.00    +0.172 C 
ATOM      3  O   UNL     1       3.719  -2.197  30.309  0.00  0.00    -0.294 OA
ATOM      4  C   UNL     1       4.736  -0.034  29.876  0.00  0.00    +0.184 C 
ATOM      5  N   UNL     1       5.006   0.539  28.564  0.00  0.00    -0.291 N 
ATOM      6  C   UNL     1       6.224   1.193  28.315  0.00  0.00    +0.236 C 
ATOM      7  O   UNL     1       7.031   1.403  29.229  0.00  0.00    -0.274 OA
ATOM      8  C   UNL     1       3.960   0.112  27.613  0.00  0.00    +0.138 C 
ENDROOT
BRANCH   1  10
ATOM      9  C   UNL     1       3.386  -3.045  26.210  0.00  0.00    +0.234 C 
ATOM     10  N   UNL     1       3.954  -2.512  27.356  0.00  0.00    -0.303 N 
ATOM     11  H   UNL     1       4.969  -2.547  27.339  0.00  0.00    +0.150 HD
ATOM     12  O   UNL     1       2.371  -2.545  25.726  0.00  0.00    -0.274 OA
BRANCH   9  13
ATOM     13  C   UNL     1       4.185  -4.235  25.464  0.00  0.00    +0.162 C 
BRANCH  13  14
ATOM     14  N   UNL     1       5.673  -4.064  25.666  0.00  0.00    -0.270 N 
ATOM     15  H   UNL     1       6.013  -3.127  25.476  0.00  0.00    +0.153 HD
ATOM     16  C   UNL     1       6.643  -4.911  26.182  0.00  0.00    +0.401 C 
ATOM     17  O   UNL     1       6.447  -6.010  26.641  0.00  0.00    -0.226 OA
BRANCH  16  18
ATOM     18  O   UNL     1       7.909  -4.440  25.994  0.00  0.00    -0.446 OA
BRANCH  18  19
ATOM     19  C   UNL     1       8.517  -4.513  24.655  0.00  0.00    +0.269 C 
BRANCH  19  20
ATOM     20  C   UNL     1       7.765  -4.678  23.363  0.00  0.00    -0.010 A 
ATOM     21  C   UNL     1       7.188  -3.525  22.820  0.00  0.00    +0.007 A 
ATOM     22  C   UNL     1       6.388  -3.610  21.681  0.00  0.00    +0.000 A 
ATOM     23  C   UNL     1       6.168  -4.834  21.071  0.00  0.00    +0.000 A 
ATOM     24  C   UNL     1       6.736  -6.011  21.604  0.00  0.00    +0.000 A 
ATOM     25  C   UNL     1       7.506  -5.930  22.759  0.00  0.00    +0.007 A 
ENDBRANCH  19  20
ENDBRANCH  18  19
ENDBRANCH  16  18
ENDBRANCH  13  14
BRANCH  13  26
ATOM     26  C   UNL     1       3.536  -4.410  24.032  0.00  0.00    +0.035 C 
BRANCH  26  28
ATOM     27  C   UNL     1       4.079  -6.895  24.213  0.00  0.00    +0.007 C 
ATOM     28  C   UNL     1       3.419  -5.808  23.379  0.00  0.00    -0.015 C 
ATOM     29  C   UNL     1       1.994  -6.211  22.970  0.00  0.00    +0.007 C 
ENDBRANCH  26  28
ENDBRANCH  13  26
ENDBRANCH   9  13
ENDBRANCH   1  10
BRANCH   6  30
ATOM     30  C   UNL     1       6.621   1.510  26.823  0.00  0.00    +0.162 C 
BRANCH  30  31
ATOM     31  N   UNL     1       7.831   0.786  26.491  0.00  0.00    -0.270 N 
ATOM     32  H   UNL     1       8.708   1.241  26.312  0.00  0.00    +0.153 HD
ATOM     33  C   UNL     1       7.868  -0.459  26.013  0.00  0.00    +0.401 C 
ATOM     34  O   UNL     1       6.937  -1.171  25.742  0.00  0.00    -0.226 OA
BRANCH  33  35
ATOM     35  O   UNL     1       9.122  -0.912  26.085  0.00  0.00    -0.446 OA
BRANCH  35  36
ATOM     36  C   UNL     1       9.530  -1.317  24.775  0.00  0.00    +0.269 C 
BRANCH  36  37
ATOM     37  C   UNL     1      10.028  -0.163  23.925  0.00  0.00    -0.010 A 
ATOM     38  C   UNL     1       9.662  -0.086  22.583  0.00  0.00    +0.007 A 
ATOM     39  C   UNL     1       9.674   1.119  21.892  0.00  0.00    +0.000 A 
ATOM     40  C   UNL     1      10.206   2.231  22.509  0.00  0.00    +0.000 A 
ATOM     41  C   UNL     1      10.890   2.070  23.712  0.00  0.00    +0.000 A 
ATOM     42  C   UNL     1      10.807   0.870  24.423  0.00  0.00    +0.007 A 
ENDBRANCH  36  37
ENDBRANCH  35  36
ENDBRANCH  33  35
ENDBRANCH  30  31
BRANCH  30  43
ATOM     43  C   UNL     1       6.995   2.990  26.557  0.00  0.00    +0.035 C 
BRANCH  43  44
ATOM     44  C   UNL     1       7.771   3.183  25.215  0.00  0.00    -0.015 C 
ATOM     45  C   UNL     1       8.493   4.526  25.137  0.00  0.00    +0.007 C 
ATOM     46  C   UNL     1       6.868   3.003  23.995  0.00  0.00    +0.007 C 
ENDBRANCH  43  44
ENDBRANCH  30  43
ENDBRANCH   6  30
TORSDOF 15
ENDMDL
MODEL 3
REMARK VINA RESULT:      -6.5      1.647      2.185
REMARK  Name = 
REMARK  19 active torsions:
REMARK  status: ('A' for Active; 'I' for Inactive)
REMARK    1  A    between atoms: C_1  and  C_2
REMARK    2  A    between atoms: C_2  and  C_3
REMARK    3  A    between atoms: C_2  and  C_4
REMARK    4  A    between atoms: C_4  and  C_5
REMARK    5  A    between atoms: C_5  and  N_7
REMARK    6  A    between atoms: C_5  and  C_18
REMARK    7  A    between atoms: C_8  and  O_10
REMARK    8  A    between atoms: O_10  and  C_11
REMARK    9  A    between atoms: C_11  and  C_12
REMARK   10  A    between atoms: N_20  and  C_21
REMARK   11  A    between atoms: C_28  and  C_30
REMARK   12  A    between atoms: C_30  and  C_32
REMARK   13  A    between atoms: C_30  and  N_36
REMARK   14  A    between atoms: C_32  and  C_33
REMARK   15  A    between atoms: C_33  and  C_34
REMARK   16  A    between atoms: C_33  and  C_35
REMARK   17  A    between atoms: C_37  and  O_39
REMARK   18  A    between atoms: O_39  and  C_40
REMARK   19  A    between atoms: C_40  and  C_41
REMARK                            x       y       z     vdW  Elec       q    Type
REMARK                         _______ _______ _______ _____ _____    ______ ____
ROOT
ATOM      1  C   UNL     1       9.712  -1.424  24.741  0.00  0.00    +0.158 C 
ATOM      2  C   UNL     1      10.002  -0.706  23.421  0.00  0.00    +0.172 C 
ATOM      3  O   UNL     1      10.422  -1.280  22.418  0.00  0.00    -0.294 OA
ATOM      4  C   UNL     1       9.776   0.800  23.491  0.00  0.00    +0.184 C 
ATOM      5  N   UNL     1       9.013   0.926  24.725  0.00  0.00    -0.291 N 
ATOM      6  C   UNL     1       7.988   1.882  24.829  0.00  0.00    +0.236 C 
ATOM      7  O   UNL     1       7.797   2.709  23.930  0.00  0.00    -0.274 OA
ATOM      8  C   UNL     1       9.345  -0.194  25.629  0.00  0.00    +0.138 C 
ENDROOT
BRANCH   1  10
ATOM      9  C   UNL     1       8.998  -3.851  24.434  0.00  0.00    +0.234 C 
ATOM     10  N   UNL     1       8.704  -2.500  24.524  0.00  0.00    -0.303 N 
ATOM     11  H   UNL     1       7.849  -2.322  25.043  0.00  0.00    +0.150 HD
ATOM     12  O   UNL     1      10.165  -4.240  24.485  0.00  0.00    -0.274 OA
BRANCH   9  13
ATOM     13  C   UNL     1       7.758  -4.886  24.414  0.00  0.00    +0.162 C 
BRANCH  13  14
ATOM     14  N   UNL     1       7.674  -5.617  25.735  0.00  0.00    -0.270 N 
ATOM     15  H   UNL     1       7.872  -6.610  25.673  0.00  0.00    +0.153 HD
ATOM     16  C   UNL     1       7.500  -5.166  27.035  0.00  0.00    +0.401 C 
ATOM     17  O   UNL     1       7.422  -4.011  27.376  0.00  0.00    -0.226 OA
BRANCH  16  18
ATOM     18  O   UNL     1       7.273  -6.179  27.919  0.00  0.00    -0.446 OA
BRANCH  18  19
ATOM     19  C   UNL     1       6.243  -6.017  28.959  0.00  0.00    +0.269 C 
BRANCH  19  20
ATOM     20  C   UNL     1       4.780  -5.772  28.707  0.00  0.00    -0.010 A 
ATOM     21  C   UNL     1       4.280  -4.519  29.078  0.00  0.00    +0.007 A 
ATOM     22  C   UNL     1       2.916  -4.250  28.974  0.00  0.00    +0.000 A 
ATOM     23  C   UNL     1       2.047  -5.215  28.492  0.00  0.00    +0.000 A 
ATOM     24  C   UNL     1       2.529  -6.487  28.116  0.00  0.00    +0.000 A 
ATOM     25  C   UNL     1       3.885  -6.766  28.251  0.00  0.00    +0.007 A 
ENDBRANCH  19  20
ENDBRANCH  18  19
ENDBRANCH  16  18
ENDBRANCH  13  14
BRANCH  13  26
ATOM     26  C   UNL     1       7.801  -5.643  23.025  0.00  0.00    +0.035 C 
BRANCH  26  28
ATOM     27  C   UNL     1       5.694  -6.126  21.672  0.00  0.00    +0.007 C 
ATOM     28  C   UNL     1       6.890  -5.204  21.854  0.00  0.00    -0.015 C 
ATOM     29  C   UNL     1       6.454  -3.732  21.893  0.00  0.00    +0.007 C 
ENDBRANCH  26  28
ENDBRANCH  13  26
ENDBRANCH   9  13
ENDBRANCH   1  10
BRANCH   6  30
ATOM     30  C   UNL     1       6.978   1.779  26.035  0.00  0.00    +0.162 C 
BRANCH  30  31
ATOM     31  N   UNL     1       5.887   0.900  25.667  0.00  0.00    -0.270 N 
ATOM     32  H   UNL     1       5.071   1.218  25.177  0.00  0.00    +0.153 HD
ATOM     33  C   UNL     1       5.638  -0.283  26.231  0.00  0.00    +0.401 C 
ATOM     34  O   UNL     1       6.225  -0.801  27.144  0.00  0.00    -0.226 OA
BRANCH  33  35
ATOM     35  O   UNL     1       4.754  -0.942  25.479  0.00  0.00    -0.446 OA
BRANCH  35  36
ATOM     36  C   UNL     1       5.259  -2.259  25.239  0.00  0.00    +0.269 C 
BRANCH  36  37
ATOM     37  C   UNL     1       4.181  -3.326  25.289  0.00  0.00    -0.010 A 
ATOM     38  C   UNL     1       2.873  -2.971  25.610  0.00  0.00    +0.007 A 
ATOM     39  C   UNL     1       1.790  -3.756  25.231  0.00  0.00    +0.000 A 
ATOM     40  C   UNL     1       2.033  -4.987  24.660  0.00  0.00    +0.000 A 
ATOM     41  C   UNL     1       3.334  -5.486  24.665  0.00  0.00    +0.000 A 
ATOM     42  C   UNL     1       4.413  -4.658  24.984  0.00  0.00    +0.007 A 
ENDBRANCH  36  37
ENDBRANCH  35  36
ENDBRANCH  33  35
ENDBRANCH  30  31
BRANCH  30  43
ATOM     43  C   UNL     1       6.270   3.110  26.396  0.00  0.00    +0.035 C 
BRANCH  43  44
ATOM     44  C   UNL     1       6.007   3.255  27.929  0.00  0.00    -0.015 C 
ATOM     45  C   UNL     1       6.925   2.373  28.772  0.00  0.00    +0.007 C 
ATOM     46  C   UNL     1       4.547   2.989  28.293  0.00  0.00    +0.007 C 
ENDBRANCH  43  44
ENDBRANCH  30  43
ENDBRANCH   6  30
TORSDOF 15
ENDMDL
MODEL 4
REMARK VINA RESULT:      -6.3      2.122      4.772
REMARK  Name = 
REMARK  19 active torsions:
REMARK  status: ('A' for Active; 'I' for Inactive)
REMARK    1  A    between atoms: C_1  and  C_2
REMARK    2  A    between atoms: C_2  and  C_3
REMARK    3  A    between atoms: C_2  and  C_4
REMARK    4  A    between atoms: C_4  and  C_5
REMARK    5  A    between atoms: C_5  and  N_7
REMARK    6  A    between atoms: C_5  and  C_18
REMARK    7  A    between atoms: C_8  and  O_10
REMARK    8  A    between atoms: O_10  and  C_11
REMARK    9  A    between atoms: C_11  and  C_12
REMARK   10  A    between atoms: N_20  and  C_21
REMARK   11  A    between atoms: C_28  and  C_30
REMARK   12  A    between atoms: C_30  and  C_32
REMARK   13  A    between atoms: C_30  and  N_36
REMARK   14  A    between atoms: C_32  and  C_33
REMARK   15  A    between atoms: C_33  and  C_34
REMARK   16  A    between atoms: C_33  and  C_35
REMARK   17  A    between atoms: C_37  and  O_39
REMARK   18  A    between atoms: O_39  and  C_40
REMARK   19  A    between atoms: C_40  and  C_41
REMARK                            x       y       z     vdW  Elec       q    Type
REMARK                         _______ _______ _______ _____ _____    ______ ____
ROOT
ATOM      1  C   UNL     1      10.087  -1.213  23.461  0.00  0.00    +0.158 C 
ATOM      2  C   UNL     1       9.321  -1.173  22.135  0.00  0.00    +0.172 C 
ATOM      3  O   UNL     1       8.783  -2.161  21.636  0.00  0.00    -0.294 OA
ATOM      4  C   UNL     1       9.344   0.197  21.466  0.00  0.00    +0.184 C 
ATOM      5  N   UNL     1       9.804   1.048  22.554  0.00  0.00    -0.291 N 
ATOM      6  C   UNL     1       9.296   2.351  22.696  0.00  0.00    +0.236 C 
ATOM      7  O   UNL     1       8.551   2.839  21.838  0.00  0.00    -0.274 OA
ATOM      8  C   UNL     1      10.621   0.253  23.493  0.00  0.00    +0.138 C 
ENDROOT
BRANCH   1  10
ATOM      9  C   UNL     1       9.097  -3.009  24.971  0.00  0.00    +0.234 C 
ATOM     10  N   UNL     1       9.191  -1.693  24.550  0.00  0.00    -0.303 N 
ATOM     11  H   UNL     1       9.156  -1.034  25.322  0.00  0.00    +0.150 HD
ATOM     12  O   UNL     1       9.743  -3.893  24.408  0.00  0.00    -0.274 OA
BRANCH   9  13
ATOM     13  C   UNL     1       8.237  -3.307  26.306  0.00  0.00    +0.162 C 
BRANCH  13  14
ATOM     14  N   UNL     1       7.499  -4.619  26.163  0.00  0.00    -0.270 N 
ATOM     15  H   UNL     1       7.689  -5.110  25.296  0.00  0.00    +0.153 HD
ATOM     16  C   UNL     1       6.708  -5.339  27.047  0.00  0.00    +0.401 C 
ATOM     17  O   UNL     1       6.486  -5.045  28.196  0.00  0.00    -0.226 OA
BRANCH  16  18
ATOM     18  O   UNL     1       6.059  -6.378  26.447  0.00  0.00    -0.446 OA
BRANCH  18  19
ATOM     19  C   UNL     1       5.042  -6.100  25.418  0.00  0.00    +0.269 C 
BRANCH  19  20
ATOM     20  C   UNL     1       5.319  -5.561  24.042  0.00  0.00    -0.010 A 
ATOM     21  C   UNL     1       6.042  -6.389  23.176  0.00  0.00    +0.007 A 
ATOM     22  C   UNL     1       6.429  -5.923  21.920  0.00  0.00    +0.000 A 
ATOM     23  C   UNL     1       6.091  -4.642  21.515  0.00  0.00    +0.000 A 
ATOM     24  C   UNL     1       5.366  -3.788  22.373  0.00  0.00    +0.000 A 
ATOM     25  C   UNL     1       5.009  -4.242  23.638  0.00  0.00    +0.007 A 
ENDBRANCH  19  20
ENDBRANCH  18  19
ENDBRANCH  16  18
ENDBRANCH  13  14
BRANCH  13  26
ATOM     26  C   UNL     1       7.507  -1.961  26.704  0.00  0.00    +0.035 C 
BRANCH  26  28
ATOM     27  C   UNL     1       5.309  -1.001  27.572  0.00  0.00    +0.007 C 
ATOM     28  C   UNL     1       5.991  -1.777  26.456  0.00  0.00    -0.015 C 
ATOM     29  C   UNL     1       5.628  -1.200  25.079  0.00  0.00    +0.007 C 
ENDBRANCH  26  28
ENDBRANCH  13  26
ENDBRANCH   9  13
ENDBRANCH   1  10
BRANCH   6  30
ATOM     30  C   UNL     1       9.559   3.122  24.045  0.00  0.00    +0.162 C 
BRANCH  30  31
ATOM     31  N   UNL     1       8.302   3.296  24.744  0.00  0.00    -0.270 N 
ATOM     32  H   UNL     1       7.950   4.194  25.019  0.00  0.00    +0.153 HD
ATOM     33  C   UNL     1       7.673   2.339  25.429  0.00  0.00    +0.401 C 
ATOM     34  O   UNL     1       8.038   1.209  25.622  0.00  0.00    -0.226 OA
BRANCH  33  35
ATOM     35  O   UNL     1       6.432   2.749  25.701  0.00  0.00    -0.446 OA
BRANCH  35  36
ATOM     36  C   UNL     1       5.588   2.394  24.601  0.00  0.00    +0.269 C 
BRANCH  36  37
ATOM     37  C   UNL     1       5.016   3.599  23.879  0.00  0.00    -0.010 A 
ATOM     38  C   UNL     1       4.212   3.413  22.757  0.00  0.00    +0.007 A 
ATOM     39  C   UNL     1       3.304   4.381  22.342  0.00  0.00    +0.000 A 
ATOM     40  C   UNL     1       3.313   5.609  22.968  0.00  0.00    +0.000 A 
ATOM     41  C   UNL     1       4.352   5.908  23.847  0.00  0.00    +0.000 A 
ATOM     42  C   UNL     1       5.210   4.905  24.303  0.00  0.00    +0.007 A 
ENDBRANCH  36  37
ENDBRANCH  35  36
ENDBRANCH  33  35
ENDBRANCH  30  31
BRANCH  30  43
ATOM     43  C   UNL     1      10.082   4.571  23.868  0.00  0.00    +0.035 C 
BRANCH  43  44
ATOM     44  C   UNL     1       9.010   5.646  24.236  0.00  0.00    -0.015 C 
ATOM     45  C   UNL     1       8.481   6.395  23.015  0.00  0.00    +0.007 C 
ATOM     46  C   UNL     1       9.523   6.640  25.277  0.00  0.00    +0.007 C 
ENDBRANCH  43  44
ENDBRANCH  30  43
ENDBRANCH   6  30
TORSDOF 15
ENDMDL
MODEL 5
REMARK VINA RESULT:      -6.3      2.848      6.271
REMARK  Name = 
REMARK  19 active torsions:
REMARK  status: ('A' for Active; 'I' for Inactive)
REMARK    1  A    between atoms: C_1  and  C_2
REMARK    2  A    between atoms: C_2  and  C_3
REMARK    3  A    between atoms: C_2  and  C_4
REMARK    4  A    between atoms: C_4  and  C_5
REMARK    5  A    between atoms: C_5  and  N_7
REMARK    6  A    between atoms: C_5  and  C_18
REMARK    7  A    between atoms: C_8  and  O_10
REMARK    8  A    between atoms: O_10  and  C_11
REMARK    9  A    between atoms: C_11  and  C_12
REMARK   10  A    between atoms: N_20  and  C_21
REMARK   11  A    between atoms: C_28  and  C_30
REMARK   12  A    between atoms: C_30  and  C_32
REMARK   13  A    between atoms: C_30  and  N_36
REMARK   14  A    between atoms: C_32  and  C_33
REMARK   15  A    between atoms: C_33  and  C_34
REMARK   16  A    between atoms: C_33  and  C_35
REMARK   17  A    between atoms: C_37  and  O_39
REMARK   18  A    between atoms: O_39  and  C_40
REMARK   19  A    between atoms: C_40  and  C_41
REMARK                            x       y       z     vdW  Elec       q    Type
REMARK                         _______ _______ _______ _____ _____    ______ ____
ROOT
ATOM      1  C   UNL     1       9.686   0.341  23.394  0.00  0.00    +0.158 C 
ATOM      2  C   UNL     1       9.246   0.739  21.982  0.00  0.00    +0.172 C 
ATOM      3  O   UNL     1       9.417   0.026  20.995  0.00  0.00    -0.294 OA
ATOM      4  C   UNL     1       8.630   2.133  21.913  0.00  0.00    +0.184 C 
ATOM      5  N   UNL     1       8.374   2.412  23.319  0.00  0.00    -0.291 N 
ATOM      6  C   UNL     1       7.226   3.128  23.700  0.00  0.00    +0.236 C 
ATOM      7  O   UNL     1       6.485   3.638  22.851  0.00  0.00    -0.274 OA
ATOM      8  C   UNL     1       9.328   1.655  24.156  0.00  0.00    +0.138 C 
ENDROOT
BRANCH   1  10
ATOM      9  C   UNL     1       9.566  -2.198  23.566  0.00  0.00    +0.234 C 
ATOM     10  N   UNL     1       9.032  -0.938  23.787  0.00  0.00    -0.303 N 
ATOM     11  H   UNL     1       8.577  -0.862  24.692  0.00  0.00    +0.150 HD
ATOM     12  O   UNL     1      10.631  -2.327  22.964  0.00  0.00    -0.274 OA
BRANCH   9  13
ATOM     13  C   UNL     1       8.820  -3.456  24.253  0.00  0.00    +0.162 C 
BRANCH  13  14
ATOM     14  N   UNL     1       7.858  -4.085  23.270  0.00  0.00    -0.270 N 
ATOM     15  H   UNL     1       7.950  -5.092  23.186  0.00  0.00    +0.153 HD
ATOM     16  C   UNL     1       6.788  -3.564  22.557  0.00  0.00    +0.401 C 
ATOM     17  O   UNL     1       6.374  -2.433  22.632  0.00  0.00    -0.226 OA
BRANCH  16  18
ATOM     18  O   UNL     1       6.310  -4.430  21.618  0.00  0.00    -0.446 OA
BRANCH  18  19
ATOM     19  C   UNL     1       5.652  -5.675  22.048  0.00  0.00    +0.269 C 
BRANCH  19  20
ATOM     20  C   UNL     1       4.725  -5.810  23.225  0.00  0.00    -0.010 A 
ATOM     21  C   UNL     1       3.695  -4.868  23.325  0.00  0.00    +0.007 A 
ATOM     22  C   UNL     1       2.857  -4.860  24.439  0.00  0.00    +0.000 A 
ATOM     23  C   UNL     1       3.030  -5.791  25.451  0.00  0.00    +0.000 A 
ATOM     24  C   UNL     1       4.066  -6.746  25.374  0.00  0.00    +0.000 A 
ATOM     25  C   UNL     1       4.921  -6.732  24.278  0.00  0.00    +0.007 A 
ENDBRANCH  19  20
ENDBRANCH  18  19
ENDBRANCH  16  18
ENDBRANCH  13  14
BRANCH  13  26
ATOM     26  C   UNL     1       8.379  -3.006  25.704  0.00  0.00    +0.035 C 
BRANCH  26  28
ATOM     27  C   UNL     1       5.936  -3.536  26.208  0.00  0.00    +0.007 C 
ATOM     28  C   UNL     1       7.387  -3.857  26.532  0.00  0.00    -0.015 C 
ATOM     29  C   UNL     1       7.643  -5.371  26.486  0.00  0.00    +0.007 C 
ENDBRANCH  26  28
ENDBRANCH  13  26
ENDBRANCH   9  13
ENDBRANCH   1  10
BRANCH   6  30
ATOM     30  C   UNL     1       6.808   3.133  25.219  0.00  0.00    +0.162 C 
BRANCH  30  31
ATOM     31  N   UNL     1       7.390   4.291  25.867  0.00  0.00    -0.270 N 
ATOM     32  H   UNL     1       8.033   4.222  26.635  0.00  0.00    +0.153 HD
ATOM     33  C   UNL     1       6.889   5.527  25.813  0.00  0.00    +0.401 C 
ATOM     34  O   UNL     1       5.878   5.888  25.271  0.00  0.00    -0.226 OA
BRANCH  33  35
ATOM     35  O   UNL     1       7.805   6.384  26.270  0.00  0.00    -0.446 OA
BRANCH  35  36
ATOM     36  C   UNL     1       8.465   6.979  25.148  0.00  0.00    +0.269 C 
BRANCH  36  37
ATOM     37  C   UNL     1       9.896   6.503  24.981  0.00  0.00    -0.010 A 
ATOM     38  C   UNL     1      10.188   5.506  24.054  0.00  0.00    +0.007 A 
ATOM     39  C   UNL     1      11.464   5.356  23.522  0.00  0.00    +0.000 A 
ATOM     40  C   UNL     1      12.491   6.114  24.041  0.00  0.00    +0.000 A 
ATOM     41  C   UNL     1      12.264   6.850  25.202  0.00  0.00    +0.000 A 
ATOM     42  C   UNL     1      10.966   7.044  25.679  0.00  0.00    +0.007 A 
ENDBRANCH  36  37
ENDBRANCH  35  36
ENDBRANCH  33  35
ENDBRANCH  30  31
BRANCH  30  43
ATOM     43  C   UNL     1       7.357   1.940  26.042  0.00  0.00    +0.035 C 
BRANCH  43  44
ATOM     44  C   UNL     1       6.263   0.869  26.352  0.00  0.00    -0.015 C 
ATOM     45  C   UNL     1       6.675  -0.093  27.464  0.00  0.00    +0.007 C 
ATOM     46  C   UNL     1       5.854   0.083  25.107  0.00  0.00    +0.007 C 
ENDBRANCH  43  44
ENDBRANCH  30  43
ENDBRANCH   6  30
TORSDOF 15
ENDMDL
MODEL 6
REMARK VINA RESULT:      -6.3      2.504      6.585
REMARK  Name = 
REMARK  19 active torsions:
REMARK  status: ('A' for Active; 'I' for Inactive)
REMARK    1  A    between atoms: C_1  and  C_2
REMARK    2  A    between atoms: C_2  and  C_3
REMARK    3  A    between atoms: C_2  and  C_4
REMARK    4  A    between atoms: C_4  and  C_5
REMARK    5  A    between atoms: C_5  and  N_7
REMARK    6  A    between atoms: C_5  and  C_18
REMARK    7  A    between atoms: C_8  and  O_10
REMARK    8  A    between atoms: O_10  and  C_11
REMARK    9  A    between atoms: C_11  and  C_12
REMARK   10  A    between atoms: N_20  and  C_21
REMARK   11  A    between atoms: C_28  and  C_30
REMARK   12  A    between atoms: C_30  and  C_32
REMARK   13  A    between atoms: C_30  and  N_36
REMARK   14  A    between atoms: C_32  and  C_33
REMARK   15  A    between atoms: C_33  and  C_34
REMARK   16  A    between atoms: C_33  and  C_35
REMARK   17  A    between atoms: C_37  and  O_39
REMARK   18  A    between atoms: O_39  and  C_40
REMARK   19  A    between atoms: C_40  and  C_41
REMARK                            x       y       z     vdW  Elec       q    Type
REMARK                         _______ _______ _______ _____ _____    ______ ____
ROOT
ATOM      1  C   UNL     1       8.532  -3.662  26.240  0.00  0.00    +0.158 C 
ATOM      2  C   UNL     1       9.309  -4.114  25.001  0.00  0.00    +0.172 C 
ATOM      3  O   UNL     1       9.528  -5.294  24.733  0.00  0.00    -0.294 OA
ATOM      4  C   UNL     1       9.836  -2.953  24.163  0.00  0.00    +0.184 C 
ATOM      5  N   UNL     1       9.072  -1.834  24.698  0.00  0.00    -0.291 N 
ATOM      6  C   UNL     1       8.637  -0.804  23.847  0.00  0.00    +0.236 C 
ATOM      7  O   UNL     1       8.995  -0.764  22.664  0.00  0.00    -0.274 OA
ATOM      8  C   UNL     1       8.694  -2.117  26.098  0.00  0.00    +0.138 C 
ENDROOT
BRANCH   1  10
ATOM      9  C   UNL     1       6.752  -5.287  27.066  0.00  0.00    +0.234 C 
ATOM     10  N   UNL     1       7.168  -4.263  26.231  0.00  0.00    -0.303 N 
ATOM     11  H   UNL     1       6.451  -3.557  26.094  0.00  0.00    +0.150 HD
ATOM     12  O   UNL     1       7.538  -5.807  27.857  0.00  0.00    -0.274 OA
BRANCH   9  13
ATOM     13  C   UNL     1       5.180  -5.661  27.062  0.00  0.00    +0.162 C 
BRANCH  13  14
ATOM     14  N   UNL     1       4.815  -6.348  25.766  0.00  0.00    -0.270 N 
ATOM     15  H   UNL     1       5.532  -6.293  25.051  0.00  0.00    +0.153 HD
ATOM     16  C   UNL     1       3.738  -7.148  25.411  0.00  0.00    +0.401 C 
ATOM     17  O   UNL     1       2.849  -7.502  26.148  0.00  0.00    -0.226 OA
BRANCH  16  18
ATOM     18  O   UNL     1       3.685  -7.396  24.072  0.00  0.00    -0.446 OA
BRANCH  18  19
ATOM     19  C   UNL     1       3.602  -6.269  23.128  0.00  0.00    +0.269 C 
BRANCH  19  20
ATOM     20  C   UNL     1       4.743  -5.365  22.747  0.00  0.00    -0.010 A 
ATOM     21  C   UNL     1       5.870  -5.978  22.187  0.00  0.00    +0.007 A 
ATOM     22  C   UNL     1       7.008  -5.225  21.903  0.00  0.00    +0.000 A 
ATOM     23  C   UNL     1       7.030  -3.864  22.161  0.00  0.00    +0.000 A 
ATOM     24  C   UNL     1       5.906  -3.226  22.729  0.00  0.00    +0.000 A 
ATOM     25  C   UNL     1       4.783  -3.984  23.043  0.00  0.00    +0.007 A 
ENDBRANCH  19  20
ENDBRANCH  18  19
ENDBRANCH  16  18
ENDBRANCH  13  14
BRANCH  13  26
ATOM     26  C   UNL     1       4.396  -4.398  27.605  0.00  0.00    +0.035 C 
BRANCH  26  28
ATOM     27  C   UNL     1       2.171  -3.487  28.455  0.00  0.00    +0.007 C 
ATOM     28  C   UNL     1       2.882  -4.227  27.333  0.00  0.00    -0.015 C 
ATOM     29  C   UNL     1       2.538  -3.621  25.964  0.00  0.00    +0.007 C 
ENDBRANCH  26  28
ENDBRANCH  13  26
ENDBRANCH   9  13
ENDBRANCH   1  10
BRANCH   6  30
ATOM     30  C   UNL     1       7.553   0.209  24.379  0.00  0.00    +0.162 C 
BRANCH  30  31
ATOM     31  N   UNL     1       7.973   1.560  24.066  0.00  0.00    -0.270 N 
ATOM     32  H   UNL     1       8.418   2.162  24.733  0.00  0.00    +0.153 HD
ATOM     33  C   UNL     1       7.505   2.286  23.049  0.00  0.00    +0.401 C 
ATOM     34  O   UNL     1       6.650   1.983  22.259  0.00  0.00    -0.226 OA
BRANCH  33  35
ATOM     35  O   UNL     1       8.292   3.351  22.882  0.00  0.00    -0.446 OA
BRANCH  35  36
ATOM     36  C   UNL     1       9.538   3.098  23.537  0.00  0.00    +0.269 C 
BRANCH  36  37
ATOM     37  C   UNL     1      10.433   4.321  23.605  0.00  0.00    -0.010 A 
ATOM     38  C   UNL     1       9.939   5.509  24.140  0.00  0.00    +0.007 A 
ATOM     39  C   UNL     1      10.786   6.484  24.655  0.00  0.00    +0.000 A 
ATOM     40  C   UNL     1      12.146   6.335  24.489  0.00  0.00    +0.000 A 
ATOM     41  C   UNL     1      12.615   5.328  23.647  0.00  0.00    +0.000 A 
ATOM     42  C   UNL     1      11.759   4.320  23.198  0.00  0.00    +0.007 A 
ENDBRANCH  36  37
ENDBRANCH  35  36
ENDBRANCH  33  35
ENDBRANCH  30  31
BRANCH  30  43
ATOM     43  C   UNL     1       7.389   0.226  25.920  0.00  0.00    +0.035 C 
BRANCH  43  44
ATOM     44  C   UNL     1       5.898   0.098  26.368  0.00  0.00    -0.015 C 
ATOM     45  C   UNL     1       5.745  -0.032  27.882  0.00  0.00    +0.007 C 
ATOM     46  C   UNL     1       5.182  -1.057  25.669  0.00  0.00    +0.007 C 
ENDBRANCH  43  44
ENDBRANCH  30  43
ENDBRANCH   6  30
TORSDOF 15
ENDMDL
MODEL 7
REMARK VINA RESULT:      -6.3      1.942      3.163
REMARK  Name = 
REMARK  19 active torsions:
REMARK  status: ('A' for Active; 'I' for Inactive)
REMARK    1  A    between atoms: C_1  and  C_2
REMARK    2  A    between atoms: C_2  and  C_3
REMARK    3  A    between atoms: C_2  and  C_4
REMARK    4  A    between atoms: C_4  and  C_5
REMARK    5  A    between atoms: C_5  and  N_7
REMARK    6  A    between atoms: C_5  and  C_18
REMARK    7  A    between atoms: C_8  and  O_10
REMARK    8  A    between atoms: O_10  and  C_11
REMARK    9  A    between atoms: C_11  and  C_12
REMARK   10  A    between atoms: N_20  and  C_21
REMARK   11  A    between atoms: C_28  and  C_30
REMARK   12  A    between atoms: C_30  and  C_32
REMARK   13  A    between atoms: C_30  and  N_36
REMARK   14  A    between atoms: C_32  and  C_33
REMARK   15  A    between atoms: C_33  and  C_34
REMARK   16  A    between atoms: C_33  and  C_35
REMARK   17  A    between atoms: C_37  and  O_39
REMARK   18  A    between atoms: O_39  and  C_40
REMARK   19  A    between atoms: C_40  and  C_41
REMARK                            x       y       z     vdW  Elec       q    Type
REMARK                         _______ _______ _______ _____ _____    ______ ____
ROOT
ATOM      1  C   UNL     1       9.736   0.055  23.293  0.00  0.00    +0.158 C 
ATOM      2  C   UNL     1       9.248   0.198  21.849  0.00  0.00    +0.172 C 
ATOM      3  O   UNL     1       9.403  -0.672  20.994  0.00  0.00    -0.294 OA
ATOM      4  C   UNL     1       8.604   1.550  21.562  0.00  0.00    +0.184 C 
ATOM      5  N   UNL     1       8.384   2.064  22.907  0.00  0.00    -0.291 N 
ATOM      6  C   UNL     1       7.235   2.820  23.196  0.00  0.00    +0.236 C 
ATOM      7  O   UNL     1       6.460   3.166  22.297  0.00  0.00    -0.274 OA
ATOM      8  C   UNL     1       9.376   1.475  23.830  0.00  0.00    +0.138 C 
ENDROOT
BRANCH   1  10
ATOM      9  C   UNL     1       9.665  -2.419  23.896  0.00  0.00    +0.234 C 
ATOM     10  N   UNL     1       9.118  -1.147  23.921  0.00  0.00    -0.303 N 
ATOM     11  H   UNL     1       8.694  -0.923  24.816  0.00  0.00    +0.150 HD
ATOM     12  O   UNL     1      10.711  -2.638  23.286  0.00  0.00    -0.274 OA
BRANCH   9  13
ATOM     13  C   UNL     1       8.965  -3.551  24.813  0.00  0.00    +0.162 C 
BRANCH  13  14
ATOM     14  N   UNL     1       8.223  -4.537  23.940  0.00  0.00    -0.270 N 
ATOM     15  H   UNL     1       8.183  -5.478  24.316  0.00  0.00    +0.153 HD
ATOM     16  C   UNL     1       7.476  -4.370  22.782  0.00  0.00    +0.401 C 
ATOM     17  O   UNL     1       7.231  -3.318  22.246  0.00  0.00    -0.226 OA
BRANCH  16  18
ATOM     18  O   UNL     1       7.146  -5.556  22.194  0.00  0.00    -0.446 OA
BRANCH  18  19
ATOM     19  C   UNL     1       5.744  -6.008  22.211  0.00  0.00    +0.269 C 
BRANCH  19  20
ATOM     20  C   UNL     1       4.784  -5.829  23.355  0.00  0.00    -0.010 A 
ATOM     21  C   UNL     1       4.915  -6.716  24.429  0.00  0.00    +0.007 A 
ATOM     22  C   UNL     1       3.999  -6.684  25.480  0.00  0.00    +0.000 A 
ATOM     23  C   UNL     1       2.961  -5.766  25.476  0.00  0.00    +0.000 A 
ATOM     24  C   UNL     1       2.807  -4.866  24.401  0.00  0.00    +0.000 A 
ATOM     25  C   UNL     1       3.701  -4.921  23.336  0.00  0.00    +0.007 A 
ENDBRANCH  19  20
ENDBRANCH  18  19
ENDBRANCH  16  18
ENDBRANCH  13  14
BRANCH  13  26
ATOM     26  C   UNL     1       8.280  -2.811  26.032  0.00  0.00    +0.035 C 
BRANCH  26  28
ATOM     27  C   UNL     1       5.774  -2.928  25.569  0.00  0.00    +0.007 C 
ATOM     28  C   UNL     1       6.890  -3.254  26.549  0.00  0.00    -0.015 C 
ATOM     29  C   UNL     1       6.812  -4.716  27.013  0.00  0.00    +0.007 C 
ENDBRANCH  26  28
ENDBRANCH  13  26
ENDBRANCH   9  13
ENDBRANCH   1  10
BRANCH   6  30
ATOM     30  C   UNL     1       6.862   3.081  24.705  0.00  0.00    +0.162 C 
BRANCH  30  31
ATOM     31  N   UNL     1       5.761   2.216  25.077  0.00  0.00    -0.270 N 
ATOM     32  H   UNL     1       4.840   2.560  25.277  0.00  0.00    +0.153 HD
ATOM     33  C   UNL     1       5.893   0.981  25.565  0.00  0.00    +0.401 C 
ATOM     34  O   UNL     1       6.912   0.394  25.816  0.00  0.00    -0.226 OA
BRANCH  33  35
ATOM     35  O   UNL     1       4.704   0.375  25.533  0.00  0.00    -0.446 OA
BRANCH  35  36
ATOM     36  C   UNL     1       4.026   0.647  26.762  0.00  0.00    +0.269 C 
BRANCH  36  37
ATOM     37  C   UNL     1       3.598  -0.611  27.495  0.00  0.00    -0.010 A 
ATOM     38  C   UNL     1       2.464  -1.303  27.074  0.00  0.00    +0.007 A 
ATOM     39  C   UNL     1       2.282  -2.650  27.365  0.00  0.00    +0.000 A 
ATOM     40  C   UNL     1       3.171  -3.270  28.217  0.00  0.00    +0.000 A 
ATOM     41  C   UNL     1       4.093  -2.489  28.911  0.00  0.00    +0.000 A 
ATOM     42  C   UNL     1       4.307  -1.155  28.555  0.00  0.00    +0.007 A 
ENDBRANCH  36  37
ENDBRANCH  35  36
ENDBRANCH  33  35
ENDBRANCH  30  31
BRANCH  30  43
ATOM     43  C   UNL     1       6.324   4.504  24.998  0.00  0.00    +0.035 C 
BRANCH  43  44
ATOM     44  C   UNL     1       7.196   5.274  26.041  0.00  0.00    -0.015 C 
ATOM     45  C   UNL     1       8.662   5.374  25.627  0.00  0.00    +0.007 C 
ATOM     46  C   UNL     1       7.088   4.672  27.441  0.00  0.00    +0.007 C 
ENDBRANCH  43  44
ENDBRANCH  30  43
ENDBRANCH   6  30
TORSDOF 15
ENDMDL
MODEL 8
REMARK VINA RESULT:      -6.1      2.349      6.698
REMARK  Name = 
REMARK  19 active torsions:
REMARK  status: ('A' for Active; 'I' for Inactive)
REMARK    1  A    between atoms: C_1  and  C_2
REMARK    2  A    between atoms: C_2  and  C_3
REMARK    3  A    between atoms: C_2  and  C_4
REMARK    4  A    between atoms: C_4  and  C_5
REMARK    5  A    between atoms: C_5  and  N_7
REMARK    6  A    between atoms: C_5  and  C_18
REMARK    7  A    between atoms: C_8  and  O_10
REMARK    8  A    between atoms: O_10  and  C_11
REMARK    9  A    between atoms: C_11  and  C_12
REMARK   10  A    between atoms: N_20  and  C_21
REMARK   11  A    between atoms: C_28  and  C_30
REMARK   12  A    between atoms: C_30  and  C_32
REMARK   13  A    between atoms: C_30  and  N_36
REMARK   14  A    between atoms: C_32  and  C_33
REMARK   15  A    between atoms: C_33  and  C_34
REMARK   16  A    between atoms: C_33  and  C_35
REMARK   17  A    between atoms: C_37  and  O_39
REMARK   18  A    between atoms: O_39  and  C_40
REMARK   19  A    between atoms: C_40  and  C_41
REMARK                            x       y       z     vdW  Elec       q    Type
REMARK                         _______ _______ _______ _____ _____    ______ ____
ROOT
ATOM      1  C   UNL     1       6.148  -5.556  24.065  0.00  0.00    +0.158 C 
ATOM      2  C   UNL     1       5.608  -5.197  22.678  0.00  0.00    +0.172 C 
ATOM      3  O   UNL     1       4.473  -5.482  22.301  0.00  0.00    -0.294 OA
ATOM      4  C   UNL     1       6.638  -4.506  21.790  0.00  0.00    +0.184 C 
ATOM      5  N   UNL     1       7.658  -4.132  22.759  0.00  0.00    -0.291 N 
ATOM      6  C   UNL     1       8.355  -2.919  22.620  0.00  0.00    +0.236 C 
ATOM      7  O   UNL     1       8.205  -2.213  21.616  0.00  0.00    -0.274 OA
ATOM      8  C   UNL     1       7.621  -5.065  23.903  0.00  0.00    +0.138 C 
ENDROOT
BRANCH   1  10
ATOM      9  C   UNL     1       5.377  -5.233  26.471  0.00  0.00    +0.234 C 
ATOM     10  N   UNL     1       5.284  -4.952  25.118  0.00  0.00    -0.303 N 
ATOM     11  H   UNL     1       5.105  -3.969  24.936  0.00  0.00    +0.150 HD
ATOM     12  O   UNL     1       6.182  -6.067  26.882  0.00  0.00    -0.274 OA
BRANCH   9  13
ATOM     13  C   UNL     1       4.505  -4.324  27.484  0.00  0.00    +0.162 C 
BRANCH  13  14
ATOM     14  N   UNL     1       4.446  -2.900  26.980  0.00  0.00    -0.270 N 
ATOM     15  H   UNL     1       5.321  -2.559  26.596  0.00  0.00    +0.153 HD
ATOM     16  C   UNL     1       3.389  -2.014  26.826  0.00  0.00    +0.401 C 
ATOM     17  O   UNL     1       2.228  -2.256  27.044  0.00  0.00    -0.226 OA
BRANCH  16  18
ATOM     18  O   UNL     1       3.802  -0.748  26.530  0.00  0.00    -0.446 OA
BRANCH  18  19
ATOM     19  C   UNL     1       3.233   0.392  27.268  0.00  0.00    +0.269 C 
BRANCH  19  20
ATOM     20  C   UNL     1       3.729   1.810  27.202  0.00  0.00    -0.010 A 
ATOM     21  C   UNL     1       3.354   2.555  26.079  0.00  0.00    +0.007 A 
ATOM     22  C   UNL     1       3.857   3.842  25.890  0.00  0.00    +0.000 A 
ATOM     23  C   UNL     1       4.723   4.397  26.818  0.00  0.00    +0.000 A 
ATOM     24  C   UNL     1       5.119   3.662  27.956  0.00  0.00    +0.000 A 
ATOM     25  C   UNL     1       4.643   2.366  28.126  0.00  0.00    +0.007 A 
ENDBRANCH  19  20
ENDBRANCH  18  19
ENDBRANCH  16  18
ENDBRANCH  13  14
BRANCH  13  26
ATOM     26  C   UNL     1       4.965  -4.686  28.954  0.00  0.00    +0.035 C 
BRANCH  26  28
ATOM     27  C   UNL     1       2.619  -4.674  29.954  0.00  0.00    +0.007 C 
ATOM     28  C   UNL     1       3.984  -5.344  29.953  0.00  0.00    -0.015 C 
ATOM     29  C   UNL     1       3.852  -6.869  29.817  0.00  0.00    +0.007 C 
ENDBRANCH  26  28
ENDBRANCH  13  26
ENDBRANCH   9  13
ENDBRANCH   1  10
BRANCH   6  30
ATOM     30  C   UNL     1       9.205  -2.392  23.837  0.00  0.00    +0.162 C 
BRANCH  30  31
ATOM     31  N   UNL     1       8.355  -1.599  24.702  0.00  0.00    -0.270 N 
ATOM     32  H   UNL     1       8.239  -0.608  24.596  0.00  0.00    +0.153 HD
ATOM     33  C   UNL     1       7.949  -1.970  25.919  0.00  0.00    +0.401 C 
ATOM     34  O   UNL     1       8.236  -2.972  26.517  0.00  0.00    -0.226 OA
BRANCH  33  35
ATOM     35  O   UNL     1       6.969  -1.153  26.313  0.00  0.00    -0.446 OA
BRANCH  35  36
ATOM     36  C   UNL     1       7.545   0.112  26.652  0.00  0.00    +0.269 C 
BRANCH  36  37
ATOM     37  C   UNL     1       7.146   1.221  25.697  0.00  0.00    -0.010 A 
ATOM     38  C   UNL     1       7.758   2.469  25.795  0.00  0.00    +0.007 A 
ATOM     39  C   UNL     1       7.799   3.347  24.718  0.00  0.00    +0.000 A 
ATOM     40  C   UNL     1       7.086   3.034  23.580  0.00  0.00    +0.000 A 
ATOM     41  C   UNL     1       6.195   1.963  23.619  0.00  0.00    +0.000 A 
ATOM     42  C   UNL     1       6.219   1.055  24.680  0.00  0.00    +0.007 A 
ENDBRANCH  36  37
ENDBRANCH  35  36
ENDBRANCH  33  35
ENDBRANCH  30  31
BRANCH  30  43
ATOM     43  C   UNL     1      10.345  -1.415  23.451  0.00  0.00    +0.035 C 
BRANCH  43  44
ATOM     44  C   UNL     1       9.944   0.083  23.641  0.00  0.00    -0.015 C 
ATOM     45  C   UNL     1       9.810   0.831  22.317  0.00  0.00    +0.007 C 
ATOM     46  C   UNL     1      10.906   0.826  24.567  0.00  0.00    +0.007 C 
ENDBRANCH  43  44
ENDBRANCH  30  43
ENDBRANCH   6  30
TORSDOF 15
ENDMDL
MODEL 9
REMARK VINA RESULT:      -6.0      2.414      3.945
REMARK  Name = 
REMARK  19 active torsions:
REMARK  status: ('A' for Active; 'I' for Inactive)
REMARK    1  A    between atoms: C_1  and  C_2
REMARK    2  A    between atoms: C_2  and  C_3
REMARK    3  A    between atoms: C_2  and  C_4
REMARK    4  A    between atoms: C_4  and  C_5
REMARK    5  A    between atoms: C_5  and  N_7
REMARK    6  A    between atoms: C_5  and  C_18
REMARK    7  A    between atoms: C_8  and  O_10
REMARK    8  A    between atoms: O_10  and  C_11
REMARK    9  A    between atoms: C_11  and  C_12
REMARK   10  A    between atoms: N_20  and  C_21
REMARK   11  A    between atoms: C_28  and  C_30
REMARK   12  A    between atoms: C_30  and  C_32
REMARK   13  A    between atoms: C_30  and  N_36
REMARK   14  A    between atoms: C_32  and  C_33
REMARK   15  A    between atoms: C_33  and  C_34
REMARK   16  A    between atoms: C_33  and  C_35
REMARK   17  A    between atoms: C_37  and  O_39
REMARK   18  A    between atoms: O_39  and  C_40
REMARK   19  A    between atoms: C_40  and  C_41
REMARK                            x       y       z     vdW  Elec       q    Type
REMARK                         _______ _______ _______ _____ _____    ______ ____
ROOT
ATOM      1  C   UNL     1      10.565   0.435  23.353  0.00  0.00    +0.158 C 
ATOM      2  C   UNL     1       9.786  -0.019  22.115  0.00  0.00    +0.172 C 
ATOM      3  O   UNL     1       9.826  -1.167  21.675  0.00  0.00    -0.294 OA
ATOM      4  C   UNL     1       9.005   1.108  21.448  0.00  0.00    +0.184 C 
ATOM      5  N   UNL     1       9.026   2.134  22.482  0.00  0.00    -0.291 N 
ATOM      6  C   UNL     1       7.909   2.964  22.676  0.00  0.00    +0.236 C 
ATOM      7  O   UNL     1       6.946   2.926  21.901  0.00  0.00    -0.274 OA
ATOM      8  C   UNL     1      10.222   1.957  23.330  0.00  0.00    +0.138 C 
ENDROOT
BRANCH   1  10
ATOM      9  C   UNL     1       8.882  -0.494  25.024  0.00  0.00    +0.234 C 
ATOM     10  N   UNL     1      10.172  -0.389  24.530  0.00  0.00    -0.303 N 
ATOM     11  H   UNL     1      10.668  -1.275  24.548  0.00  0.00    +0.150 HD
ATOM     12  O   UNL     1       7.966   0.155  24.521  0.00  0.00    -0.274 OA
BRANCH   9  13
ATOM     13  C   UNL     1       8.608  -1.601  26.170  0.00  0.00    +0.162 C 
BRANCH  13  14
ATOM     14  N   UNL     1       9.099  -2.954  25.709  0.00  0.00    -0.270 N 
ATOM     15  H   UNL     1       9.759  -2.916  24.939  0.00  0.00    +0.153 HD
ATOM     16  C   UNL     1       8.916  -4.231  26.221  0.00  0.00    +0.401 C 
ATOM     17  O   UNL     1       8.319  -4.506  27.233  0.00  0.00    -0.226 OA
BRANCH  16  18
ATOM     18  O   UNL     1       9.363  -5.205  25.377  0.00  0.00    -0.446 OA
BRANCH  18  19
ATOM     19  C   UNL     1       8.525  -5.619  24.239  0.00  0.00    +0.269 C 
BRANCH  19  20
ATOM     20  C   UNL     1       7.393  -4.821  23.654  0.00  0.00    -0.010 A 
ATOM     21  C   UNL     1       6.098  -5.273  23.928  0.00  0.00    +0.007 A 
ATOM     22  C   UNL     1       4.998  -4.651  23.339  0.00  0.00    +0.000 A 
ATOM     23  C   UNL     1       5.177  -3.573  22.487  0.00  0.00    +0.000 A 
ATOM     24  C   UNL     1       6.474  -3.102  22.193  0.00  0.00    +0.000 A 
ATOM     25  C   UNL     1       7.573  -3.745  22.755  0.00  0.00    +0.007 A 
ENDBRANCH  19  20
ENDBRANCH  18  19
ENDBRANCH  16  18
ENDBRANCH  13  14
BRANCH  13  26
ATOM     26  C   UNL     1       7.138  -1.367  26.706  0.00  0.00    +0.035 C 
BRANCH  26  28
ATOM     27  C   UNL     1       5.251  -2.986  27.275  0.00  0.00    +0.007 C 
ATOM     28  C   UNL     1       5.956  -2.212  26.172  0.00  0.00    -0.015 C 
ATOM     29  C   UNL     1       4.949  -1.438  25.308  0.00  0.00    +0.007 C 
ENDBRANCH  26  28
ENDBRANCH  13  26
ENDBRANCH   9  13
ENDBRANCH   1  10
BRANCH   6  30
ATOM     30  C   UNL     1       7.831   3.830  23.991  0.00  0.00    +0.162 C 
BRANCH  30  31
ATOM     31  N   UNL     1       7.269   3.025  25.056  0.00  0.00    -0.270 N 
ATOM     32  H   UNL     1       6.544   2.348  24.905  0.00  0.00    +0.153 HD
ATOM     33  C   UNL     1       7.340   3.323  26.355  0.00  0.00    +0.401 C 
ATOM     34  O   UNL     1       7.828   4.299  26.861  0.00  0.00    -0.226 OA
BRANCH  33  35
ATOM     35  O   UNL     1       6.979   2.251  27.064  0.00  0.00    -0.446 OA
BRANCH  35  36
ATOM     36  C   UNL     1       5.813   2.584  27.822  0.00  0.00    +0.269 C 
BRANCH  36  37
ATOM     37  C   UNL     1       4.880   1.404  28.027  0.00  0.00    -0.010 A 
ATOM     38  C   UNL     1       5.148   0.480  29.034  0.00  0.00    +0.007 A 
ATOM     39  C   UNL     1       4.147  -0.319  29.575  0.00  0.00    +0.000 A 
ATOM     40  C   UNL     1       2.897  -0.300  28.993  0.00  0.00    +0.000 A 
ATOM     41  C   UNL     1       2.733   0.356  27.774  0.00  0.00    +0.000 A 
ATOM     42  C   UNL     1       3.726   1.208  27.284  0.00  0.00    +0.007 A 
ENDBRANCH  36  37
ENDBRANCH  35  36
ENDBRANCH  33  35
ENDBRANCH  30  31
BRANCH  30  43
ATOM     43  C   UNL     1       6.872   5.045  23.906  0.00  0.00    +0.035 C 
BRANCH  43  44
ATOM     44  C   UNL     1       7.566   6.321  23.331  0.00  0.00    -0.015 C 
ATOM     45  C   UNL     1       7.256   6.548  21.853  0.00  0.00    +0.007 C 
ATOM     46  C   UNL     1       9.078   6.305  23.551  0.00  0.00    +0.007 C 
ENDBRANCH  43  44
ENDBRANCH  30  43
ENDBRANCH   6  30
TORSDOF 15
ENDMDL
