MODEL 1
REMARK VINA RESULT:      -6.9      0.000      0.000
REMARK  Name = 
REMARK  1 active torsions:
REMARK  status: ('A' for Active; 'I' for Inactive)
REMARK    1  A    between atoms: C_11  and  C_12
REMARK                            x       y       z     vdW  Elec       q    Type
REMARK                         _______ _______ _______ _____ _____    ______ ____
ROOT
ATOM      1 CL   UNL     1       6.106  -5.707  20.381  0.00  0.00    -0.084 Cl
ATOM      2  C   UNL     1       6.070  -5.474  22.085  0.00  0.00    +0.042 A 
ATOM      3  C   UNL     1       4.984  -5.947  22.817  0.00  0.00    +0.022 A 
ATOM      4  C   UNL     1       4.952  -5.756  24.197  0.00  0.00    +0.025 A 
ATOM      5  C   UNL     1       6.008  -5.105  24.854  0.00  0.00    +0.043 A 
ATOM      6  N   UNL     1       5.903  -5.053  26.252  0.00  0.00    -0.283 N 
ATOM      7  H   UNL     1       5.010  -5.231  26.692  0.00  0.00    +0.155 HD
ATOM      8  C   UNL     1       6.934  -5.054  27.155  0.00  0.00    +0.239 C 
ATOM      9  C   UNL     1       8.341  -5.132  26.608  0.00  0.00    +0.238 C 
ATOM     10  N   UNL     1       8.653  -3.919  25.874  0.00  0.00    -0.273 NA
ATOM     11  C   UNL     1       8.125  -3.687  24.721  0.00  0.00    +0.076 C 
ATOM     12  O   UNL     1       6.678  -5.105  28.359  0.00  0.00    -0.273 OA
ATOM     13  C   UNL     1       7.077  -4.573  24.102  0.00  0.00    +0.023 A 
ATOM     14  C   UNL     1       7.111  -4.794  22.715  0.00  0.00    +0.032 A 
ENDROOT
BRANCH  11  15
ATOM     15  C   UNL     1       8.565  -2.423  24.013  0.00  0.00    +0.019 A 
ATOM     16  C   UNL     1       7.694  -1.339  23.779  0.00  0.00    +0.050 A 
ATOM     17 CL   UNL     1       6.064  -1.245  24.359  0.00  0.00    -0.083 Cl
ATOM     18  C   UNL     1       8.142  -0.209  23.078  0.00  0.00    +0.020 A 
ATOM     19  C   UNL     1       9.457  -0.128  22.626  0.00  0.00    +0.001 A 
ATOM     20  C   UNL     1      10.329  -1.186  22.854  0.00  0.00    +0.001 A 
ATOM     21  C   UNL     1       9.882  -2.333  23.521  0.00  0.00    +0.011 A 
ENDBRANCH  11  15
TORSDOF 1
ENDMDL
MODEL 2
REMARK VINA RESULT:      -6.1      3.029      4.301
REMARK  Name = 
REMARK  1 active torsions:
REMARK  status: ('A' for Active; 'I' for Inactive)
REMARK    1  A    between atoms: C_11  and  C_12
REMARK                            x       y       z     vdW  Elec       q    Type
REMARK                         _______ _______ _______ _____ _____    ______ ____
ROOT
ATOM      1 CL   UNL     1       4.489   1.073  26.093  0.00  0.00    -0.084 Cl
ATOM      2  C   UNL     1       5.399  -0.332  25.699  0.00  0.00    +0.042 A 
ATOM      3  C   UNL     1       5.299  -1.461  26.508  0.00  0.00    +0.022 A 
ATOM      4  C   UNL     1       6.039  -2.598  26.191  0.00  0.00    +0.025 A 
ATOM      5  C   UNL     1       6.870  -2.621  25.061  0.00  0.00    +0.043 A 
ATOM      6  N   UNL     1       7.492  -3.850  24.797  0.00  0.00    -0.283 N 
ATOM      7  H   UNL     1       7.536  -4.553  25.524  0.00  0.00    +0.155 HD
ATOM      8  C   UNL     1       7.830  -4.354  23.569  0.00  0.00    +0.239 C 
ATOM      9  C   UNL     1       7.494  -3.519  22.355  0.00  0.00    +0.238 C 
ATOM     10  N   UNL     1       8.291  -2.306  22.354  0.00  0.00    -0.273 NA
ATOM     11  C   UNL     1       8.047  -1.351  23.186  0.00  0.00    +0.076 C 
ATOM     12  O   UNL     1       8.283  -5.498  23.492  0.00  0.00    -0.273 OA
ATOM     13  C   UNL     1       7.016  -1.455  24.278  0.00  0.00    +0.023 A 
ATOM     14  C   UNL     1       6.246  -0.323  24.592  0.00  0.00    +0.032 A 
ENDROOT
BRANCH  11  15
ATOM     15  C   UNL     1       8.897  -0.105  23.060  0.00  0.00    +0.019 A 
ATOM     16  C   UNL     1       9.620   0.435  24.143  0.00  0.00    +0.050 A 
ATOM     17 CL   UNL     1       9.737  -0.295  25.710  0.00  0.00    -0.083 Cl
ATOM     18  C   UNL     1      10.357   1.619  23.982  0.00  0.00    +0.020 A 
ATOM     19  C   UNL     1      10.408   2.263  22.749  0.00  0.00    +0.001 A 
ATOM     20  C   UNL     1       9.705   1.739  21.670  0.00  0.00    +0.001 A 
ATOM     21  C   UNL     1       8.938   0.578  21.828  0.00  0.00    +0.011 A 
ENDBRANCH  11  15
TORSDOF 1
ENDMDL
MODEL 3
REMARK VINA RESULT:      -6.0      4.908      6.600
REMARK  Name = 
REMARK  1 active torsions:
REMARK  status: ('A' for Active; 'I' for Inactive)
REMARK    1  A    between atoms: C_11  and  C_12
REMARK                            x       y       z     vdW  Elec       q    Type
REMARK                         _______ _______ _______ _____ _____    ______ ____
ROOT
ATOM      1 CL   UNL     1       5.990   1.451  27.830  0.00  0.00    -0.084 Cl
ATOM      2  C   UNL     1       7.163   0.793  26.757  0.00  0.00    +0.042 A 
ATOM      3  C   UNL     1       7.927  -0.297  27.164  0.00  0.00    +0.022 A 
ATOM      4  C   UNL     1       8.879  -0.829  26.297  0.00  0.00    +0.025 A 
ATOM      5  C   UNL     1       9.064  -0.286  25.017  0.00  0.00    +0.043 A 
ATOM      6  N   UNL     1       9.987  -0.963  24.205  0.00  0.00    -0.283 N 
ATOM      7  H   UNL     1      10.641  -1.610  24.626  0.00  0.00    +0.155 HD
ATOM      8  C   UNL     1       9.954  -1.077  22.840  0.00  0.00    +0.239 C 
ATOM      9  C   UNL     1       8.802  -0.421  22.112  0.00  0.00    +0.238 C 
ATOM     10  N   UNL     1       8.895   1.022  22.240  0.00  0.00    -0.273 NA
ATOM     11  C   UNL     1       8.634   1.606  23.360  0.00  0.00    +0.076 C 
ATOM     12  O   UNL     1      10.784  -1.791  22.276  0.00  0.00    -0.273 OA
ATOM     13  C   UNL     1       8.331   0.856  24.630  0.00  0.00    +0.023 A 
ATOM     14  C   UNL     1       7.356   1.368  25.502  0.00  0.00    +0.032 A 
ENDROOT
BRANCH  11  15
ATOM     15  C   UNL     1       8.701   3.119  23.369  0.00  0.00    +0.019 A 
ATOM     16  C   UNL     1       7.685   3.928  22.818  0.00  0.00    +0.050 A 
ATOM     17 CL   UNL     1       6.192   3.330  22.175  0.00  0.00    -0.083 Cl
ATOM     18  C   UNL     1       7.819   5.325  22.811  0.00  0.00    +0.020 A 
ATOM     19  C   UNL     1       8.939   5.935  23.370  0.00  0.00    +0.001 A 
ATOM     20  C   UNL     1       9.946   5.150  23.921  0.00  0.00    +0.001 A 
ATOM     21  C   UNL     1       9.839   3.754  23.901  0.00  0.00    +0.011 A 
ENDBRANCH  11  15
TORSDOF 1
ENDMDL
MODEL 4
REMARK VINA RESULT:      -6.0      5.763      8.906
REMARK  Name = 
REMARK  1 active torsions:
REMARK  status: ('A' for Active; 'I' for Inactive)
REMARK    1  A    between atoms: C_11  and  C_12
REMARK                            x       y       z     vdW  Elec       q    Type
REMARK                         _______ _______ _______ _____ _____    ______ ____
ROOT
ATOM      1 CL   UNL     1      13.123   4.872  23.285  0.00  0.00    -0.084 Cl
ATOM      2  C   UNL     1      11.444   4.999  23.642  0.00  0.00    +0.042 A 
ATOM      3  C   UNL     1      10.965   6.144  24.274  0.00  0.00    +0.022 A 
ATOM      4  C   UNL     1       9.606   6.247  24.567  0.00  0.00    +0.025 A 
ATOM      5  C   UNL     1       8.719   5.217  24.219  0.00  0.00    +0.043 A 
ATOM      6  N   UNL     1       7.366   5.475  24.485  0.00  0.00    -0.283 N 
ATOM      7  H   UNL     1       7.116   6.224  25.117  0.00  0.00    +0.155 HD
ATOM      8  C   UNL     1       6.286   5.011  23.780  0.00  0.00    +0.239 C 
ATOM      9  C   UNL     1       6.560   4.137  22.577  0.00  0.00    +0.238 C 
ATOM     10  N   UNL     1       7.139   2.876  23.005  0.00  0.00    -0.273 NA
ATOM     11  C   UNL     1       8.354   2.816  23.435  0.00  0.00    +0.076 C 
ATOM     12  O   UNL     1       5.158   5.408  24.077  0.00  0.00    -0.273 OA
ATOM     13  C   UNL     1       9.218   4.033  23.635  0.00  0.00    +0.023 A 
ATOM     14  C   UNL     1      10.584   3.951  23.321  0.00  0.00    +0.032 A 
ENDROOT
BRANCH  11  15
ATOM     15  C   UNL     1       8.879   1.443  23.798  0.00  0.00    +0.019 A 
ATOM     16  C   UNL     1       9.208   0.475  22.827  0.00  0.00    +0.050 A 
ATOM     17 CL   UNL     1       9.179   0.747  21.117  0.00  0.00    -0.083 Cl
ATOM     18  C   UNL     1       9.648  -0.799  23.219  0.00  0.00    +0.020 A 
ATOM     19  C   UNL     1       9.791  -1.119  24.567  0.00  0.00    +0.001 A 
ATOM     20  C   UNL     1       9.474  -0.172  25.535  0.00  0.00    +0.001 A 
ATOM     21  C   UNL     1       9.001   1.090  25.156  0.00  0.00    +0.011 A 
ENDBRANCH  11  15
TORSDOF 1
ENDMDL
MODEL 5
REMARK VINA RESULT:      -6.0      2.859      5.727
REMARK  Name = 
REMARK  1 active torsions:
REMARK  status: ('A' for Active; 'I' for Inactive)
REMARK    1  A    between atoms: C_11  and  C_12
REMARK                            x       y       z     vdW  Elec       q    Type
REMARK                         _______ _______ _______ _____ _____    ______ ____
ROOT
ATOM      1 CL   UNL     1       4.295  -0.081  26.798  0.00  0.00    -0.084 Cl
ATOM      2  C   UNL     1       5.505  -0.406  25.620  0.00  0.00    +0.042 A 
ATOM      3  C   UNL     1       5.908   0.608  24.756  0.00  0.00    +0.022 A 
ATOM      4  C   UNL     1       6.885   0.345  23.798  0.00  0.00    +0.025 A 
ATOM      5  C   UNL     1       7.475  -0.925  23.707  0.00  0.00    +0.043 A 
ATOM      6  N   UNL     1       8.508  -1.041  22.765  0.00  0.00    -0.283 N 
ATOM      7  H   UNL     1       8.609  -0.337  22.046  0.00  0.00    +0.155 HD
ATOM      8  C   UNL     1       9.603  -1.861  22.842  0.00  0.00    +0.239 C 
ATOM      9  C   UNL     1       9.737  -2.733  24.069  0.00  0.00    +0.238 C 
ATOM     10  N   UNL     1       8.679  -3.727  24.087  0.00  0.00    -0.273 NA
ATOM     11  C   UNL     1       7.461  -3.394  24.350  0.00  0.00    +0.076 C 
ATOM     12  O   UNL     1      10.479  -1.777  21.980  0.00  0.00    -0.273 OA
ATOM     13  C   UNL     1       7.021  -1.967  24.543  0.00  0.00    +0.023 A 
ATOM     14  C   UNL     1       6.053  -1.684  25.521  0.00  0.00    +0.032 A 
ENDROOT
BRANCH  11  15
ATOM     15  C   UNL     1       6.446  -4.516  24.404  0.00  0.00    +0.019 A 
ATOM     16  C   UNL     1       6.250  -5.309  25.554  0.00  0.00    +0.050 A 
ATOM     17 CL   UNL     1       7.034  -5.046  27.076  0.00  0.00    -0.083 Cl
ATOM     18  C   UNL     1       5.328  -6.367  25.535  0.00  0.00    +0.020 A 
ATOM     19  C   UNL     1       4.575  -6.634  24.394  0.00  0.00    +0.001 A 
ATOM     20  C   UNL     1       4.754  -5.857  23.255  0.00  0.00    +0.001 A 
ATOM     21  C   UNL     1       5.697  -4.822  23.252  0.00  0.00    +0.011 A 
ENDBRANCH  11  15
TORSDOF 1
ENDMDL
MODEL 6
REMARK VINA RESULT:      -6.0      2.735      4.009
REMARK  Name = 
REMARK  1 active torsions:
REMARK  status: ('A' for Active; 'I' for Inactive)
REMARK    1  A    between atoms: C_11  and  C_12
REMARK                            x       y       z     vdW  Elec       q    Type
REMARK                         _______ _______ _______ _____ _____    ______ ____
ROOT
ATOM      1 CL   UNL     1       4.943  -0.636  27.815  0.00  0.00    -0.084 Cl
ATOM      2  C   UNL     1       5.725  -1.806  26.825  0.00  0.00    +0.042 A 
ATOM      3  C   UNL     1       5.725  -3.143  27.217  0.00  0.00    +0.022 A 
ATOM      4  C   UNL     1       6.361  -4.091  26.418  0.00  0.00    +0.025 A 
ATOM      5  C   UNL     1       6.987  -3.714  25.220  0.00  0.00    +0.043 A 
ATOM      6  N   UNL     1       7.513  -4.768  24.460  0.00  0.00    -0.283 N 
ATOM      7  H   UNL     1       7.656  -5.673  24.892  0.00  0.00    +0.155 HD
ATOM      8  C   UNL     1       7.621  -4.826  23.095  0.00  0.00    +0.239 C 
ATOM      9  C   UNL     1       7.112  -3.642  22.304  0.00  0.00    +0.238 C 
ATOM     10  N   UNL     1       7.939  -2.478  22.571  0.00  0.00    -0.273 NA
ATOM     11  C   UNL     1       7.871  -1.863  23.703  0.00  0.00    +0.076 C 
ATOM     12  O   UNL     1       8.014  -5.866  22.565  0.00  0.00    -0.273 OA
ATOM     13  C   UNL     1       7.038  -2.350  24.857  0.00  0.00    +0.023 A 
ATOM     14  C   UNL     1       6.372  -1.407  25.657  0.00  0.00    +0.032 A 
ENDROOT
BRANCH  11  15
ATOM     15  C   UNL     1       8.730  -0.625  23.854  0.00  0.00    +0.019 A 
ATOM     16  C   UNL     1       8.360   0.627  23.321  0.00  0.00    +0.050 A 
ATOM     17 CL   UNL     1       6.850   0.956  22.539  0.00  0.00    -0.083 Cl
ATOM     18  C   UNL     1       9.216   1.732  23.452  0.00  0.00    +0.020 A 
ATOM     19  C   UNL     1      10.427   1.618  24.129  0.00  0.00    +0.001 A 
ATOM     20  C   UNL     1      10.802   0.391  24.664  0.00  0.00    +0.001 A 
ATOM     21  C   UNL     1       9.973  -0.726  24.509  0.00  0.00    +0.011 A 
ENDBRANCH  11  15
TORSDOF 1
ENDMDL
MODEL 7
REMARK VINA RESULT:      -6.0      3.450      5.845
REMARK  Name = 
REMARK  1 active torsions:
REMARK  status: ('A' for Active; 'I' for Inactive)
REMARK    1  A    between atoms: C_11  and  C_12
REMARK                            x       y       z     vdW  Elec       q    Type
REMARK                         _______ _______ _______ _____ _____    ______ ____
ROOT
ATOM      1 CL   UNL     1       4.437  -1.211  26.854  0.00  0.00    -0.084 Cl
ATOM      2  C   UNL     1       5.506  -0.605  25.650  0.00  0.00    +0.042 A 
ATOM      3  C   UNL     1       5.415   0.729  25.264  0.00  0.00    +0.022 A 
ATOM      4  C   UNL     1       6.278   1.221  24.286  0.00  0.00    +0.025 A 
ATOM      5  C   UNL     1       7.244   0.388  23.700  0.00  0.00    +0.043 A 
ATOM      6  N   UNL     1       8.111   1.019  22.796  0.00  0.00    -0.283 N 
ATOM      7  H   UNL     1       7.864   1.924  22.417  0.00  0.00    +0.155 HD
ATOM      8  C   UNL     1       9.418   0.693  22.546  0.00  0.00    +0.239 C 
ATOM      9  C   UNL     1      10.012  -0.458  23.326  0.00  0.00    +0.238 C 
ATOM     10  N   UNL     1       9.367  -1.700  22.940  0.00  0.00    -0.273 NA
ATOM     11  C   UNL     1       8.159  -1.961  23.307  0.00  0.00    +0.076 C 
ATOM     12  O   UNL     1      10.083   1.407  21.794  0.00  0.00    -0.273 OA
ATOM     13  C   UNL     1       7.293  -0.978  24.050  0.00  0.00    +0.023 A 
ATOM     14  C   UNL     1       6.436  -1.456  25.054  0.00  0.00    +0.032 A 
ENDROOT
BRANCH  11  15
ATOM     15  C   UNL     1       7.603  -3.310  22.904  0.00  0.00    +0.019 A 
ATOM     16  C   UNL     1       8.027  -4.516  23.500  0.00  0.00    +0.050 A 
ATOM     17 CL   UNL     1       9.129  -4.621  24.832  0.00  0.00    -0.083 Cl
ATOM     18  C   UNL     1       7.512  -5.744  23.056  0.00  0.00    +0.020 A 
ATOM     19  C   UNL     1       6.558  -5.791  22.043  0.00  0.00    +0.001 A 
ATOM     20  C   UNL     1       6.127  -4.610  21.450  0.00  0.00    +0.001 A 
ATOM     21  C   UNL     1       6.660  -3.382  21.860  0.00  0.00    +0.011 A 
ENDBRANCH  11  15
TORSDOF 1
ENDMDL
MODEL 8
REMARK VINA RESULT:      -5.9      2.267      2.683
REMARK  Name = 
REMARK  1 active torsions:
REMARK  status: ('A' for Active; 'I' for Inactive)
REMARK    1  A    between atoms: C_11  and  C_12
REMARK                            x       y       z     vdW  Elec       q    Type
REMARK                         _______ _______ _______ _____ _____    ______ ____
ROOT
ATOM      1 CL   UNL     1       6.442  -5.411  21.034  0.00  0.00    -0.084 Cl
ATOM      2  C   UNL     1       5.955  -4.481  22.397  0.00  0.00    +0.042 A 
ATOM      3  C   UNL     1       4.697  -4.693  22.956  0.00  0.00    +0.022 A 
ATOM      4  C   UNL     1       4.300  -3.938  24.057  0.00  0.00    +0.025 A 
ATOM      5  C   UNL     1       5.159  -2.978  24.614  0.00  0.00    +0.043 A 
ATOM      6  N   UNL     1       4.683  -2.346  25.773  0.00  0.00    -0.283 N 
ATOM      7  H   UNL     1       3.699  -2.400  26.002  0.00  0.00    +0.155 HD
ATOM      8  C   UNL     1       5.431  -1.871  26.818  0.00  0.00    +0.239 C 
ATOM      9  C   UNL     1       6.930  -2.048  26.740  0.00  0.00    +0.238 C 
ATOM     10  N   UNL     1       7.467  -1.238  25.661  0.00  0.00    -0.273 NA
ATOM     11  C   UNL     1       7.277  -1.567  24.428  0.00  0.00    +0.076 C 
ATOM     12  O   UNL     1       4.859  -1.429  27.815  0.00  0.00    -0.273 OA
ATOM     13  C   UNL     1       6.408  -2.722  24.008  0.00  0.00    +0.023 A 
ATOM     14  C   UNL     1       6.808  -3.507  22.914  0.00  0.00    +0.032 A 
ENDROOT
BRANCH  11  15
ATOM     15  C   UNL     1       7.932  -0.689  23.382  0.00  0.00    +0.019 A 
ATOM     16  C   UNL     1       9.242  -0.915  22.912  0.00  0.00    +0.050 A 
ATOM     17 CL   UNL     1      10.228  -2.267  23.360  0.00  0.00    -0.083 Cl
ATOM     18  C   UNL     1       9.818  -0.043  21.975  0.00  0.00    +0.020 A 
ATOM     19  C   UNL     1       9.099   1.039  21.475  0.00  0.00    +0.001 A 
ATOM     20  C   UNL     1       7.804   1.272  21.926  0.00  0.00    +0.001 A 
ATOM     21  C   UNL     1       7.233   0.429  22.887  0.00  0.00    +0.011 A 
ENDBRANCH  11  15
TORSDOF 1
ENDMDL
MODEL 9
REMARK VINA RESULT:      -5.9      2.753      5.453
REMARK  Name = 
REMARK  1 active torsions:
REMARK  status: ('A' for Active; 'I' for Inactive)
REMARK    1  A    between atoms: C_11  and  C_12
REMARK                            x       y       z     vdW  Elec       q    Type
REMARK                         _______ _______ _______ _____ _____    ______ ____
ROOT
ATOM      1 CL   UNL     1       9.767  -0.418  25.605  0.00  0.00    -0.084 Cl
ATOM      2  C   UNL     1       8.799  -1.319  24.504  0.00  0.00    +0.042 A 
ATOM      3  C   UNL     1       8.478  -0.767  23.266  0.00  0.00    +0.022 A 
ATOM      4  C   UNL     1       7.691  -1.494  22.375  0.00  0.00    +0.025 A 
ATOM      5  C   UNL     1       7.232  -2.778  22.708  0.00  0.00    +0.043 A 
ATOM      6  N   UNL     1       6.526  -3.444  21.696  0.00  0.00    -0.283 N 
ATOM      7  H   UNL     1       6.162  -2.918  20.912  0.00  0.00    +0.155 HD
ATOM      8  C   UNL     1       6.484  -4.796  21.474  0.00  0.00    +0.239 C 
ATOM      9  C   UNL     1       7.288  -5.680  22.400  0.00  0.00    +0.238 C 
ATOM     10  N   UNL     1       6.729  -5.629  23.739  0.00  0.00    -0.273 NA
ATOM     11  C   UNL     1       6.869  -4.581  24.477  0.00  0.00    +0.076 C 
ATOM     12  O   UNL     1       5.897  -5.225  20.479  0.00  0.00    -0.273 OA
ATOM     13  C   UNL     1       7.508  -3.309  23.987  0.00  0.00    +0.023 A 
ATOM     14  C   UNL     1       8.323  -2.578  24.867  0.00  0.00    +0.032 A 
ENDROOT
BRANCH  11  15
ATOM     15  C   UNL     1       6.302  -4.655  25.879  0.00  0.00    +0.019 A 
ATOM     16  C   UNL     1       5.190  -3.891  26.291  0.00  0.00    +0.050 A 
ATOM     17 CL   UNL     1       4.257  -2.871  25.247  0.00  0.00    -0.083 Cl
ATOM     18  C   UNL     1       4.733  -3.964  27.616  0.00  0.00    +0.020 A 
ATOM     19  C   UNL     1       5.350  -4.809  28.535  0.00  0.00    +0.001 A 
ATOM     20  C   UNL     1       6.443  -5.572  28.142  0.00  0.00    +0.001 A 
ATOM     21  C   UNL     1       6.930  -5.480  26.832  0.00  0.00    +0.011 A 
ENDBRANCH  11  15
TORSDOF 1
ENDMDL
