MODEL 1
REMARK VINA RESULT:      -6.7      0.000      0.000
REMARK  Name = 
REMARK  8 active torsions:
REMARK  status: ('A' for Active; 'I' for Inactive)
REMARK    1  A    between atoms: C_1  and  O_2
REMARK    2  A    between atoms: O_2  and  C_3
REMARK    3  A    between atoms: C_7  and  N_8
REMARK    4  A    between atoms: N_8  and  S_9
REMARK    5  A    between atoms: S_9  and  C_12
REMARK    6  A    between atoms: C_15  and  N_16
REMARK    7  A    between atoms: C_19  and  O_20
REMARK    8  A    between atoms: O_20  and  C_21
REMARK                            x       y       z     vdW  Elec       q    Type
REMARK                         _______ _______ _______ _____ _____    ______ ____
ROOT
ATOM      1  N   UNL     1       7.916  -2.185  24.569  0.00  0.00    -0.196 N 
ATOM      2  H   UNL     1       7.095  -1.671  24.260  0.00  0.00    +0.175 HD
ENDROOT
BRANCH   1   5
ATOM      3  C   UNL     1       6.459  -5.379  25.596  0.00  0.00    +0.263 A 
ATOM      4  C   UNL     1       6.541  -4.201  24.870  0.00  0.00    +0.223 A 
ATOM      5  C   UNL     1       7.657  -3.432  25.191  0.00  0.00    +0.187 A 
ATOM      6  N   UNL     1       8.589  -3.750  26.103  0.00  0.00    -0.216 NA
ATOM      7  C   UNL     1       8.375  -4.894  26.751  0.00  0.00    +0.227 A 
ATOM      8  N   UNL     1       7.357  -5.736  26.544  0.00  0.00    -0.198 NA
BRANCH   3  10
ATOM      9  C   UNL     1       4.810  -6.752  26.581  0.00  0.00    +0.279 C 
ATOM     10  O   UNL     1       5.392  -6.228  25.391  0.00  0.00    -0.477 OA
ENDBRANCH   3  10
BRANCH   4  11
ATOM     11  O   UNL     1       5.686  -3.690  23.937  0.00  0.00    -0.488 OA
ATOM     12  C   UNL     1       5.589  -4.352  22.679  0.00  0.00    +0.277 C 
ENDBRANCH   4  11
ENDBRANCH   1   5
BRANCH   1  13
ATOM     13  S   UNL     1       9.090  -2.182  23.365  0.00  0.00    +0.074 S 
ATOM     14  O   UNL     1       8.395  -2.478  22.130  0.00  0.00    -0.150 OA
ATOM     15  O   UNL     1      10.220  -2.982  23.791  0.00  0.00    -0.150 OA
BRANCH  13  16
ATOM     16  C   UNL     1       9.603  -0.485  23.269  0.00  0.00    +0.109 A 
ATOM     17  C   UNL     1       9.515   0.187  22.048  0.00  0.00    +0.030 A 
ATOM     18  C   UNL     1       9.933   1.519  21.965  0.00  0.00    +0.024 A 
ATOM     19  C   UNL     1      10.404   2.195  23.096  0.00  0.00    +0.025 A 
ATOM     20  C   UNL     1      10.566   1.480  24.287  0.00  0.00    +0.024 A 
ATOM     21  C   UNL     1      10.149   0.149  24.387  0.00  0.00    +0.030 A 
BRANCH  19  22
ATOM     22  N   UNL     1      10.920   3.492  22.977  0.00  0.00    -0.358 N 
ATOM     23  H   UNL     1      10.735   3.921  22.075  0.00  0.00    +0.142 HD
ATOM     24  H   UNL     1      10.675   4.102  23.749  0.00  0.00    +0.142 HD
ENDBRANCH  19  22
ENDBRANCH  13  16
ENDBRANCH   1  13
TORSDOF 6
ENDMDL
MODEL 2
REMARK VINA RESULT:      -6.4      1.869      2.112
REMARK  Name = 
REMARK  8 active torsions:
REMARK  status: ('A' for Active; 'I' for Inactive)
REMARK    1  A    between atoms: C_1  and  O_2
REMARK    2  A    between atoms: O_2  and  C_3
REMARK    3  A    between atoms: C_7  and  N_8
REMARK    4  A    between atoms: N_8  and  S_9
REMARK    5  A    between atoms: S_9  and  C_12
REMARK    6  A    between atoms: C_15  and  N_16
REMARK    7  A    between atoms: C_19  and  O_20
REMARK    8  A    between atoms: O_20  and  C_21
REMARK                            x       y       z     vdW  Elec       q    Type
REMARK                         _______ _______ _______ _____ _____    ______ ____
ROOT
ATOM      1  N   UNL     1       9.755  -2.177  24.578  0.00  0.00    -0.196 N 
ATOM      2  H   UNL     1       9.912  -1.407  25.222  0.00  0.00    +0.175 HD
ENDROOT
BRANCH   1   5
ATOM      3  C   UNL     1       7.779  -4.470  26.632  0.00  0.00    +0.263 A 
ATOM      4  C   UNL     1       8.271  -3.239  26.226  0.00  0.00    +0.223 A 
ATOM      5  C   UNL     1       9.134  -3.322  25.136  0.00  0.00    +0.187 A 
ATOM      6  N   UNL     1       9.490  -4.453  24.506  0.00  0.00    -0.216 NA
ATOM      7  C   UNL     1       8.970  -5.569  25.016  0.00  0.00    +0.227 A 
ATOM      8  N   UNL     1       8.123  -5.641  26.048  0.00  0.00    -0.198 NA
BRANCH   3  10
ATOM      9  C   UNL     1       6.122  -5.710  27.768  0.00  0.00    +0.279 C 
ATOM     10  O   UNL     1       6.925  -4.534  27.713  0.00  0.00    -0.477 OA
ENDBRANCH   3  10
BRANCH   4  11
ATOM     11  O   UNL     1       8.060  -1.997  26.753  0.00  0.00    -0.488 OA
ATOM     12  C   UNL     1       6.796  -1.378  26.531  0.00  0.00    +0.277 C 
ENDBRANCH   4  11
ENDBRANCH   1   5
BRANCH   1  13
ATOM     13  S   UNL     1       9.104  -1.605  23.137  0.00  0.00    +0.074 S 
ATOM     14  O   UNL     1       7.675  -1.812  23.235  0.00  0.00    -0.150 OA
ATOM     15  O   UNL     1       9.856  -2.143  22.021  0.00  0.00    -0.150 OA
BRANCH  13  16
ATOM     16  C   UNL     1       9.373   0.147  23.208  0.00  0.00    +0.109 A 
ATOM     17  C   UNL     1       9.870   0.810  22.084  0.00  0.00    +0.030 A 
ATOM     18  C   UNL     1      10.098   2.188  22.142  0.00  0.00    +0.024 A 
ATOM     19  C   UNL     1       9.802   2.916  23.300  0.00  0.00    +0.025 A 
ATOM     20  C   UNL     1       9.389   2.222  24.442  0.00  0.00    +0.024 A 
ATOM     21  C   UNL     1       9.152   0.844  24.398  0.00  0.00    +0.030 A 
BRANCH  19  22
ATOM     22  N   UNL     1      10.136   4.274  23.382  0.00  0.00    -0.358 N 
ATOM     23  H   UNL     1       9.367   4.863  23.688  0.00  0.00    +0.142 HD
ATOM     24  H   UNL     1      10.987   4.454  23.903  0.00  0.00    +0.142 HD
ENDBRANCH  19  22
ENDBRANCH  13  16
ENDBRANCH   1  13
TORSDOF 6
ENDMDL
MODEL 3
REMARK VINA RESULT:      -6.3      1.254      2.307
REMARK  Name = 
REMARK  8 active torsions:
REMARK  status: ('A' for Active; 'I' for Inactive)
REMARK    1  A    between atoms: C_1  and  O_2
REMARK    2  A    between atoms: O_2  and  C_3
REMARK    3  A    between atoms: C_7  and  N_8
REMARK    4  A    between atoms: N_8  and  S_9
REMARK    5  A    between atoms: S_9  and  C_12
REMARK    6  A    between atoms: C_15  and  N_16
REMARK    7  A    between atoms: C_19  and  O_20
REMARK    8  A    between atoms: O_20  and  C_21
REMARK                            x       y       z     vdW  Elec       q    Type
REMARK                         _______ _______ _______ _____ _____    ______ ____
ROOT
ATOM      1  N   UNL     1       7.707  -2.105  23.851  0.00  0.00    -0.196 N 
ATOM      2  H   UNL     1       7.145  -1.330  23.506  0.00  0.00    +0.175 HD
ENDROOT
BRANCH   1   5
ATOM      3  C   UNL     1       6.346  -5.301  24.997  0.00  0.00    +0.263 A 
ATOM      4  C   UNL     1       7.046  -4.109  25.112  0.00  0.00    +0.223 A 
ATOM      5  C   UNL     1       7.037  -3.350  23.944  0.00  0.00    +0.187 A 
ATOM      6  N   UNL     1       6.432  -3.691  22.795  0.00  0.00    -0.216 NA
ATOM      7  C   UNL     1       5.820  -4.875  22.811  0.00  0.00    +0.227 A 
ATOM      8  N   UNL     1       5.739  -5.703  23.858  0.00  0.00    -0.198 NA
BRANCH   3  10
ATOM      9  C   UNL     1       4.980  -6.615  26.405  0.00  0.00    +0.279 C 
ATOM     10  O   UNL     1       6.289  -6.158  26.076  0.00  0.00    -0.477 OA
ENDBRANCH   3  10
BRANCH   4  11
ATOM     11  O   UNL     1       7.751  -3.608  26.169  0.00  0.00    -0.488 OA
ATOM     12  C   UNL     1       8.915  -4.311  26.593  0.00  0.00    +0.277 C 
ENDBRANCH   4  11
ENDBRANCH   1   5
BRANCH   1  13
ATOM     13  S   UNL     1       9.206  -2.120  23.089  0.00  0.00    +0.074 S 
ATOM     14  O   UNL     1       8.945  -2.447  21.703  0.00  0.00    -0.150 OA
ATOM     15  O   UNL     1      10.138  -2.905  23.874  0.00  0.00    -0.150 OA
BRANCH  13  16
ATOM     16  C   UNL     1       9.724  -0.423  23.125  0.00  0.00    +0.109 A 
ATOM     17  C   UNL     1      10.191   0.125  24.322  0.00  0.00    +0.030 A 
ATOM     18  C   UNL     1      10.585   1.466  24.357  0.00  0.00    +0.024 A 
ATOM     19  C   UNL     1      10.551   2.254  23.201  0.00  0.00    +0.025 A 
ATOM     20  C   UNL     1       9.998   1.713  22.035  0.00  0.00    +0.024 A 
ATOM     21  C   UNL     1       9.604   0.373  21.984  0.00  0.00    +0.030 A 
BRANCH  19  22
ATOM     22  N   UNL     1      10.844   3.622  23.273  0.00  0.00    -0.358 N 
ATOM     23  H   UNL     1      11.396   3.876  24.088  0.00  0.00    +0.142 HD
ATOM     24  H   UNL     1      11.228   4.003  22.416  0.00  0.00    +0.142 HD
ENDBRANCH  19  22
ENDBRANCH  13  16
ENDBRANCH   1  13
TORSDOF 6
ENDMDL
MODEL 4
REMARK VINA RESULT:      -6.3      1.890      2.806
REMARK  Name = 
REMARK  8 active torsions:
REMARK  status: ('A' for Active; 'I' for Inactive)
REMARK    1  A    between atoms: C_1  and  O_2
REMARK    2  A    between atoms: O_2  and  C_3
REMARK    3  A    between atoms: C_7  and  N_8
REMARK    4  A    between atoms: N_8  and  S_9
REMARK    5  A    between atoms: S_9  and  C_12
REMARK    6  A    between atoms: C_15  and  N_16
REMARK    7  A    between atoms: C_19  and  O_20
REMARK    8  A    between atoms: O_20  and  C_21
REMARK                            x       y       z     vdW  Elec       q    Type
REMARK                         _______ _______ _______ _____ _____    ______ ____
ROOT
ATOM      1  N   UNL     1       6.839  -2.689  24.219  0.00  0.00    -0.196 N 
ATOM      2  H   UNL     1       6.533  -1.814  23.803  0.00  0.00    +0.175 HD
ENDROOT
BRANCH   1   5
ATOM      3  C   UNL     1       5.438  -5.992  23.504  0.00  0.00    +0.263 A 
ATOM      4  C   UNL     1       5.830  -4.930  24.305  0.00  0.00    +0.223 A 
ATOM      5  C   UNL     1       6.366  -3.865  23.584  0.00  0.00    +0.187 A 
ATOM      6  N   UNL     1       6.512  -3.819  22.251  0.00  0.00    -0.216 NA
ATOM      7  C   UNL     1       6.123  -4.917  21.604  0.00  0.00    +0.227 A 
ATOM      8  N   UNL     1       5.585  -6.008  22.160  0.00  0.00    -0.198 NA
BRANCH   3  10
ATOM      9  C   UNL     1       3.494  -7.087  24.278  0.00  0.00    +0.279 C 
ATOM     10  O   UNL     1       4.906  -7.121  24.091  0.00  0.00    -0.477 OA
ENDBRANCH   3  10
BRANCH   4  11
ATOM     11  O   UNL     1       5.798  -4.803  25.664  0.00  0.00    -0.488 OA
ATOM     12  C   UNL     1       6.758  -5.525  26.429  0.00  0.00    +0.277 C 
ENDBRANCH   4  11
ENDBRANCH   1   5
BRANCH   1  13
ATOM     13  S   UNL     1       8.486  -2.633  24.549  0.00  0.00    +0.074 S 
ATOM     14  O   UNL     1       9.066  -3.779  23.882  0.00  0.00    -0.150 OA
ATOM     15  O   UNL     1       8.687  -2.422  25.969  0.00  0.00    -0.150 OA
BRANCH  13  16
ATOM     16  C   UNL     1       9.051  -1.194  23.678  0.00  0.00    +0.109 A 
ATOM     17  C   UNL     1       9.413  -0.055  24.399  0.00  0.00    +0.030 A 
ATOM     18  C   UNL     1       9.842   1.086  23.714  0.00  0.00    +0.024 A 
ATOM     19  C   UNL     1       9.948   1.088  22.319  0.00  0.00    +0.025 A 
ATOM     20  C   UNL     1       9.498  -0.031  21.610  0.00  0.00    +0.024 A 
ATOM     21  C   UNL     1       9.070  -1.181  22.281  0.00  0.00    +0.030 A 
BRANCH  19  22
ATOM     22  N   UNL     1      10.275   2.268  21.639  0.00  0.00    -0.358 N 
ATOM     23  H   UNL     1      11.267   2.359  21.438  0.00  0.00    +0.142 HD
ATOM     24  H   UNL     1       9.701   2.441  20.822  0.00  0.00    +0.142 HD
ENDBRANCH  19  22
ENDBRANCH  13  16
ENDBRANCH   1  13
TORSDOF 6
ENDMDL
MODEL 5
REMARK VINA RESULT:      -6.3      1.836      2.108
REMARK  Name = 
REMARK  8 active torsions:
REMARK  status: ('A' for Active; 'I' for Inactive)
REMARK    1  A    between atoms: C_1  and  O_2
REMARK    2  A    between atoms: O_2  and  C_3
REMARK    3  A    between atoms: C_7  and  N_8
REMARK    4  A    between atoms: N_8  and  S_9
REMARK    5  A    between atoms: S_9  and  C_12
REMARK    6  A    between atoms: C_15  and  N_16
REMARK    7  A    between atoms: C_19  and  O_20
REMARK    8  A    between atoms: O_20  and  C_21
REMARK                            x       y       z     vdW  Elec       q    Type
REMARK                         _______ _______ _______ _____ _____    ______ ____
ROOT
ATOM      1  N   UNL     1       8.413  -2.847  23.038  0.00  0.00    -0.196 N 
ATOM      2  H   UNL     1       8.555  -3.236  22.110  0.00  0.00    +0.175 HD
ENDROOT
BRANCH   1   5
ATOM      3  C   UNL     1       7.010  -4.926  25.702  0.00  0.00    +0.263 A 
ATOM      4  C   UNL     1       6.991  -3.960  24.707  0.00  0.00    +0.223 A 
ATOM      5  C   UNL     1       8.220  -3.796  24.074  0.00  0.00    +0.187 A 
ATOM      6  N   UNL     1       9.342  -4.475  24.359  0.00  0.00    -0.216 NA
ATOM      7  C   UNL     1       9.232  -5.352  25.356  0.00  0.00    +0.227 A 
ATOM      8  N   UNL     1       8.118  -5.622  26.045  0.00  0.00    -0.198 NA
BRANCH   3  10
ATOM      9  C   UNL     1       5.152  -6.347  26.022  0.00  0.00    +0.279 C 
ATOM     10  O   UNL     1       5.862  -5.178  26.422  0.00  0.00    -0.477 OA
ENDBRANCH   3  10
BRANCH   4  11
ATOM     11  O   UNL     1       5.973  -3.146  24.300  0.00  0.00    -0.488 OA
ATOM     12  C   UNL     1       5.023  -3.670  23.375  0.00  0.00    +0.277 C 
ENDBRANCH   4  11
ENDBRANCH   1   5
BRANCH   1  13
ATOM     13  S   UNL     1       9.538  -1.634  23.339  0.00  0.00    +0.074 S 
ATOM     14  O   UNL     1      10.601  -1.829  22.376  0.00  0.00    -0.150 OA
ATOM     15  O   UNL     1       9.824  -1.582  24.759  0.00  0.00    -0.150 OA
BRANCH  13  16
ATOM     16  C   UNL     1       8.696  -0.142  22.876  0.00  0.00    +0.109 A 
ATOM     17  C   UNL     1       7.381   0.061  23.298  0.00  0.00    +0.030 A 
ATOM     18  C   UNL     1       6.709   1.228  22.921  0.00  0.00    +0.024 A 
ATOM     19  C   UNL     1       7.350   2.209  22.158  0.00  0.00    +0.025 A 
ATOM     20  C   UNL     1       8.636   1.949  21.671  0.00  0.00    +0.024 A 
ATOM     21  C   UNL     1       9.321   0.788  22.043  0.00  0.00    +0.030 A 
BRANCH  19  22
ATOM     22  N   UNL     1       6.634   3.322  21.696  0.00  0.00    -0.358 N 
ATOM     23  H   UNL     1       6.871   3.591  20.746  0.00  0.00    +0.142 HD
ATOM     24  H   UNL     1       5.633   3.248  21.835  0.00  0.00    +0.142 HD
ENDBRANCH  19  22
ENDBRANCH  13  16
ENDBRANCH   1  13
TORSDOF 6
ENDMDL
MODEL 6
REMARK VINA RESULT:      -6.3      1.766      2.249
REMARK  Name = 
REMARK  8 active torsions:
REMARK  status: ('A' for Active; 'I' for Inactive)
REMARK    1  A    between atoms: C_1  and  O_2
REMARK    2  A    between atoms: O_2  and  C_3
REMARK    3  A    between atoms: C_7  and  N_8
REMARK    4  A    between atoms: N_8  and  S_9
REMARK    5  A    between atoms: S_9  and  C_12
REMARK    6  A    between atoms: C_15  and  N_16
REMARK    7  A    between atoms: C_19  and  O_20
REMARK    8  A    between atoms: O_20  and  C_21
REMARK                            x       y       z     vdW  Elec       q    Type
REMARK                         _______ _______ _______ _____ _____    ______ ____
ROOT
ATOM      1  N   UNL     1       8.023  -2.624  22.977  0.00  0.00    -0.196 N 
ATOM      2  H   UNL     1       8.323  -3.113  22.138  0.00  0.00    +0.175 HD
ENDROOT
BRANCH   1   5
ATOM      3  C   UNL     1       5.488  -4.863  24.369  0.00  0.00    +0.263 A 
ATOM      4  C   UNL     1       6.663  -4.536  23.711  0.00  0.00    +0.223 A 
ATOM      5  C   UNL     1       6.884  -3.164  23.624  0.00  0.00    +0.187 A 
ATOM      6  N   UNL     1       6.073  -2.210  24.109  0.00  0.00    -0.216 NA
ATOM      7  C   UNL     1       4.962  -2.660  24.693  0.00  0.00    +0.227 A 
ATOM      8  N   UNL     1       4.624  -3.943  24.856  0.00  0.00    -0.198 NA
BRANCH   3  10
ATOM      9  C   UNL     1       4.897  -6.603  25.852  0.00  0.00    +0.279 C 
ATOM     10  O   UNL     1       5.138  -6.190  24.510  0.00  0.00    -0.477 OA
ENDBRANCH   3  10
BRANCH   4  11
ATOM     11  O   UNL     1       7.589  -5.349  23.122  0.00  0.00    -0.488 OA
ATOM     12  C   UNL     1       7.264  -5.939  21.867  0.00  0.00    +0.277 C 
ENDBRANCH   4  11
ENDBRANCH   1   5
BRANCH   1  13
ATOM     13  S   UNL     1       9.346  -2.285  23.957  0.00  0.00    +0.074 S 
ATOM     14  O   UNL     1      10.440  -3.080  23.438  0.00  0.00    -0.150 OA
ATOM     15  O   UNL     1       8.954  -2.383  25.349  0.00  0.00    -0.150 OA
BRANCH  13  16
ATOM     16  C   UNL     1       9.728  -0.591  23.595  0.00  0.00    +0.109 A 
ATOM     17  C   UNL     1      10.007   0.287  24.644  0.00  0.00    +0.030 A 
ATOM     18  C   UNL     1      10.292   1.627  24.362  0.00  0.00    +0.024 A 
ATOM     19  C   UNL     1      10.338   2.089  23.043  0.00  0.00    +0.025 A 
ATOM     20  C   UNL     1       9.969   1.217  22.013  0.00  0.00    +0.024 A 
ATOM     21  C   UNL     1       9.685  -0.127  22.278  0.00  0.00    +0.030 A 
BRANCH  19  22
ATOM     22  N   UNL     1      10.517   3.454  22.780  0.00  0.00    -0.358 N 
ATOM     23  H   UNL     1       9.647   3.953  22.618  0.00  0.00    +0.142 HD
ATOM     24  H   UNL     1      11.109   3.924  23.454  0.00  0.00    +0.142 HD
ENDBRANCH  19  22
ENDBRANCH  13  16
ENDBRANCH   1  13
TORSDOF 6
ENDMDL
MODEL 7
REMARK VINA RESULT:      -6.2      1.382      1.862
REMARK  Name = 
REMARK  8 active torsions:
REMARK  status: ('A' for Active; 'I' for Inactive)
REMARK    1  A    between atoms: C_1  and  O_2
REMARK    2  A    between atoms: O_2  and  C_3
REMARK    3  A    between atoms: C_7  and  N_8
REMARK    4  A    between atoms: N_8  and  S_9
REMARK    5  A    between atoms: S_9  and  C_12
REMARK    6  A    between atoms: C_15  and  N_16
REMARK    7  A    between atoms: C_19  and  O_20
REMARK    8  A    between atoms: O_20  and  C_21
REMARK                            x       y       z     vdW  Elec       q    Type
REMARK                         _______ _______ _______ _____ _____    ______ ____
ROOT
ATOM      1  N   UNL     1       9.398  -2.595  24.145  0.00  0.00    -0.196 N 
ATOM      2  H   UNL     1      10.164  -2.060  24.546  0.00  0.00    +0.175 HD
ENDROOT
BRANCH   1   5
ATOM      3  C   UNL     1       7.128  -4.778  26.006  0.00  0.00    +0.263 A 
ATOM      4  C   UNL     1       8.042  -4.452  25.015  0.00  0.00    +0.223 A 
ATOM      5  C   UNL     1       8.473  -3.129  25.077  0.00  0.00    +0.187 A 
ATOM      6  N   UNL     1       8.076  -2.219  25.980  0.00  0.00    -0.216 NA
ATOM      7  C   UNL     1       7.172  -2.654  26.858  0.00  0.00    +0.227 A 
ATOM      8  N   UNL     1       6.676  -3.894  26.925  0.00  0.00    -0.198 NA
BRANCH   3  10
ATOM      9  C   UNL     1       5.228  -6.145  25.694  0.00  0.00    +0.279 C 
ATOM     10  O   UNL     1       6.604  -6.053  26.050  0.00  0.00    -0.477 OA
ENDBRANCH   3  10
BRANCH   4  11
ATOM     11  O   UNL     1       8.535  -5.216  23.997  0.00  0.00    -0.488 OA
ATOM     12  C   UNL     1       7.691  -5.473  22.879  0.00  0.00    +0.277 C 
ENDBRANCH   4  11
ENDBRANCH   1   5
BRANCH   1  13
ATOM     13  S   UNL     1       8.742  -1.776  22.831  0.00  0.00    +0.074 S 
ATOM     14  O   UNL     1       7.322  -1.674  23.094  0.00  0.00    -0.150 OA
ATOM     15  O   UNL     1       9.227  -2.369  21.601  0.00  0.00    -0.150 OA
BRANCH  13  16
ATOM     16  C   UNL     1       9.407  -0.137  22.970  0.00  0.00    +0.109 A 
ATOM     17  C   UNL     1       9.702   0.377  24.234  0.00  0.00    +0.030 A 
ATOM     18  C   UNL     1      10.211   1.675  24.348  0.00  0.00    +0.024 A 
ATOM     19  C   UNL     1      10.462   2.449  23.210  0.00  0.00    +0.025 A 
ATOM     20  C   UNL     1      10.078   1.951  21.960  0.00  0.00    +0.024 A 
ATOM     21  C   UNL     1       9.572   0.654  21.830  0.00  0.00    +0.030 A 
BRANCH  19  22
ATOM     22  N   UNL     1      10.868   3.783  23.342  0.00  0.00    -0.358 N 
ATOM     23  H   UNL     1      11.619   4.043  22.709  0.00  0.00    +0.142 HD
ATOM     24  H   UNL     1      10.103   4.447  23.322  0.00  0.00    +0.142 HD
ENDBRANCH  19  22
ENDBRANCH  13  16
ENDBRANCH   1  13
TORSDOF 6
ENDMDL
MODEL 8
REMARK VINA RESULT:      -6.1      2.108      2.794
REMARK  Name = 
REMARK  8 active torsions:
REMARK  status: ('A' for Active; 'I' for Inactive)
REMARK    1  A    between atoms: C_1  and  O_2
REMARK    2  A    between atoms: O_2  and  C_3
REMARK    3  A    between atoms: C_7  and  N_8
REMARK    4  A    between atoms: N_8  and  S_9
REMARK    5  A    between atoms: S_9  and  C_12
REMARK    6  A    between atoms: C_15  and  N_16
REMARK    7  A    between atoms: C_19  and  O_20
REMARK    8  A    between atoms: O_20  and  C_21
REMARK                            x       y       z     vdW  Elec       q    Type
REMARK                         _______ _______ _______ _____ _____    ______ ____
ROOT
ATOM      1  N   UNL     1       7.716  -3.419  23.744  0.00  0.00    -0.196 N 
ATOM      2  H   UNL     1       7.979  -4.196  23.144  0.00  0.00    +0.175 HD
ENDROOT
BRANCH   1   5
ATOM      3  C   UNL     1       4.503  -3.053  25.452  0.00  0.00    +0.263 A 
ATOM      4  C   UNL     1       5.542  -2.674  24.618  0.00  0.00    +0.223 A 
ATOM      5  C   UNL     1       6.558  -3.623  24.535  0.00  0.00    +0.187 A 
ATOM      6  N   UNL     1       6.580  -4.801  25.177  0.00  0.00    -0.216 NA
ATOM      7  C   UNL     1       5.534  -5.030  25.971  0.00  0.00    +0.227 A 
ATOM      8  N   UNL     1       4.486  -4.217  26.142  0.00  0.00    -0.198 NA
BRANCH   3  10
ATOM      9  C   UNL     1       3.008  -2.069  26.992  0.00  0.00    +0.279 C 
ATOM     10  O   UNL     1       3.438  -2.197  25.640  0.00  0.00    -0.477 OA
ENDBRANCH   3  10
BRANCH   4  11
ATOM     11  O   UNL     1       5.720  -1.517  23.915  0.00  0.00    -0.488 OA
ATOM     12  C   UNL     1       6.085  -0.343  24.634  0.00  0.00    +0.277 C 
ENDBRANCH   4  11
ENDBRANCH   1   5
BRANCH   1  13
ATOM     13  S   UNL     1       9.068  -2.818  24.544  0.00  0.00    +0.074 S 
ATOM     14  O   UNL     1      10.138  -3.756  24.276  0.00  0.00    -0.150 OA
ATOM     15  O   UNL     1       8.709  -2.470  25.904  0.00  0.00    -0.150 OA
BRANCH  13  16
ATOM     16  C   UNL     1       9.462  -1.328  23.663  0.00  0.00    +0.109 A 
ATOM     17  C   UNL     1       9.966  -0.232  24.365  0.00  0.00    +0.030 A 
ATOM     18  C   UNL     1      10.262   0.949  23.677  0.00  0.00    +0.024 A 
ATOM     19  C   UNL     1      10.093   1.032  22.290  0.00  0.00    +0.025 A 
ATOM     20  C   UNL     1       9.505  -0.045  21.619  0.00  0.00    +0.024 A 
ATOM     21  C   UNL     1       9.207  -1.233  22.293  0.00  0.00    +0.030 A 
BRANCH  19  22
ATOM     22  N   UNL     1      10.290   2.252  21.629  0.00  0.00    -0.358 N 
ATOM     23  H   UNL     1      10.767   2.158  20.738  0.00  0.00    +0.142 HD
ATOM     24  H   UNL     1       9.451   2.817  21.558  0.00  0.00    +0.142 HD
ENDBRANCH  19  22
ENDBRANCH  13  16
ENDBRANCH   1  13
TORSDOF 6
ENDMDL
MODEL 9
REMARK VINA RESULT:      -6.1      2.027      2.438
REMARK  Name = 
REMARK  8 active torsions:
REMARK  status: ('A' for Active; 'I' for Inactive)
REMARK    1  A    between atoms: C_1  and  O_2
REMARK    2  A    between atoms: O_2  and  C_3
REMARK    3  A    between atoms: C_7  and  N_8
REMARK    4  A    between atoms: N_8  and  S_9
REMARK    5  A    between atoms: S_9  and  C_12
REMARK    6  A    between atoms: C_15  and  N_16
REMARK    7  A    between atoms: C_19  and  O_20
REMARK    8  A    between atoms: O_20  and  C_21
REMARK                            x       y       z     vdW  Elec       q    Type
REMARK                         _______ _______ _______ _____ _____    ______ ____
ROOT
ATOM      1  N   UNL     1       8.287  -2.827  22.774  0.00  0.00    -0.196 N 
ATOM      2  H   UNL     1       8.717  -3.526  22.174  0.00  0.00    +0.175 HD
ENDROOT
BRANCH   1   5
ATOM      3  C   UNL     1       6.436  -4.827  25.215  0.00  0.00    +0.263 A 
ATOM      4  C   UNL     1       7.499  -4.512  24.382  0.00  0.00    +0.223 A 
ATOM      5  C   UNL     1       7.320  -3.318  23.687  0.00  0.00    +0.187 A 
ATOM      6  N   UNL     1       6.248  -2.515  23.776  0.00  0.00    -0.216 NA
ATOM      7  C   UNL     1       5.286  -2.949  24.589  0.00  0.00    +0.227 A 
ATOM      8  N   UNL     1       5.322  -4.066  25.324  0.00  0.00    -0.198 NA
BRANCH   3  10
ATOM      9  C   UNL     1       5.366  -6.182  26.825  0.00  0.00    +0.279 C 
ATOM     10  O   UNL     1       6.474  -5.993  25.949  0.00  0.00    -0.477 OA
ENDBRANCH   3  10
BRANCH   4  11
ATOM     11  O   UNL     1       8.645  -5.209  24.129  0.00  0.00    -0.488 OA
ATOM     12  C   UNL     1       9.611  -5.315  25.171  0.00  0.00    +0.277 C 
ENDBRANCH   4  11
ENDBRANCH   1   5
BRANCH   1  13
ATOM     13  S   UNL     1       9.461  -1.805  23.410  0.00  0.00    +0.074 S 
ATOM     14  O   UNL     1      10.662  -2.050  22.639  0.00  0.00    -0.150 OA
ATOM     15  O   UNL     1       9.472  -1.922  24.855  0.00  0.00    -0.150 OA
BRANCH  13  16
ATOM     16  C   UNL     1       8.897  -0.179  22.977  0.00  0.00    +0.109 A 
ATOM     17  C   UNL     1       9.147   0.313  21.695  0.00  0.00    +0.030 A 
ATOM     18  C   UNL     1       8.719   1.600  21.356  0.00  0.00    +0.024 A 
ATOM     19  C   UNL     1       8.011   2.385  22.273  0.00  0.00    +0.025 A 
ATOM     20  C   UNL     1       7.848   1.910  23.579  0.00  0.00    +0.024 A 
ATOM     21  C   UNL     1       8.268   0.623  23.931  0.00  0.00    +0.030 A 
BRANCH  19  22
ATOM     22  N   UNL     1       7.683   3.710  21.959  0.00  0.00    -0.358 N 
ATOM     23  H   UNL     1       6.800   3.803  21.465  0.00  0.00    +0.142 HD
ATOM     24  H   UNL     1       7.751   4.345  22.746  0.00  0.00    +0.142 HD
ENDBRANCH  19  22
ENDBRANCH  13  16
ENDBRANCH   1  13
TORSDOF 6
ENDMDL
