MODEL 1
REMARK VINA RESULT:      -7.1      0.000      0.000
REMARK  Name = 
REMARK  11 active torsions:
REMARK  status: ('A' for Active; 'I' for Inactive)
REMARK    1  A    between atoms: N_1  and  C_2
REMARK    2  A    between atoms: C_2  and  C_4
REMARK    3  A    between atoms: C_2  and  C_24
REMARK    4  A    between atoms: C_4  and  C_5
REMARK    5  A    between atoms: C_5  and  C_6
REMARK    6  A    between atoms: N_8  and  C_9
REMARK    7  A    between atoms: C_9  and  C_11
REMARK    8  A    between atoms: C_9  and  C_21
REMARK    9  A    between atoms: C_11  and  C_12
REMARK   10  A    between atoms: C_21  and  O_22
REMARK   11  A    between atoms: C_24  and  O_25
REMARK                            x       y       z     vdW  Elec       q    Type
REMARK                         _______ _______ _______ _____ _____    ______ ____
ROOT
ATOM      1  C   UNK     1       8.697  -3.970  24.517  0.00  0.00    +0.186 C 
ENDROOT
BRANCH   1   3
ATOM      2  C   UNK     1       6.798  -4.896  23.182  0.00  0.00    +0.214 C 
ATOM      3  N   UNK     1       7.246  -4.309  24.353  0.00  0.00    -0.302 N 
ATOM      4  H   UNK     1       6.587  -3.691  24.821  0.00  0.00    +0.150 HD
ATOM      5  O   UNK     1       7.572  -5.259  22.306  0.00  0.00    -0.276 OA
BRANCH   2   6
ATOM      6  C   UNK     1       5.283  -5.117  23.087  0.00  0.00    +0.098 C 
BRANCH   6   7
ATOM      7  C   UNK     1       4.627  -4.993  24.477  0.00  0.00    +0.039 C 
BRANCH   7   8
ATOM      8  C   UNK     1       4.210  -6.314  25.143  0.00  0.00    +0.161 C 
BRANCH   8   9
ATOM      9  N   UNK     1       4.257  -7.500  24.255  0.00  0.00    -0.318 NA
ATOM     10  H   UNK     1       4.615  -7.231  23.338  0.00  0.00    +0.119 HD
ATOM     11  H   UNK     1       4.962  -8.153  24.619  0.00  0.00    +0.119 HD
ENDBRANCH   8   9
BRANCH   8  12
ATOM     12  C   UNK     1       5.091  -6.628  26.376  0.00  0.00    +0.322 C 
ATOM     13  O   UNK     1       6.254  -6.296  26.532  0.00  0.00    -0.249 OA
BRANCH  12  14
ATOM     14  O   UNK     1       4.397  -7.336  27.307  0.00  0.00    -0.480 OA
ATOM     15  H   UNK     1       3.458  -7.043  27.275  0.00  0.00    +0.295 HD
ENDBRANCH  12  14
ENDBRANCH   8  12
ENDBRANCH   7   8
ENDBRANCH   6   7
ENDBRANCH   2   6
ENDBRANCH   1   3
BRANCH   1  16
ATOM     16  C   UNK     1       9.333  -4.760  25.678  0.00  0.00    +0.326 C 
ATOM     17  O   UNK     1       9.078  -4.573  26.864  0.00  0.00    -0.249 OA
BRANCH  16  18
ATOM     18  O   UNK     1      10.164  -5.756  25.275  0.00  0.00    -0.479 OA
ATOM     19  H   UNK     1      10.535  -5.530  24.396  0.00  0.00    +0.295 HD
ENDBRANCH  16  18
ENDBRANCH   1  16
BRANCH   1  20
ATOM     20  C   UNK     1       8.974  -2.477  24.814  0.00  0.00    +0.071 C 
BRANCH  20  21
ATOM     21  C   UNK     1       9.317  -1.696  23.585  0.00  0.00    -0.020 A 
ATOM     22  C   UNK     1       9.790  -0.350  23.546  0.00  0.00    +0.003 A 
ATOM     23  C   UNK     1       9.746   0.064  22.217  0.00  0.00    +0.047 A 
ATOM     24  C   UNK     1       9.966   1.392  21.836  0.00  0.00    +0.026 A 
ATOM     25  C   UNK     1      10.297   2.303  22.842  0.00  0.00    +0.002 A 
ATOM     26  C   UNK     1      10.446   1.893  24.165  0.00  0.00    +0.001 A 
ATOM     27  N   UNK     1       9.471  -1.050  21.458  0.00  0.00    -0.360 N 
ATOM     28  H   UNK     1       9.449  -1.069  20.448  0.00  0.00    +0.165 HD
ATOM     29  C   UNK     1      10.194   0.574  24.532  0.00  0.00    +0.010 A 
ATOM     30  C   UNK     1       9.213  -2.121  22.275  0.00  0.00    +0.087 A 
ENDBRANCH  20  21
ENDBRANCH   1  20
TORSDOF 11
ENDMDL
MODEL 2
REMARK VINA RESULT:      -6.7      2.986      4.809
REMARK  Name = 
REMARK  11 active torsions:
REMARK  status: ('A' for Active; 'I' for Inactive)
REMARK    1  A    between atoms: N_1  and  C_2
REMARK    2  A    between atoms: C_2  and  C_4
REMARK    3  A    between atoms: C_2  and  C_24
REMARK    4  A    between atoms: C_4  and  C_5
REMARK    5  A    between atoms: C_5  and  C_6
REMARK    6  A    between atoms: N_8  and  C_9
REMARK    7  A    between atoms: C_9  and  C_11
REMARK    8  A    between atoms: C_9  and  C_21
REMARK    9  A    between atoms: C_11  and  C_12
REMARK   10  A    between atoms: C_21  and  O_22
REMARK   11  A    between atoms: C_24  and  O_25
REMARK                            x       y       z     vdW  Elec       q    Type
REMARK                         _______ _______ _______ _____ _____    ______ ____
ROOT
ATOM      1  C   UNK     1       9.236  -0.174  23.473  0.00  0.00    +0.186 C 
ENDROOT
BRANCH   1   3
ATOM      2  C   UNK     1       7.777  -1.110  25.273  0.00  0.00    +0.214 C 
ATOM      3  N   UNK     1       9.025  -1.043  24.676  0.00  0.00    -0.302 N 
ATOM      4  H   UNK     1       9.821  -1.145  25.300  0.00  0.00    +0.150 HD
ATOM      5  O   UNK     1       6.796  -0.569  24.781  0.00  0.00    -0.276 OA
BRANCH   2   6
ATOM      6  C   UNK     1       7.696  -1.958  26.549  0.00  0.00    +0.098 C 
BRANCH   6   7
ATOM      7  C   UNK     1       7.465  -3.443  26.202  0.00  0.00    +0.039 C 
BRANCH   7   8
ATOM      8  C   UNK     1       8.588  -4.410  26.611  0.00  0.00    +0.161 C 
BRANCH   8   9
ATOM      9  N   UNK     1       8.124  -5.708  27.156  0.00  0.00    -0.318 NA
ATOM     10  H   UNK     1       7.927  -5.613  28.153  0.00  0.00    +0.119 HD
ATOM     11  H   UNK     1       7.211  -5.929  26.741  0.00  0.00    +0.119 HD
ENDBRANCH   8   9
BRANCH   8  12
ATOM     12  C   UNK     1       9.528  -4.721  25.421  0.00  0.00    +0.322 C 
ATOM     13  O   UNK     1       9.673  -4.037  24.422  0.00  0.00    -0.249 OA
BRANCH  12  14
ATOM     14  O   UNK     1      10.205  -5.882  25.621  0.00  0.00    -0.480 OA
ATOM     15  H   UNK     1      10.608  -6.153  24.764  0.00  0.00    +0.295 HD
ENDBRANCH  12  14
ENDBRANCH   8  12
ENDBRANCH   7   8
ENDBRANCH   6   7
ENDBRANCH   2   6
ENDBRANCH   1   3
BRANCH   1  16
ATOM     16  C   UNK     1       9.710  -0.998  22.260  0.00  0.00    +0.326 C 
ATOM     17  O   UNK     1       9.362  -0.787  21.102  0.00  0.00    -0.249 OA
BRANCH  16  18
ATOM     18  O   UNK     1      10.624  -1.955  22.567  0.00  0.00    -0.479 OA
ATOM     19  H   UNK     1      11.482  -1.725  22.154  0.00  0.00    +0.295 HD
ENDBRANCH  16  18
ENDBRANCH   1  16
BRANCH   1  20
ATOM     20  C   UNK     1      10.289   0.942  23.669  0.00  0.00    +0.071 C 
BRANCH  20  21
ATOM     21  C   UNK     1       9.674   2.294  23.841  0.00  0.00    -0.020 A 
ATOM     22  C   UNK     1      10.349   3.547  23.727  0.00  0.00    +0.003 A 
ATOM     23  C   UNK     1       9.479   4.528  24.200  0.00  0.00    +0.047 A 
ATOM     24  C   UNK     1       9.879   5.852  24.404  0.00  0.00    +0.026 A 
ATOM     25  C   UNK     1      11.190   6.188  24.058  0.00  0.00    +0.002 A 
ATOM     26  C   UNK     1      12.048   5.250  23.489  0.00  0.00    +0.001 A 
ATOM     27  N   UNK     1       8.256   3.925  24.383  0.00  0.00    -0.360 N 
ATOM     28  H   UNK     1       7.409   4.407  24.652  0.00  0.00    +0.165 HD
ATOM     29  C   UNK     1      11.644   3.928  23.320  0.00  0.00    +0.010 A 
ATOM     30  C   UNK     1       8.361   2.575  24.166  0.00  0.00    +0.087 A 
ENDBRANCH  20  21
ENDBRANCH   1  20
TORSDOF 11
ENDMDL
MODEL 3
REMARK VINA RESULT:      -6.5      2.811      6.617
REMARK  Name = 
REMARK  11 active torsions:
REMARK  status: ('A' for Active; 'I' for Inactive)
REMARK    1  A    between atoms: N_1  and  C_2
REMARK    2  A    between atoms: C_2  and  C_4
REMARK    3  A    between atoms: C_2  and  C_24
REMARK    4  A    between atoms: C_4  and  C_5
REMARK    5  A    between atoms: C_5  and  C_6
REMARK    6  A    between atoms: N_8  and  C_9
REMARK    7  A    between atoms: C_9  and  C_11
REMARK    8  A    between atoms: C_9  and  C_21
REMARK    9  A    between atoms: C_11  and  C_12
REMARK   10  A    between atoms: C_21  and  O_22
REMARK   11  A    between atoms: C_24  and  O_25
REMARK                            x       y       z     vdW  Elec       q    Type
REMARK                         _______ _______ _______ _____ _____    ______ ____
ROOT
ATOM      1  C   UNK     1       8.414  -3.373  26.137  0.00  0.00    +0.186 C 
ENDROOT
BRANCH   1   3
ATOM      2  C   UNK     1       8.949  -0.944  25.897  0.00  0.00    +0.214 C 
ATOM      3  N   UNK     1       8.899  -2.207  25.331  0.00  0.00    -0.302 N 
ATOM      4  H   UNK     1       8.702  -2.238  24.334  0.00  0.00    +0.150 HD
ATOM      5  O   UNK     1       8.717  -0.760  27.085  0.00  0.00    -0.276 OA
BRANCH   2   6
ATOM      6  C   UNK     1       9.375   0.190  24.956  0.00  0.00    +0.098 C 
BRANCH   6   7
ATOM      7  C   UNK     1      10.399  -0.318  23.921  0.00  0.00    +0.039 C 
BRANCH   7   8
ATOM      8  C   UNK     1       9.933  -0.311  22.456  0.00  0.00    +0.161 C 
BRANCH   8   9
ATOM      9  N   UNK     1       8.645  -1.002  22.210  0.00  0.00    -0.318 NA
ATOM     10  H   UNK     1       8.042  -0.910  23.028  0.00  0.00    +0.119 HD
ATOM     11  H   UNK     1       8.141  -0.500  21.469  0.00  0.00    +0.119 HD
ENDBRANCH   8   9
BRANCH   8  12
ATOM     12  C   UNK     1       9.791   1.132  21.914  0.00  0.00    +0.322 C 
ATOM     13  O   UNK     1      10.458   2.095  22.252  0.00  0.00    -0.249 OA
BRANCH  12  14
ATOM     14  O   UNK     1       8.808   1.210  20.980  0.00  0.00    -0.480 OA
ATOM     15  H   UNK     1       7.941   1.155  21.443  0.00  0.00    +0.295 HD
ENDBRANCH  12  14
ENDBRANCH   8  12
ENDBRANCH   7   8
ENDBRANCH   6   7
ENDBRANCH   2   6
ENDBRANCH   1   3
BRANCH   1  16
ATOM     16  C   UNK     1       9.128  -4.677  25.728  0.00  0.00    +0.326 C 
ATOM     17  O   UNK     1      10.052  -4.736  24.922  0.00  0.00    -0.249 OA
BRANCH  16  18
ATOM     18  O   UNK     1       8.696  -5.774  26.401  0.00  0.00    -0.479 OA
ATOM     19  H   UNK     1       9.468  -6.246  26.777  0.00  0.00    +0.295 HD
ENDBRANCH  16  18
ENDBRANCH   1  16
BRANCH   1  20
ATOM     20  C   UNK     1       6.899  -3.656  26.002  0.00  0.00    +0.071 C 
BRANCH  20  21
ATOM     21  C   UNK     1       6.374  -3.359  24.634  0.00  0.00    -0.020 A 
ATOM     22  C   UNK     1       6.285  -4.281  23.547  0.00  0.00    +0.003 A 
ATOM     23  C   UNK     1       5.980  -3.544  22.405  0.00  0.00    +0.047 A 
ATOM     24  C   UNK     1       5.998  -4.102  21.123  0.00  0.00    +0.026 A 
ATOM     25  C   UNK     1       6.279  -5.466  21.020  0.00  0.00    +0.002 A 
ATOM     26  C   UNK     1       6.488  -6.247  22.155  0.00  0.00    +0.001 A 
ATOM     27  N   UNK     1       5.679  -2.267  22.820  0.00  0.00    -0.360 N 
ATOM     28  H   UNK     1       5.350  -1.526  22.216  0.00  0.00    +0.165 HD
ATOM     29  C   UNK     1       6.497  -5.669  23.422  0.00  0.00    +0.010 A 
ATOM     30  C   UNK     1       5.911  -2.145  24.166  0.00  0.00    +0.087 A 
ENDBRANCH  20  21
ENDBRANCH   1  20
TORSDOF 11
ENDMDL
MODEL 4
REMARK VINA RESULT:      -6.4      2.952      6.574
REMARK  Name = 
REMARK  11 active torsions:
REMARK  status: ('A' for Active; 'I' for Inactive)
REMARK    1  A    between atoms: N_1  and  C_2
REMARK    2  A    between atoms: C_2  and  C_4
REMARK    3  A    between atoms: C_2  and  C_24
REMARK    4  A    between atoms: C_4  and  C_5
REMARK    5  A    between atoms: C_5  and  C_6
REMARK    6  A    between atoms: N_8  and  C_9
REMARK    7  A    between atoms: C_9  and  C_11
REMARK    8  A    between atoms: C_9  and  C_21
REMARK    9  A    between atoms: C_11  and  C_12
REMARK   10  A    between atoms: C_21  and  O_22
REMARK   11  A    between atoms: C_24  and  O_25
REMARK                            x       y       z     vdW  Elec       q    Type
REMARK                         _______ _______ _______ _____ _____    ______ ____
ROOT
ATOM      1  C   UNK     1       8.706  -3.516  25.667  0.00  0.00    +0.186 C 
ENDROOT
BRANCH   1   3
ATOM      2  C   UNK     1       9.627  -1.633  24.307  0.00  0.00    +0.214 C 
ATOM      3  N   UNK     1       9.305  -2.976  24.403  0.00  0.00    -0.302 N 
ATOM      4  H   UNK     1       9.007  -3.425  23.540  0.00  0.00    +0.150 HD
ATOM      5  O   UNK     1       9.549  -0.880  25.268  0.00  0.00    -0.276 OA
BRANCH   2   6
ATOM      6  C   UNK     1      10.149  -1.173  22.939  0.00  0.00    +0.098 C 
BRANCH   6   7
ATOM      7  C   UNK     1       9.002  -0.600  22.083  0.00  0.00    +0.039 C 
BRANCH   7   8
ATOM      8  C   UNK     1       8.591   0.849  22.393  0.00  0.00    +0.161 C 
BRANCH   8   9
ATOM      9  N   UNK     1       7.685   1.003  23.556  0.00  0.00    -0.318 NA
ATOM     10  H   UNK     1       8.230   1.217  24.392  0.00  0.00    +0.119 HD
ATOM     11  H   UNK     1       7.109   1.841  23.412  0.00  0.00    +0.119 HD
ENDBRANCH   8   9
BRANCH   8  12
ATOM     12  C   UNK     1       9.827   1.744  22.651  0.00  0.00    +0.322 C 
ATOM     13  O   UNK     1      10.306   2.012  23.740  0.00  0.00    -0.249 OA
BRANCH  12  14
ATOM     14  O   UNK     1      10.345   2.213  21.485  0.00  0.00    -0.480 OA
ATOM     15  H   UNK     1       9.599   2.380  20.865  0.00  0.00    +0.295 HD
ENDBRANCH  12  14
ENDBRANCH   8  12
ENDBRANCH   7   8
ENDBRANCH   6   7
ENDBRANCH   2   6
ENDBRANCH   1   3
BRANCH   1  16
ATOM     16  C   UNK     1       9.072  -4.999  25.875  0.00  0.00    +0.326 C 
ATOM     17  O   UNK     1       8.321  -5.834  26.369  0.00  0.00    -0.249 OA
BRANCH  16  18
ATOM     18  O   UNK     1      10.295  -5.337  25.389  0.00  0.00    -0.479 OA
ATOM     19  H   UNK     1      10.194  -6.069  24.744  0.00  0.00    +0.295 HD
ENDBRANCH  16  18
ENDBRANCH   1  16
BRANCH   1  20
ATOM     20  C   UNK     1       7.162  -3.445  25.723  0.00  0.00    +0.071 C 
BRANCH  20  21
ATOM     21  C   UNK     1       6.542  -3.246  24.376  0.00  0.00    -0.020 A 
ATOM     22  C   UNK     1       6.400  -4.237  23.359  0.00  0.00    +0.003 A 
ATOM     23  C   UNK     1       6.006  -3.580  22.196  0.00  0.00    +0.047 A 
ATOM     24  C   UNK     1       5.950  -4.220  20.954  0.00  0.00    +0.026 A 
ATOM     25  C   UNK     1       6.251  -5.584  20.919  0.00  0.00    +0.002 A 
ATOM     26  C   UNK     1       6.549  -6.286  22.084  0.00  0.00    +0.001 A 
ATOM     27  N   UNK     1       5.708  -2.284  22.548  0.00  0.00    -0.360 N 
ATOM     28  H   UNK     1       5.325  -1.589  21.921  0.00  0.00    +0.165 HD
ATOM     29  C   UNK     1       6.630  -5.627  23.309  0.00  0.00    +0.010 A 
ATOM     30  C   UNK     1       6.025  -2.071  23.865  0.00  0.00    +0.087 A 
ENDBRANCH  20  21
ENDBRANCH   1  20
TORSDOF 11
ENDMDL
MODEL 5
REMARK VINA RESULT:      -6.3      3.094      7.192
REMARK  Name = 
REMARK  11 active torsions:
REMARK  status: ('A' for Active; 'I' for Inactive)
REMARK    1  A    between atoms: N_1  and  C_2
REMARK    2  A    between atoms: C_2  and  C_4
REMARK    3  A    between atoms: C_2  and  C_24
REMARK    4  A    between atoms: C_4  and  C_5
REMARK    5  A    between atoms: C_5  and  C_6
REMARK    6  A    between atoms: N_8  and  C_9
REMARK    7  A    between atoms: C_9  and  C_11
REMARK    8  A    between atoms: C_9  and  C_21
REMARK    9  A    between atoms: C_11  and  C_12
REMARK   10  A    between atoms: C_21  and  O_22
REMARK   11  A    between atoms: C_24  and  O_25
REMARK                            x       y       z     vdW  Elec       q    Type
REMARK                         _______ _______ _______ _____ _____    ______ ____
ROOT
ATOM      1  C   UNK     1       7.803  -1.748  25.518  0.00  0.00    +0.186 C 
ENDROOT
BRANCH   1   3
ATOM      2  C   UNK     1       8.043  -1.061  23.127  0.00  0.00    +0.214 C 
ATOM      3  N   UNK     1       8.627  -1.252  24.369  0.00  0.00    -0.302 N 
ATOM      4  H   UNK     1       9.603  -1.540  24.361  0.00  0.00    +0.150 HD
ATOM      5  O   UNK     1       6.836  -1.173  22.958  0.00  0.00    -0.276 OA
BRANCH   2   6
ATOM      6  C   UNK     1       8.997  -0.638  22.003  0.00  0.00    +0.098 C 
BRANCH   6   7
ATOM      7  C   UNK     1      10.215   0.113  22.577  0.00  0.00    +0.039 C 
BRANCH   7   8
ATOM      8  C   UNK     1      10.150   1.648  22.509  0.00  0.00    +0.161 C 
BRANCH   8   9
ATOM      9  N   UNK     1       9.136   2.187  21.573  0.00  0.00    -0.318 NA
ATOM     10  H   UNK     1       9.050   3.196  21.701  0.00  0.00    +0.119 HD
ATOM     11  H   UNK     1       9.489   2.085  20.613  0.00  0.00    +0.119 HD
ENDBRANCH   8   9
BRANCH   8  12
ATOM     12  C   UNK     1       9.866   2.264  23.899  0.00  0.00    +0.322 C 
ATOM     13  O   UNK     1       9.540   3.418  24.121  0.00  0.00    -0.249 OA
BRANCH  12  14
ATOM     14  O   UNK     1      10.019   1.342  24.886  0.00  0.00    -0.480 OA
ATOM     15  H   UNK     1      10.920   1.450  25.268  0.00  0.00    +0.295 HD
ENDBRANCH  12  14
ENDBRANCH   8  12
ENDBRANCH   7   8
ENDBRANCH   6   7
ENDBRANCH   2   6
ENDBRANCH   1   3
BRANCH   1  16
ATOM     16  C   UNK     1       7.889  -0.794  26.726  0.00  0.00    +0.326 C 
ATOM     17  O   UNK     1       6.917  -0.382  27.352  0.00  0.00    -0.249 OA
BRANCH  16  18
ATOM     18  O   UNK     1       9.160  -0.496  27.101  0.00  0.00    -0.479 OA
ATOM     19  H   UNK     1       9.608  -1.314  27.402  0.00  0.00    +0.295 HD
ENDBRANCH  16  18
ENDBRANCH   1  16
BRANCH   1  20
ATOM     20  C   UNK     1       8.215  -3.143  26.045  0.00  0.00    +0.071 C 
BRANCH  20  21
ATOM     21  C   UNK     1       7.224  -4.209  25.700  0.00  0.00    -0.020 A 
ATOM     22  C   UNK     1       7.032  -4.796  24.414  0.00  0.00    +0.003 A 
ATOM     23  C   UNK     1       5.862  -5.550  24.476  0.00  0.00    +0.047 A 
ATOM     24  C   UNK     1       5.273  -6.118  23.342  0.00  0.00    +0.026 A 
ATOM     25  C   UNK     1       5.935  -5.955  22.123  0.00  0.00    +0.002 A 
ATOM     26  C   UNK     1       7.158  -5.291  22.051  0.00  0.00    +0.001 A 
ATOM     27  N   UNK     1       5.484  -5.597  25.798  0.00  0.00    -0.360 N 
ATOM     28  H   UNK     1       4.708  -6.136  26.157  0.00  0.00    +0.165 HD
ATOM     29  C   UNK     1       7.716  -4.706  23.184  0.00  0.00    +0.010 A 
ATOM     30  C   UNK     1       6.302  -4.792  26.548  0.00  0.00    +0.087 A 
ENDBRANCH  20  21
ENDBRANCH   1  20
TORSDOF 11
ENDMDL
MODEL 6
REMARK VINA RESULT:      -6.1      1.522      2.162
REMARK  Name = 
REMARK  11 active torsions:
REMARK  status: ('A' for Active; 'I' for Inactive)
REMARK    1  A    between atoms: N_1  and  C_2
REMARK    2  A    between atoms: C_2  and  C_4
REMARK    3  A    between atoms: C_2  and  C_24
REMARK    4  A    between atoms: C_4  and  C_5
REMARK    5  A    between atoms: C_5  and  C_6
REMARK    6  A    between atoms: N_8  and  C_9
REMARK    7  A    between atoms: C_9  and  C_11
REMARK    8  A    between atoms: C_9  and  C_21
REMARK    9  A    between atoms: C_11  and  C_12
REMARK   10  A    between atoms: C_21  and  O_22
REMARK   11  A    between atoms: C_24  and  O_25
REMARK                            x       y       z     vdW  Elec       q    Type
REMARK                         _______ _______ _______ _____ _____    ______ ____
ROOT
ATOM      1  C   UNK     1       7.855  -3.918  24.568  0.00  0.00    +0.186 C 
ENDROOT
BRANCH   1   3
ATOM      2  C   UNK     1       5.656  -4.417  23.492  0.00  0.00    +0.214 C 
ATOM      3  N   UNK     1       6.761  -4.871  24.192  0.00  0.00    -0.302 N 
ATOM      4  H   UNK     1       6.593  -5.638  24.838  0.00  0.00    +0.150 HD
ATOM      5  O   UNK     1       5.590  -3.273  23.062  0.00  0.00    -0.276 OA
BRANCH   2   6
ATOM      6  C   UNK     1       4.558  -5.458  23.238  0.00  0.00    +0.098 C 
BRANCH   6   7
ATOM      7  C   UNK     1       4.826  -6.742  24.048  0.00  0.00    +0.039 C 
BRANCH   7   8
ATOM      8  C   UNK     1       3.953  -6.942  25.298  0.00  0.00    +0.161 C 
BRANCH   8   9
ATOM      9  N   UNK     1       3.228  -8.233  25.350  0.00  0.00    -0.318 NA
ATOM     10  H   UNK     1       3.749  -8.899  25.922  0.00  0.00    +0.119 HD
ATOM     11  H   UNK     1       2.350  -8.094  25.865  0.00  0.00    +0.119 HD
ENDBRANCH   8   9
BRANCH   8  12
ATOM     12  C   UNK     1       4.790  -6.832  26.596  0.00  0.00    +0.322 C 
ATOM     13  O   UNK     1       5.941  -6.438  26.678  0.00  0.00    -0.249 OA
BRANCH  12  14
ATOM     14  O   UNK     1       4.071  -7.231  27.678  0.00  0.00    -0.480 OA
ATOM     15  H   UNK     1       3.995  -8.213  27.648  0.00  0.00    +0.295 HD
ENDBRANCH  12  14
ENDBRANCH   8  12
ENDBRANCH   7   8
ENDBRANCH   6   7
ENDBRANCH   2   6
ENDBRANCH   1   3
BRANCH   1  16
ATOM     16  C   UNK     1       9.000  -4.639  25.307  0.00  0.00    +0.326 C 
ATOM     17  O   UNK     1      10.133  -4.780  24.856  0.00  0.00    -0.249 OA
BRANCH  16  18
ATOM     18  O   UNK     1       8.674  -5.051  26.559  0.00  0.00    -0.479 OA
ATOM     19  H   UNK     1       8.884  -4.338  27.198  0.00  0.00    +0.295 HD
ENDBRANCH  16  18
ENDBRANCH   1  16
BRANCH   1  20
ATOM     20  C   UNK     1       7.406  -2.766  25.498  0.00  0.00    +0.071 C 
BRANCH  20  21
ATOM     21  C   UNK     1       8.278  -1.557  25.384  0.00  0.00    -0.020 A 
ATOM     22  C   UNK     1       8.656  -0.901  24.173  0.00  0.00    +0.003 A 
ATOM     23  C   UNK     1       9.659   0.011  24.494  0.00  0.00    +0.047 A 
ATOM     24  C   UNK     1      10.389   0.698  23.520  0.00  0.00    +0.026 A 
ATOM     25  C   UNK     1      10.039   0.485  22.185  0.00  0.00    +0.002 A 
ATOM     26  C   UNK     1       8.974  -0.345  21.842  0.00  0.00    +0.001 A 
ATOM     27  N   UNK     1       9.729   0.065  25.868  0.00  0.00    -0.360 N 
ATOM     28  H   UNK     1      10.319   0.696  26.391  0.00  0.00    +0.165 HD
ATOM     29  C   UNK     1       8.277  -1.046  22.823  0.00  0.00    +0.010 A 
ATOM     30  C   UNK     1       8.896  -0.877  26.416  0.00  0.00    +0.087 A 
ENDBRANCH  20  21
ENDBRANCH   1  20
TORSDOF 11
ENDMDL
MODEL 7
REMARK VINA RESULT:      -6.0      2.965      4.345
REMARK  Name = 
REMARK  11 active torsions:
REMARK  status: ('A' for Active; 'I' for Inactive)
REMARK    1  A    between atoms: N_1  and  C_2
REMARK    2  A    between atoms: C_2  and  C_4
REMARK    3  A    between atoms: C_2  and  C_24
REMARK    4  A    between atoms: C_4  and  C_5
REMARK    5  A    between atoms: C_5  and  C_6
REMARK    6  A    between atoms: N_8  and  C_9
REMARK    7  A    between atoms: C_9  and  C_11
REMARK    8  A    between atoms: C_9  and  C_21
REMARK    9  A    between atoms: C_11  and  C_12
REMARK   10  A    between atoms: C_21  and  O_22
REMARK   11  A    between atoms: C_24  and  O_25
REMARK                            x       y       z     vdW  Elec       q    Type
REMARK                         _______ _______ _______ _____ _____    ______ ____
ROOT
ATOM      1  C   UNK     1       9.265  -0.487  23.478  0.00  0.00    +0.186 C 
ENDROOT
BRANCH   1   3
ATOM      2  C   UNK     1       8.498  -2.380  24.916  0.00  0.00    +0.214 C 
ATOM      3  N   UNK     1       9.399  -1.890  23.986  0.00  0.00    -0.302 N 
ATOM      4  H   UNK     1      10.347  -2.253  24.052  0.00  0.00    +0.150 HD
ATOM      5  O   UNK     1       7.512  -1.741  25.258  0.00  0.00    -0.276 OA
BRANCH   2   6
ATOM      6  C   UNK     1       8.782  -3.796  25.433  0.00  0.00    +0.098 C 
BRANCH   6   7
ATOM      7  C   UNK     1       7.587  -4.729  25.152  0.00  0.00    +0.039 C 
BRANCH   7   8
ATOM      8  C   UNK     1       6.949  -5.393  26.384  0.00  0.00    +0.161 C 
BRANCH   8   9
ATOM      9  N   UNK     1       7.910  -5.815  27.431  0.00  0.00    -0.318 NA
ATOM     10  H   UNK     1       8.182  -6.787  27.277  0.00  0.00    +0.119 HD
ATOM     11  H   UNK     1       8.782  -5.288  27.306  0.00  0.00    +0.119 HD
ENDBRANCH   8   9
BRANCH   8  12
ATOM     12  C   UNK     1       5.916  -4.458  27.058  0.00  0.00    +0.322 C 
ATOM     13  O   UNK     1       5.607  -4.461  28.238  0.00  0.00    -0.249 OA
BRANCH  12  14
ATOM     14  O   UNK     1       5.375  -3.595  26.159  0.00  0.00    -0.480 OA
ATOM     15  H   UNK     1       4.893  -2.896  26.659  0.00  0.00    +0.295 HD
ENDBRANCH  12  14
ENDBRANCH   8  12
ENDBRANCH   7   8
ENDBRANCH   6   7
ENDBRANCH   2   6
ENDBRANCH   1   3
BRANCH   1  16
ATOM     16  C   UNK     1       9.662  -0.385  21.992  0.00  0.00    +0.326 C 
ATOM     17  O   UNK     1       9.523   0.623  21.306  0.00  0.00    -0.249 OA
BRANCH  16  18
ATOM     18  O   UNK     1      10.262  -1.503  21.506  0.00  0.00    -0.479 OA
ATOM     19  H   UNK     1      11.170  -1.565  21.868  0.00  0.00    +0.295 HD
ENDBRANCH  16  18
ENDBRANCH   1  16
BRANCH   1  20
ATOM     20  C   UNK     1      10.138   0.550  24.225  0.00  0.00    +0.071 C 
BRANCH  20  21
ATOM     21  C   UNK     1       9.489   1.894  24.318  0.00  0.00    -0.020 A 
ATOM     22  C   UNK     1      10.085   3.143  23.970  0.00  0.00    +0.003 A 
ATOM     23  C   UNK     1       9.240   4.147  24.438  0.00  0.00    +0.047 A 
ATOM     24  C   UNK     1       9.603   5.498  24.431  0.00  0.00    +0.026 A 
ATOM     25  C   UNK     1      10.841   5.829  23.876  0.00  0.00    +0.002 A 
ATOM     26  C   UNK     1      11.661   4.854  23.310  0.00  0.00    +0.001 A 
ATOM     27  N   UNK     1       8.080   3.535  24.852  0.00  0.00    -0.360 N 
ATOM     28  H   UNK     1       7.254   4.021  25.174  0.00  0.00    +0.165 HD
ATOM     29  C   UNK     1      11.298   3.510  23.353  0.00  0.00    +0.010 A 
ATOM     30  C   UNK     1       8.218   2.172  24.781  0.00  0.00    +0.087 A 
ENDBRANCH  20  21
ENDBRANCH   1  20
TORSDOF 11
ENDMDL
MODEL 8
REMARK VINA RESULT:      -6.0      2.980      8.087
REMARK  Name = 
REMARK  11 active torsions:
REMARK  status: ('A' for Active; 'I' for Inactive)
REMARK    1  A    between atoms: N_1  and  C_2
REMARK    2  A    between atoms: C_2  and  C_4
REMARK    3  A    between atoms: C_2  and  C_24
REMARK    4  A    between atoms: C_4  and  C_5
REMARK    5  A    between atoms: C_5  and  C_6
REMARK    6  A    between atoms: N_8  and  C_9
REMARK    7  A    between atoms: C_9  and  C_11
REMARK    8  A    between atoms: C_9  and  C_21
REMARK    9  A    between atoms: C_11  and  C_12
REMARK   10  A    between atoms: C_21  and  O_22
REMARK   11  A    between atoms: C_24  and  O_25
REMARK                            x       y       z     vdW  Elec       q    Type
REMARK                         _______ _______ _______ _____ _____    ______ ____
ROOT
ATOM      1  C   UNK     1       7.483  -3.880  23.105  0.00  0.00    +0.186 C 
ENDROOT
BRANCH   1   3
ATOM      2  C   UNK     1       9.438  -2.324  23.159  0.00  0.00    +0.214 C 
ATOM      3  N   UNK     1       8.202  -2.656  22.627  0.00  0.00    -0.302 N 
ATOM      4  H   UNK     1       7.616  -1.874  22.344  0.00  0.00    +0.150 HD
ATOM      5  O   UNK     1      10.026  -3.066  23.933  0.00  0.00    -0.276 OA
BRANCH   2   6
ATOM      6  C   UNK     1      10.041  -1.004  22.662  0.00  0.00    +0.098 C 
BRANCH   6   7
ATOM      7  C   UNK     1       9.071   0.167  22.913  0.00  0.00    +0.039 C 
BRANCH   7   8
ATOM      8  C   UNK     1       9.600   1.295  23.814  0.00  0.00    +0.161 C 
BRANCH   8   9
ATOM      9  N   UNK     1      10.509   0.853  24.897  0.00  0.00    -0.318 NA
ATOM     10  H   UNK     1      11.446   0.702  24.521  0.00  0.00    +0.119 HD
ATOM     11  H   UNK     1      10.627   1.627  25.562  0.00  0.00    +0.119 HD
ENDBRANCH   8   9
BRANCH   8  12
ATOM     12  C   UNK     1      10.353   2.369  22.992  0.00  0.00    +0.322 C 
ATOM     13  O   UNK     1      11.062   3.253  23.443  0.00  0.00    -0.249 OA
BRANCH  12  14
ATOM     14  O   UNK     1      10.134   2.210  21.660  0.00  0.00    -0.480 OA
ATOM     15  H   UNK     1      10.295   3.076  21.219  0.00  0.00    +0.295 HD
ENDBRANCH  12  14
ENDBRANCH   8  12
ENDBRANCH   7   8
ENDBRANCH   6   7
ENDBRANCH   2   6
ENDBRANCH   1   3
BRANCH   1  16
ATOM     16  C   UNK     1       6.821  -4.637  21.937  0.00  0.00    +0.326 C 
ATOM     17  O   UNK     1       5.971  -4.156  21.194  0.00  0.00    -0.249 OA
BRANCH  16  18
ATOM     18  O   UNK     1       7.316  -5.887  21.741  0.00  0.00    -0.479 OA
ATOM     19  H   UNK     1       7.244  -6.397  22.575  0.00  0.00    +0.295 HD
ENDBRANCH  16  18
ENDBRANCH   1  16
BRANCH   1  20
ATOM     20  C   UNK     1       6.355  -3.600  24.126  0.00  0.00    +0.071 C 
BRANCH  20  21
ATOM     21  C   UNK     1       5.910  -4.831  24.850  0.00  0.00    -0.020 A 
ATOM     22  C   UNK     1       4.722  -5.577  24.591  0.00  0.00    +0.003 A 
ATOM     23  C   UNK     1       4.568  -6.484  25.637  0.00  0.00    +0.047 A 
ATOM     24  C   UNK     1       3.412  -7.253  25.802  0.00  0.00    +0.026 A 
ATOM     25  C   UNK     1       2.413  -7.128  24.834  0.00  0.00    +0.002 A 
ATOM     26  C   UNK     1       2.584  -6.303  23.724  0.00  0.00    +0.001 A 
ATOM     27  N   UNK     1       5.727  -6.442  26.379  0.00  0.00    -0.360 N 
ATOM     28  H   UNK     1       5.933  -7.046  27.162  0.00  0.00    +0.165 HD
ATOM     29  C   UNK     1       3.729  -5.521  23.591  0.00  0.00    +0.010 A 
ATOM     30  C   UNK     1       6.547  -5.447  25.910  0.00  0.00    +0.087 A 
ENDBRANCH  20  21
ENDBRANCH   1  20
TORSDOF 11
ENDMDL
MODEL 9
REMARK VINA RESULT:      -5.9      2.493      3.735
REMARK  Name = 
REMARK  11 active torsions:
REMARK  status: ('A' for Active; 'I' for Inactive)
REMARK    1  A    between atoms: N_1  and  C_2
REMARK    2  A    between atoms: C_2  and  C_4
REMARK    3  A    between atoms: C_2  and  C_24
REMARK    4  A    between atoms: C_4  and  C_5
REMARK    5  A    between atoms: C_5  and  C_6
REMARK    6  A    between atoms: N_8  and  C_9
REMARK    7  A    between atoms: C_9  and  C_11
REMARK    8  A    between atoms: C_9  and  C_21
REMARK    9  A    between atoms: C_11  and  C_12
REMARK   10  A    between atoms: C_21  and  O_22
REMARK   11  A    between atoms: C_24  and  O_25
REMARK                            x       y       z     vdW  Elec       q    Type
REMARK                         _______ _______ _______ _____ _____    ______ ____
ROOT
ATOM      1  C   UNK     1       7.206  -1.314  26.270  0.00  0.00    +0.186 C 
ENDROOT
BRANCH   1   3
ATOM      2  C   UNK     1       6.008  -2.930  24.787  0.00  0.00    +0.214 C 
ATOM      3  N   UNK     1       6.521  -1.658  24.982  0.00  0.00    -0.302 N 
ATOM      4  H   UNK     1       6.868  -1.187  24.151  0.00  0.00    +0.150 HD
ATOM      5  O   UNK     1       5.991  -3.763  25.683  0.00  0.00    -0.276 OA
BRANCH   2   6
ATOM      6  C   UNK     1       5.408  -3.198  23.401  0.00  0.00    +0.098 C 
BRANCH   6   7
ATOM      7  C   UNK     1       6.513  -3.231  22.326  0.00  0.00    +0.039 C 
BRANCH   7   8
ATOM      8  C   UNK     1       7.199  -4.590  22.109  0.00  0.00    +0.161 C 
BRANCH   8   9
ATOM      9  N   UNK     1       7.586  -5.298  23.352  0.00  0.00    -0.318 NA
ATOM     10  H   UNK     1       6.781  -5.803  23.726  0.00  0.00    +0.119 HD
ATOM     11  H   UNK     1       8.257  -6.037  23.112  0.00  0.00    +0.119 HD
ENDBRANCH   8   9
BRANCH   8  12
ATOM     12  C   UNK     1       6.302  -5.551  21.292  0.00  0.00    +0.322 C 
ATOM     13  O   UNK     1       5.937  -5.390  20.140  0.00  0.00    -0.249 OA
BRANCH  12  14
ATOM     14  O   UNK     1       5.957  -6.642  22.026  0.00  0.00    -0.480 OA
ATOM     15  H   UNK     1       5.203  -6.392  22.608  0.00  0.00    +0.295 HD
ENDBRANCH  12  14
ENDBRANCH   8  12
ENDBRANCH   7   8
ENDBRANCH   6   7
ENDBRANCH   2   6
ENDBRANCH   1   3
BRANCH   1  16
ATOM     16  C   UNK     1       6.917   0.140  26.691  0.00  0.00    +0.326 C 
ATOM     17  O   UNK     1       5.991   0.816  26.253  0.00  0.00    -0.249 OA
BRANCH  16  18
ATOM     18  O   UNK     1       7.742   0.604  27.665  0.00  0.00    -0.479 OA
ATOM     19  H   UNK     1       7.408   1.468  27.986  0.00  0.00    +0.295 HD
ENDBRANCH  16  18
ENDBRANCH   1  16
BRANCH   1  20
ATOM     20  C   UNK     1       8.747  -1.449  26.228  0.00  0.00    +0.071 C 
BRANCH  20  21
ATOM     21  C   UNK     1       9.301  -1.335  24.844  0.00  0.00    -0.020 A 
ATOM     22  C   UNK     1       9.553  -0.122  24.134  0.00  0.00    +0.003 A 
ATOM     23  C   UNK     1       9.825  -0.467  22.812  0.00  0.00    +0.047 A 
ATOM     24  C   UNK     1       9.938   0.486  21.795  0.00  0.00    +0.026 A 
ATOM     25  C   UNK     1       9.827   1.830  22.158  0.00  0.00    +0.002 A 
ATOM     26  C   UNK     1       9.655   2.206  23.489  0.00  0.00    +0.001 A 
ATOM     27  N   UNK     1       9.952  -1.837  22.772  0.00  0.00    -0.360 N 
ATOM     28  H   UNK     1      10.221  -2.368  21.956  0.00  0.00    +0.165 HD
ATOM     29  C   UNK     1       9.514   1.243  24.485  0.00  0.00    +0.010 A 
ATOM     30  C   UNK     1       9.640  -2.371  23.996  0.00  0.00    +0.087 A 
ENDBRANCH  20  21
ENDBRANCH   1  20
TORSDOF 11
ENDMDL
