MODEL 1
REMARK VINA RESULT:      -7.1      0.000      0.000
REMARK  Name = 
REMARK  0 active torsions:
REMARK  status: ('A' for Active; 'I' for Inactive)
REMARK                            x       y       z     vdW  Elec       q    Type
REMARK                         _______ _______ _______ _____ _____    ______ ____
ROOT
ATOM      1  N   UNL     1       9.650  -5.645  25.636  0.00  0.00    -0.313 N 
ATOM      2  H   UNL     1       9.821  -5.950  24.689  0.00  0.00    +0.147 HD
ATOM      3  H   UNL     1      10.181  -6.137  26.346  0.00  0.00    +0.147 HD
ATOM      4  C   UNL     1       8.339  -5.463  25.991  0.00  0.00    +0.308 C 
ATOM      5  N   UNL     1       7.507  -4.957  24.969  0.00  0.00    -0.224 N 
ATOM      6  C   UNL     1       7.971  -3.930  24.035  0.00  0.00    +0.053 A 
ATOM      7  C   UNL     1       7.403  -3.609  22.778  0.00  0.00    +0.039 A 
ATOM      8  C   UNL     1       7.899  -2.515  22.029  0.00  0.00    +0.013 A 
ATOM      9  C   UNL     1       8.964  -1.744  22.478  0.00  0.00    +0.001 A 
ATOM     10  C   UNL     1       9.547  -2.048  23.693  0.00  0.00    +0.002 A 
ATOM     11  C   UNL     1       6.345  -4.389  22.075  0.00  0.00    +0.169 C 
ATOM     12  O   UNL     1       5.858  -3.980  21.021  0.00  0.00    -0.292 OA
ATOM     13  C   UNL     1       5.918  -5.696  22.654  0.00  0.00    +0.116 C 
ATOM     14  C   UNL     1       5.291  -5.477  23.989  0.00  0.00    -0.018 A 
ATOM     15  C   UNL     1       3.900  -5.645  24.131  0.00  0.00    +0.006 A 
ATOM     16  C   UNL     1       3.289  -5.496  25.370  0.00  0.00    +0.000 A 
ATOM     17  C   UNL     1       4.062  -5.180  26.478  0.00  0.00    +0.002 A 
ATOM     18  C   UNL     1       5.440  -4.992  26.341  0.00  0.00    +0.024 A 
ATOM     19  C   UNL     1       9.048  -3.107  24.457  0.00  0.00    +0.024 A 
ATOM     20  C   UNL     1       6.079  -5.116  25.095  0.00  0.00    +0.046 A 
ATOM     21  O   UNL     1       8.015  -5.838  27.114  0.00  0.00    -0.252 OA
ENDROOT
TORSDOF 0
ENDMDL
MODEL 2
REMARK VINA RESULT:      -7.1      1.513      5.369
REMARK  Name = 
REMARK  0 active torsions:
REMARK  status: ('A' for Active; 'I' for Inactive)
REMARK                            x       y       z     vdW  Elec       q    Type
REMARK                         _______ _______ _______ _____ _____    ______ ____
ROOT
ATOM      1  N   UNL     1       5.703  -6.454  21.808  0.00  0.00    -0.313 N 
ATOM      2  H   UNL     1       6.355  -7.082  22.255  0.00  0.00    +0.147 HD
ATOM      3  H   UNL     1       5.504  -6.666  20.837  0.00  0.00    +0.147 HD
ATOM      4  C   UNL     1       5.898  -5.115  22.025  0.00  0.00    +0.308 C 
ATOM      5  N   UNL     1       6.367  -4.780  23.314  0.00  0.00    -0.224 N 
ATOM      6  C   UNL     1       5.883  -5.466  24.513  0.00  0.00    +0.053 A 
ATOM      7  C   UNL     1       6.509  -5.497  25.783  0.00  0.00    +0.039 A 
ATOM      8  C   UNL     1       5.867  -6.117  26.881  0.00  0.00    +0.013 A 
ATOM      9  C   UNL     1       4.629  -6.735  26.751  0.00  0.00    +0.001 A 
ATOM     10  C   UNL     1       4.005  -6.735  25.519  0.00  0.00    +0.002 A 
ATOM     11  C   UNL     1       7.882  -5.002  26.090  0.00  0.00    +0.169 C 
ATOM     12  O   UNL     1       8.305  -4.999  27.245  0.00  0.00    -0.292 OA
ATOM     13  C   UNL     1       8.747  -4.551  24.960  0.00  0.00    +0.116 C 
ATOM     14  C   UNL     1       8.139  -3.359  24.303  0.00  0.00    -0.018 A 
ATOM     15  C   UNL     1       8.742  -2.097  24.476  0.00  0.00    +0.006 A 
ATOM     16  C   UNL     1       8.230  -0.973  23.839  0.00  0.00    +0.000 A 
ATOM     17  C   UNL     1       7.114  -1.099  23.024  0.00  0.00    +0.002 A 
ATOM     18  C   UNL     1       6.500  -2.344  22.864  0.00  0.00    +0.024 A 
ATOM     19  C   UNL     1       4.615  -6.100  24.432  0.00  0.00    +0.024 A 
ATOM     20  C   UNL     1       6.985  -3.493  23.514  0.00  0.00    +0.046 A 
ATOM     21  O   UNL     1       5.732  -4.372  21.063  0.00  0.00    -0.252 OA
ENDROOT
TORSDOF 0
ENDMDL
MODEL 3
REMARK VINA RESULT:      -7.0      3.066      4.417
REMARK  Name = 
REMARK  0 active torsions:
REMARK  status: ('A' for Active; 'I' for Inactive)
REMARK                            x       y       z     vdW  Elec       q    Type
REMARK                         _______ _______ _______ _____ _____    ______ ____
ROOT
ATOM      1  N   UNL     1       5.971   0.421  25.581  0.00  0.00    -0.313 N 
ATOM      2  H   UNL     1       6.929   0.591  25.850  0.00  0.00    +0.147 HD
ATOM      3  H   UNL     1       5.282   0.652  26.289  0.00  0.00    +0.147 HD
ATOM      4  C   UNL     1       5.713  -0.777  24.967  0.00  0.00    +0.308 C 
ATOM      5  N   UNL     1       6.735  -1.244  24.113  0.00  0.00    -0.224 N 
ATOM      6  C   UNL     1       7.495  -0.336  23.251  0.00  0.00    +0.053 A 
ATOM      7  C   UNL     1       8.749  -0.594  22.645  0.00  0.00    +0.039 A 
ATOM      8  C   UNL     1       9.314   0.344  21.749  0.00  0.00    +0.013 A 
ATOM      9  C   UNL     1       8.684   1.547  21.454  0.00  0.00    +0.001 A 
ATOM     10  C   UNL     1       7.468   1.830  22.046  0.00  0.00    +0.002 A 
ATOM     11  C   UNL     1       9.630  -1.762  22.929  0.00  0.00    +0.169 C 
ATOM     12  O   UNL     1      10.665  -1.938  22.288  0.00  0.00    -0.292 OA
ATOM     13  C   UNL     1       9.252  -2.689  24.036  0.00  0.00    +0.116 C 
ATOM     14  C   UNL     1       7.960  -3.361  23.714  0.00  0.00    -0.018 A 
ATOM     15  C   UNL     1       7.962  -4.728  23.378  0.00  0.00    +0.006 A 
ATOM     16  C   UNL     1       6.772  -5.397  23.118  0.00  0.00    +0.000 A 
ATOM     17  C   UNL     1       5.570  -4.707  23.195  0.00  0.00    +0.002 A 
ATOM     18  C   UNL     1       5.564  -3.345  23.508  0.00  0.00    +0.024 A 
ATOM     19  C   UNL     1       6.884   0.899  22.911  0.00  0.00    +0.024 A 
ATOM     20  C   UNL     1       6.755  -2.640  23.754  0.00  0.00    +0.046 A 
ATOM     21  O   UNL     1       4.676  -1.349  25.289  0.00  0.00    -0.252 OA
ENDROOT
TORSDOF 0
ENDMDL
MODEL 4
REMARK VINA RESULT:      -6.7      3.321      4.417
REMARK  Name = 
REMARK  0 active torsions:
REMARK  status: ('A' for Active; 'I' for Inactive)
REMARK                            x       y       z     vdW  Elec       q    Type
REMARK                         _______ _______ _______ _____ _____    ______ ____
ROOT
ATOM      1  N   UNL     1       8.053   0.044  27.520  0.00  0.00    -0.313 N 
ATOM      2  H   UNL     1       9.032  -0.199  27.499  0.00  0.00    +0.147 HD
ATOM      3  H   UNL     1       7.653   0.124  28.449  0.00  0.00    +0.147 HD
ATOM      4  C   UNL     1       7.237  -0.634  26.652  0.00  0.00    +0.308 C 
ATOM      5  N   UNL     1       7.818  -0.944  25.403  0.00  0.00    -0.224 N 
ATOM      6  C   UNL     1       8.701  -0.005  24.709  0.00  0.00    +0.053 A 
ATOM      7  C   UNL     1       9.619  -0.310  23.675  0.00  0.00    +0.039 A 
ATOM      8  C   UNL     1      10.332   0.724  23.024  0.00  0.00    +0.013 A 
ATOM      9  C   UNL     1      10.182   2.057  23.388  0.00  0.00    +0.001 A 
ATOM     10  C   UNL     1       9.306   2.380  24.406  0.00  0.00    +0.002 A 
ATOM     11  C   UNL     1      10.007  -1.680  23.231  0.00  0.00    +0.169 C 
ATOM     12  O   UNL     1      10.753  -1.840  22.266  0.00  0.00    -0.292 OA
ATOM     13  C   UNL     1       9.505  -2.851  24.009  0.00  0.00    +0.116 C 
ATOM     14  C   UNL     1       8.018  -2.918  23.919  0.00  0.00    -0.018 A 
ATOM     15  C   UNL     1       7.421  -3.937  23.151  0.00  0.00    +0.006 A 
ATOM     16  C   UNL     1       6.038  -4.057  23.085  0.00  0.00    +0.000 A 
ATOM     17  C   UNL     1       5.241  -3.164  23.786  0.00  0.00    +0.002 A 
ATOM     18  C   UNL     1       5.827  -2.139  24.533  0.00  0.00    +0.024 A 
ATOM     19  C   UNL     1       8.574   1.371  25.038  0.00  0.00    +0.024 A 
ATOM     20  C   UNL     1       7.222  -1.982  24.600  0.00  0.00    +0.046 A 
ATOM     21  O   UNL     1       6.137  -0.970  27.079  0.00  0.00    -0.252 OA
ENDROOT
TORSDOF 0
ENDMDL
MODEL 5
REMARK VINA RESULT:      -6.7      2.246      5.035
REMARK  Name = 
REMARK  0 active torsions:
REMARK  status: ('A' for Active; 'I' for Inactive)
REMARK                            x       y       z     vdW  Elec       q    Type
REMARK                         _______ _______ _______ _____ _____    ______ ____
ROOT
ATOM      1  N   UNL     1       8.556  -5.683  26.345  0.00  0.00    -0.313 N 
ATOM      2  H   UNL     1       7.964  -5.314  27.076  0.00  0.00    +0.147 HD
ATOM      3  H   UNL     1       9.255  -6.347  26.657  0.00  0.00    +0.147 HD
ATOM      4  C   UNL     1       9.055  -4.776  25.447  0.00  0.00    +0.308 C 
ATOM      5  N   UNL     1       8.184  -3.712  25.124  0.00  0.00    -0.224 N 
ATOM      6  C   UNL     1       6.745  -3.919  24.955  0.00  0.00    +0.053 A 
ATOM      7  C   UNL     1       5.735  -2.926  24.998  0.00  0.00    +0.039 A 
ATOM      8  C   UNL     1       4.391  -3.262  24.711  0.00  0.00    +0.013 A 
ATOM      9  C   UNL     1       4.011  -4.564  24.407  0.00  0.00    +0.001 A 
ATOM     10  C   UNL     1       4.974  -5.554  24.375  0.00  0.00    +0.002 A 
ATOM     11  C   UNL     1       5.924  -1.510  25.423  0.00  0.00    +0.169 C 
ATOM     12  O   UNL     1       4.998  -0.703  25.348  0.00  0.00    -0.292 OA
ATOM     13  C   UNL     1       7.246  -1.103  25.982  0.00  0.00    +0.116 C 
ATOM     14  C   UNL     1       8.302  -1.244  24.939  0.00  0.00    -0.018 A 
ATOM     15  C   UNL     1       8.863  -0.086  24.368  0.00  0.00    +0.006 A 
ATOM     16  C   UNL     1       9.882  -0.180  23.427  0.00  0.00    +0.000 A 
ATOM     17  C   UNL     1      10.350  -1.431  23.051  0.00  0.00    +0.002 A 
ATOM     18  C   UNL     1       9.783  -2.585  23.599  0.00  0.00    +0.024 A 
ATOM     19  C   UNL     1       6.310  -5.230  24.628  0.00  0.00    +0.024 A 
ATOM     20  C   UNL     1       8.738  -2.518  24.537  0.00  0.00    +0.046 A 
ATOM     21  O   UNL     1      10.219  -4.934  25.094  0.00  0.00    -0.252 OA
ENDROOT
TORSDOF 0
ENDMDL
MODEL 6
REMARK VINA RESULT:      -6.5      2.392      4.400
REMARK  Name = 
REMARK  0 active torsions:
REMARK  status: ('A' for Active; 'I' for Inactive)
REMARK                            x       y       z     vdW  Elec       q    Type
REMARK                         _______ _______ _______ _____ _____    ______ ____
ROOT
ATOM      1  N   UNL     1       9.442  -4.850  26.691  0.00  0.00    -0.313 N 
ATOM      2  H   UNL     1       9.252  -3.939  27.083  0.00  0.00    +0.147 HD
ATOM      3  H   UNL     1      10.414  -5.136  26.726  0.00  0.00    +0.147 HD
ATOM      4  C   UNL     1       8.855  -5.128  25.484  0.00  0.00    +0.308 C 
ATOM      5  N   UNL     1       7.564  -4.583  25.306  0.00  0.00    -0.224 N 
ATOM      6  C   UNL     1       6.588  -4.540  26.396  0.00  0.00    +0.053 A 
ATOM      7  C   UNL     1       5.436  -3.720  26.471  0.00  0.00    +0.039 A 
ATOM      8  C   UNL     1       4.525  -3.865  27.543  0.00  0.00    +0.013 A 
ATOM      9  C   UNL     1       4.735  -4.786  28.563  0.00  0.00    +0.001 A 
ATOM     10  C   UNL     1       5.860  -5.586  28.522  0.00  0.00    +0.002 A 
ATOM     11  C   UNL     1       5.105  -2.597  25.547  0.00  0.00    +0.169 C 
ATOM     12  O   UNL     1       4.036  -1.995  25.648  0.00  0.00    -0.292 OA
ATOM     13  C   UNL     1       6.114  -2.192  24.525  0.00  0.00    +0.116 C 
ATOM     14  C   UNL     1       6.341  -3.312  23.567  0.00  0.00    -0.018 A 
ATOM     15  C   UNL     1       5.850  -3.199  22.251  0.00  0.00    +0.006 A 
ATOM     16  C   UNL     1       6.084  -4.203  21.318  0.00  0.00    +0.000 A 
ATOM     17  C   UNL     1       6.812  -5.324  21.690  0.00  0.00    +0.002 A 
ATOM     18  C   UNL     1       7.284  -5.451  23.000  0.00  0.00    +0.024 A 
ATOM     19  C   UNL     1       6.754  -5.473  27.453  0.00  0.00    +0.024 A 
ATOM     20  C   UNL     1       7.042  -4.461  23.968  0.00  0.00    +0.046 A 
ATOM     21  O   UNL     1       9.538  -5.737  24.667  0.00  0.00    -0.252 OA
ENDROOT
TORSDOF 0
ENDMDL
MODEL 7
REMARK VINA RESULT:      -6.5      3.159      5.796
REMARK  Name = 
REMARK  0 active torsions:
REMARK  status: ('A' for Active; 'I' for Inactive)
REMARK                            x       y       z     vdW  Elec       q    Type
REMARK                         _______ _______ _______ _____ _____    ______ ____
ROOT
ATOM      1  N   UNL     1       9.861  -3.562  24.482  0.00  0.00    -0.313 N 
ATOM      2  H   UNL     1       9.489  -3.408  25.408  0.00  0.00    +0.147 HD
ATOM      3  H   UNL     1      10.790  -3.967  24.458  0.00  0.00    +0.147 HD
ATOM      4  C   UNL     1       9.709  -2.537  23.585  0.00  0.00    +0.308 C 
ATOM      5  N   UNL     1       8.504  -1.810  23.705  0.00  0.00    -0.224 N 
ATOM      6  C   UNL     1       7.233  -2.470  24.007  0.00  0.00    +0.053 A 
ATOM      7  C   UNL     1       6.058  -1.857  24.508  0.00  0.00    +0.039 A 
ATOM      8  C   UNL     1       4.868  -2.607  24.653  0.00  0.00    +0.013 A 
ATOM      9  C   UNL     1       4.813  -3.960  24.340  0.00  0.00    +0.001 A 
ATOM     10  C   UNL     1       5.949  -4.585  23.866  0.00  0.00    +0.002 A 
ATOM     11  C   UNL     1       5.953  -0.457  25.012  0.00  0.00    +0.169 C 
ATOM     12  O   UNL     1       4.865   0.008  25.351  0.00  0.00    -0.292 OA
ATOM     13  C   UNL     1       7.201   0.352  25.137  0.00  0.00    +0.116 C 
ATOM     14  C   UNL     1       7.803   0.564  23.790  0.00  0.00    -0.018 A 
ATOM     15  C   UNL     1       7.747   1.846  23.207  0.00  0.00    +0.006 A 
ATOM     16  C   UNL     1       8.340   2.091  21.974  0.00  0.00    +0.000 A 
ATOM     17  C   UNL     1       8.994   1.060  21.314  0.00  0.00    +0.002 A 
ATOM     18  C   UNL     1       9.035  -0.218  21.878  0.00  0.00    +0.024 A 
ATOM     19  C   UNL     1       7.125  -3.849  23.691  0.00  0.00    +0.024 A 
ATOM     20  C   UNL     1       8.426  -0.498  23.114  0.00  0.00    +0.046 A 
ATOM     21  O   UNL     1      10.660  -2.309  22.844  0.00  0.00    -0.252 OA
ENDROOT
TORSDOF 0
ENDMDL
MODEL 8
REMARK VINA RESULT:      -6.5      3.551      4.816
REMARK  Name = 
REMARK  0 active torsions:
REMARK  status: ('A' for Active; 'I' for Inactive)
REMARK                            x       y       z     vdW  Elec       q    Type
REMARK                         _______ _______ _______ _____ _____    ______ ____
ROOT
ATOM      1  N   UNL     1       9.815  -0.256  21.518  0.00  0.00    -0.313 N 
ATOM      2  H   UNL     1       8.901   0.052  21.220  0.00  0.00    +0.147 HD
ATOM      3  H   UNL     1      10.491  -0.373  20.772  0.00  0.00    +0.147 HD
ATOM      4  C   UNL     1       9.846  -1.286  22.422  0.00  0.00    +0.308 C 
ATOM      5  N   UNL     1       8.803  -1.280  23.374  0.00  0.00    -0.224 N 
ATOM      6  C   UNL     1       8.314  -0.036  23.973  0.00  0.00    +0.053 A 
ATOM      7  C   UNL     1       7.076   0.157  24.632  0.00  0.00    +0.039 A 
ATOM      8  C   UNL     1       6.785   1.393  25.256  0.00  0.00    +0.013 A 
ATOM      9  C   UNL     1       7.678   2.457  25.224  0.00  0.00    +0.001 A 
ATOM     10  C   UNL     1       8.886   2.300  24.573  0.00  0.00    +0.002 A 
ATOM     11  C   UNL     1       5.946  -0.815  24.666  0.00  0.00    +0.169 C 
ATOM     12  O   UNL     1       4.940  -0.585  25.336  0.00  0.00    -0.292 OA
ATOM     13  C   UNL     1       6.044  -2.052  23.837  0.00  0.00    +0.116 C 
ATOM     14  C   UNL     1       7.177  -2.894  24.316  0.00  0.00    -0.018 A 
ATOM     15  C   UNL     1       6.900  -4.096  24.997  0.00  0.00    +0.006 A 
ATOM     16  C   UNL     1       7.931  -4.928  25.415  0.00  0.00    +0.000 A 
ATOM     17  C   UNL     1       9.246  -4.569  25.155  0.00  0.00    +0.002 A 
ATOM     18  C   UNL     1       9.528  -3.368  24.498  0.00  0.00    +0.024 A 
ATOM     19  C   UNL     1       9.198   1.074  23.977  0.00  0.00    +0.024 A 
ATOM     20  C   UNL     1       8.505  -2.498  24.083  0.00  0.00    +0.046 A 
ATOM     21  O   UNL     1      10.712  -2.139  22.255  0.00  0.00    -0.252 OA
ENDROOT
TORSDOF 0
ENDMDL
MODEL 9
REMARK VINA RESULT:      -6.4      2.765      3.961
REMARK  Name = 
REMARK  0 active torsions:
REMARK  status: ('A' for Active; 'I' for Inactive)
REMARK                            x       y       z     vdW  Elec       q    Type
REMARK                         _______ _______ _______ _____ _____    ______ ____
ROOT
ATOM      1  N   UNL     1       5.116  -1.249  26.081  0.00  0.00    -0.313 N 
ATOM      2  H   UNL     1       6.001  -1.195  26.565  0.00  0.00    +0.147 HD
ATOM      3  H   UNL     1       4.300  -1.221  26.681  0.00  0.00    +0.147 HD
ATOM      4  C   UNL     1       5.015  -2.198  25.098  0.00  0.00    +0.308 C 
ATOM      5  N   UNL     1       6.195  -2.415  24.352  0.00  0.00    -0.224 N 
ATOM      6  C   UNL     1       7.076  -1.312  23.964  0.00  0.00    +0.053 A 
ATOM      7  C   UNL     1       8.429  -1.411  23.558  0.00  0.00    +0.039 A 
ATOM      8  C   UNL     1       9.126  -0.264  23.110  0.00  0.00    +0.013 A 
ATOM      9  C   UNL     1       8.527   0.989  23.078  0.00  0.00    +0.001 A 
ATOM     10  C   UNL     1       7.213   1.116  23.485  0.00  0.00    +0.002 A 
ATOM     11  C   UNL     1       9.276  -2.636  23.639  0.00  0.00    +0.169 C 
ATOM     12  O   UNL     1      10.419  -2.641  23.183  0.00  0.00    -0.292 OA
ATOM     13  C   UNL     1       8.723  -3.842  24.322  0.00  0.00    +0.116 C 
ATOM     14  C   UNL     1       7.536  -4.347  23.574  0.00  0.00    -0.018 A 
ATOM     15  C   UNL     1       7.643  -5.550  22.848  0.00  0.00    +0.006 A 
ATOM     16  C   UNL     1       6.544  -6.075  22.179  0.00  0.00    +0.000 A 
ATOM     17  C   UNL     1       5.329  -5.405  22.231  0.00  0.00    +0.002 A 
ATOM     18  C   UNL     1       5.222  -4.201  22.933  0.00  0.00    +0.024 A 
ATOM     19  C   UNL     1       6.504  -0.014  23.903  0.00  0.00    +0.024 A 
ATOM     20  C   UNL     1       6.324  -3.638  23.600  0.00  0.00    +0.046 A 
ATOM     21  O   UNL     1       3.954  -2.809  25.029  0.00  0.00    -0.252 OA
ENDROOT
TORSDOF 0
ENDMDL
