MODEL 1
REMARK VINA RESULT:      -7.8      0.000      0.000
REMARK  Name = 
REMARK  3 active torsions:
REMARK  status: ('A' for Active; 'I' for Inactive)
REMARK    1  A    between atoms: O_1  and  C_2
REMARK    2  A    between atoms: C_9  and  C_11
REMARK    3  A    between atoms: C_16  and  O_17
REMARK                            x       y       z     vdW  Elec       q    Type
REMARK                         _______ _______ _______ _____ _____    ______ ____
ROOT
ATOM      1  C   UNL     1       7.451  -3.397  24.792  0.00  0.00    +0.045 A 
ATOM      2  C   UNL     1       7.078  -3.521  26.146  0.00  0.00    +0.014 A 
ATOM      3  C   UNL     1       6.220  -4.529  26.566  0.00  0.00    +0.001 A 
ATOM      4  C   UNL     1       5.716  -5.428  25.636  0.00  0.00    +0.012 A 
ATOM      5  C   UNL     1       6.086  -5.368  24.278  0.00  0.00    +0.024 A 
ATOM      6  C   UNL     1       5.582  -6.304  23.349  0.00  0.00    +0.125 A 
ATOM      7  C   UNL     1       5.972  -6.296  22.012  0.00  0.00    +0.046 A 
ATOM      8  C   UNL     1       6.887  -5.346  21.581  0.00  0.00    +0.004 A 
ATOM      9  C   UNL     1       7.383  -4.396  22.477  0.00  0.00    +0.009 A 
ATOM     10  C   UNL     1       6.987  -4.359  23.841  0.00  0.00    -0.002 A 
ENDROOT
BRANCH   1  16
ATOM     11  C   UNL     1      10.006   1.389  22.534  0.00  0.00    +0.120 A 
ATOM     12  C   UNL     1      10.670   1.467  23.761  0.00  0.00    +0.048 A 
ATOM     13  C   UNL     1      10.452   0.505  24.758  0.00  0.00    +0.035 A 
ATOM     14  C   UNL     1       9.555  -0.534  24.483  0.00  0.00    +0.110 A 
ATOM     15  N   UNL     1       9.145  -1.597  25.244  0.00  0.00    -0.209 NA
ATOM     16  C   UNL     1       8.294  -2.242  24.463  0.00  0.00    +0.229 A 
ATOM     17  O   UNL     1       8.093  -1.650  23.239  0.00  0.00    -0.435 OA
ATOM     18  C   UNL     1       8.917  -0.562  23.254  0.00  0.00    +0.159 A 
ATOM     19  C   UNL     1       9.098   0.370  22.239  0.00  0.00    +0.093 A 
BRANCH  11  20
ATOM     20  O   UNL     1      10.283   2.366  21.618  0.00  0.00    -0.507 OA
ATOM     21  H   UNL     1      10.745   1.968  20.862  0.00  0.00    +0.292 HD
ENDBRANCH  11  20
ENDBRANCH   1  16
BRANCH   6  22
ATOM     22  O   UNL     1       4.683  -7.252  23.772  0.00  0.00    -0.506 OA
ATOM     23  H   UNL     1       5.054  -8.134  23.608  0.00  0.00    +0.292 HD
ENDBRANCH   6  22
TORSDOF 3
ENDMDL
MODEL 2
REMARK VINA RESULT:      -7.8      0.962      2.512
REMARK  Name = 
REMARK  3 active torsions:
REMARK  status: ('A' for Active; 'I' for Inactive)
REMARK    1  A    between atoms: O_1  and  C_2
REMARK    2  A    between atoms: C_9  and  C_11
REMARK    3  A    between atoms: C_16  and  O_17
REMARK                            x       y       z     vdW  Elec       q    Type
REMARK                         _______ _______ _______ _____ _____    ______ ____
ROOT
ATOM      1  C   UNL     1       7.205  -4.073  22.915  0.00  0.00    +0.045 A 
ATOM      2  C   UNL     1       7.196  -4.757  21.683  0.00  0.00    +0.014 A 
ATOM      3  C   UNL     1       6.472  -5.930  21.516  0.00  0.00    +0.001 A 
ATOM      4  C   UNL     1       5.747  -6.442  22.585  0.00  0.00    +0.012 A 
ATOM      5  C   UNL     1       5.695  -5.777  23.825  0.00  0.00    +0.024 A 
ATOM      6  C   UNL     1       4.934  -6.299  24.894  0.00  0.00    +0.125 A 
ATOM      7  C   UNL     1       4.827  -5.634  26.113  0.00  0.00    +0.046 A 
ATOM      8  C   UNL     1       5.480  -4.422  26.281  0.00  0.00    +0.004 A 
ATOM      9  C   UNL     1       6.256  -3.896  25.245  0.00  0.00    +0.009 A 
ATOM     10  C   UNL     1       6.408  -4.559  23.998  0.00  0.00    -0.002 A 
ENDROOT
BRANCH   1  16
ATOM     11  C   UNL     1       9.961   1.077  22.273  0.00  0.00    +0.120 A 
ATOM     12  C   UNL     1      10.505   0.807  23.531  0.00  0.00    +0.048 A 
ATOM     13  C   UNL     1      10.195  -0.382  24.207  0.00  0.00    +0.035 A 
ATOM     14  C   UNL     1       9.328  -1.286  23.582  0.00  0.00    +0.110 A 
ATOM     15  N   UNL     1       8.848  -2.504  23.988  0.00  0.00    -0.209 NA
ATOM     16  C   UNL     1       8.075  -2.894  22.987  0.00  0.00    +0.229 A 
ATOM     17  O   UNL     1       7.990  -1.990  21.955  0.00  0.00    -0.435 OA
ATOM     18  C   UNL     1       8.809  -0.967  22.338  0.00  0.00    +0.159 A 
ATOM     19  C   UNL     1       9.085   0.198  21.632  0.00  0.00    +0.093 A 
BRANCH  11  20
ATOM     20  O   UNL     1      10.323   2.257  21.683  0.00  0.00    -0.507 OA
ATOM     21  H   UNL     1       9.710   2.446  20.953  0.00  0.00    +0.292 HD
ENDBRANCH  11  20
ENDBRANCH   1  16
BRANCH   6  22
ATOM     22  O   UNL     1       4.279  -7.495  24.731  0.00  0.00    -0.506 OA
ATOM     23  H   UNL     1       4.915  -8.219  24.835  0.00  0.00    +0.292 HD
ENDBRANCH   6  22
TORSDOF 3
ENDMDL
MODEL 3
REMARK VINA RESULT:      -7.4      1.661      7.020
REMARK  Name = 
REMARK  3 active torsions:
REMARK  status: ('A' for Active; 'I' for Inactive)
REMARK    1  A    between atoms: O_1  and  C_2
REMARK    2  A    between atoms: C_9  and  C_11
REMARK    3  A    between atoms: C_16  and  O_17
REMARK                            x       y       z     vdW  Elec       q    Type
REMARK                         _______ _______ _______ _____ _____    ______ ____
ROOT
ATOM      1  C   UNL     1       8.673  -0.439  23.993  0.00  0.00    +0.045 A 
ATOM      2  C   UNL     1       9.922  -0.525  24.640  0.00  0.00    +0.014 A 
ATOM      3  C   UNL     1      10.769   0.572  24.719  0.00  0.00    +0.001 A 
ATOM      4  C   UNL     1      10.381   1.777  24.147  0.00  0.00    +0.012 A 
ATOM      5  C   UNL     1       9.128   1.924  23.521  0.00  0.00    +0.024 A 
ATOM      6  C   UNL     1       8.739   3.163  22.964  0.00  0.00    +0.125 A 
ATOM      7  C   UNL     1       7.487   3.347  22.386  0.00  0.00    +0.046 A 
ATOM      8  C   UNL     1       6.592   2.287  22.360  0.00  0.00    +0.004 A 
ATOM      9  C   UNL     1       6.962   1.047  22.885  0.00  0.00    +0.009 A 
ATOM     10  C   UNL     1       8.240   0.816  23.460  0.00  0.00    -0.002 A 
ENDROOT
BRANCH   1  16
ATOM     11  C   UNL     1       6.392  -5.692  22.677  0.00  0.00    +0.120 A 
ATOM     12  C   UNL     1       5.805  -5.621  23.943  0.00  0.00    +0.048 A 
ATOM     13  C   UNL     1       5.998  -4.499  24.762  0.00  0.00    +0.035 A 
ATOM     14  C   UNL     1       6.793  -3.456  24.271  0.00  0.00    +0.110 A 
ATOM     15  N   UNL     1       7.156  -2.259  24.830  0.00  0.00    -0.209 NA
ATOM     16  C   UNL     1       7.909  -1.687  23.903  0.00  0.00    +0.229 A 
ATOM     17  O   UNL     1       8.090  -2.451  22.775  0.00  0.00    -0.435 OA
ATOM     18  C   UNL     1       7.358  -3.579  23.013  0.00  0.00    +0.159 A 
ATOM     19  C   UNL     1       7.198  -4.671  22.168  0.00  0.00    +0.093 A 
BRANCH  11  20
ATOM     20  O   UNL     1       6.145  -6.819  21.943  0.00  0.00    -0.507 OA
ATOM     21  H   UNL     1       5.448  -7.335  22.381  0.00  0.00    +0.292 HD
ENDBRANCH  11  20
ENDBRANCH   1  16
BRANCH   6  22
ATOM     22  O   UNL     1       9.619   4.218  22.995  0.00  0.00    -0.506 OA
ATOM     23  H   UNL     1       9.926   4.345  23.906  0.00  0.00    +0.292 HD
ENDBRANCH   6  22
TORSDOF 3
ENDMDL
MODEL 4
REMARK VINA RESULT:      -7.3      1.905      2.464
REMARK  Name = 
REMARK  3 active torsions:
REMARK  status: ('A' for Active; 'I' for Inactive)
REMARK    1  A    between atoms: O_1  and  C_2
REMARK    2  A    between atoms: C_9  and  C_11
REMARK    3  A    between atoms: C_16  and  O_17
REMARK                            x       y       z     vdW  Elec       q    Type
REMARK                         _______ _______ _______ _____ _____    ______ ____
ROOT
ATOM      1  C   UNL     1       8.449  -3.196  24.526  0.00  0.00    +0.045 A 
ATOM      2  C   UNL     1       9.570  -3.943  24.940  0.00  0.00    +0.014 A 
ATOM      3  C   UNL     1       9.423  -5.149  25.612  0.00  0.00    +0.001 A 
ATOM      4  C   UNL     1       8.149  -5.626  25.888  0.00  0.00    +0.012 A 
ATOM      5  C   UNL     1       6.996  -4.934  25.465  0.00  0.00    +0.024 A 
ATOM      6  C   UNL     1       5.707  -5.445  25.733  0.00  0.00    +0.125 A 
ATOM      7  C   UNL     1       4.556  -4.806  25.281  0.00  0.00    +0.046 A 
ATOM      8  C   UNL     1       4.677  -3.638  24.542  0.00  0.00    +0.004 A 
ATOM      9  C   UNL     1       5.940  -3.103  24.283  0.00  0.00    +0.009 A 
ATOM     10  C   UNL     1       7.134  -3.714  24.749  0.00  0.00    -0.002 A 
ENDROOT
BRANCH   1  16
ATOM     11  C   UNL     1      10.183   2.237  23.109  0.00  0.00    +0.120 A 
ATOM     12  C   UNL     1       9.908   1.853  21.794  0.00  0.00    +0.048 A 
ATOM     13  C   UNL     1       9.409   0.573  21.509  0.00  0.00    +0.035 A 
ATOM     14  C   UNL     1       9.195  -0.301  22.581  0.00  0.00    +0.110 A 
ATOM     15  N   UNL     1       8.727  -1.589  22.615  0.00  0.00    -0.209 NA
ATOM     16  C   UNL     1       8.737  -1.901  23.901  0.00  0.00    +0.229 A 
ATOM     17  O   UNL     1       9.213  -0.904  24.719  0.00  0.00    -0.435 OA
ATOM     18  C   UNL     1       9.491   0.125  23.865  0.00  0.00    +0.159 A 
ATOM     19  C   UNL     1       9.989   1.380  24.195  0.00  0.00    +0.093 A 
BRANCH  11  20
ATOM     20  O   UNL     1      10.661   3.505  23.296  0.00  0.00    -0.507 OA
ATOM     21  H   UNL     1      10.282   4.088  22.618  0.00  0.00    +0.292 HD
ENDBRANCH  11  20
ENDBRANCH   1  16
BRANCH   6  22
ATOM     22  O   UNL     1       5.582  -6.605  26.458  0.00  0.00    -0.506 OA
ATOM     23  H   UNL     1       6.283  -6.634  27.128  0.00  0.00    +0.292 HD
ENDBRANCH   6  22
TORSDOF 3
ENDMDL
MODEL 5
REMARK VINA RESULT:      -7.3      2.227      7.206
REMARK  Name = 
REMARK  3 active torsions:
REMARK  status: ('A' for Active; 'I' for Inactive)
REMARK    1  A    between atoms: O_1  and  C_2
REMARK    2  A    between atoms: C_9  and  C_11
REMARK    3  A    between atoms: C_16  and  O_17
REMARK                            x       y       z     vdW  Elec       q    Type
REMARK                         _______ _______ _______ _____ _____    ______ ____
ROOT
ATOM      1  C   UNL     1       8.474  -1.119  23.337  0.00  0.00    +0.045 A 
ATOM      2  C   UNL     1       9.031  -1.368  22.067  0.00  0.00    +0.014 A 
ATOM      3  C   UNL     1       9.481  -0.330  21.261  0.00  0.00    +0.001 A 
ATOM      4  C   UNL     1       9.376   0.979  21.713  0.00  0.00    +0.012 A 
ATOM      5  C   UNL     1       8.860   1.278  22.990  0.00  0.00    +0.024 A 
ATOM      6  C   UNL     1       8.782   2.614  23.443  0.00  0.00    +0.125 A 
ATOM      7  C   UNL     1       8.323   2.930  24.719  0.00  0.00    +0.046 A 
ATOM      8  C   UNL     1       7.937   1.906  25.571  0.00  0.00    +0.004 A 
ATOM      9  C   UNL     1       7.985   0.579  25.137  0.00  0.00    +0.009 A 
ATOM     10  C   UNL     1       8.424   0.222  23.835  0.00  0.00    -0.002 A 
ENDROOT
BRANCH   1  16
ATOM     11  C   UNL     1       7.271  -5.496  27.068  0.00  0.00    +0.120 A 
ATOM     12  C   UNL     1       6.082  -5.624  26.347  0.00  0.00    +0.048 A 
ATOM     13  C   UNL     1       5.816  -4.794  25.248  0.00  0.00    +0.035 A 
ATOM     14  C   UNL     1       6.778  -3.839  24.898  0.00  0.00    +0.110 A 
ATOM     15  N   UNL     1       6.798  -2.905  23.895  0.00  0.00    -0.209 NA
ATOM     16  C   UNL     1       7.960  -2.290  24.053  0.00  0.00    +0.229 A 
ATOM     17  O   UNL     1       8.696  -2.743  25.122  0.00  0.00    -0.435 OA
ATOM     18  C   UNL     1       7.937  -3.748  25.650  0.00  0.00    +0.159 A 
ATOM     19  C   UNL     1       8.243  -4.544  26.747  0.00  0.00    +0.093 A 
BRANCH  11  20
ATOM     20  O   UNL     1       7.452  -6.350  28.121  0.00  0.00    -0.507 OA
ATOM     21  H   UNL     1       8.065  -5.945  28.755  0.00  0.00    +0.292 HD
ENDBRANCH  11  20
ENDBRANCH   1  16
BRANCH   6  22
ATOM     22  O   UNL     1       9.170   3.631  22.606  0.00  0.00    -0.506 OA
ATOM     23  H   UNL     1       9.843   4.167  23.053  0.00  0.00    +0.292 HD
ENDBRANCH   6  22
TORSDOF 3
ENDMDL
MODEL 6
REMARK VINA RESULT:      -7.2      1.626      6.993
REMARK  Name = 
REMARK  3 active torsions:
REMARK  status: ('A' for Active; 'I' for Inactive)
REMARK    1  A    between atoms: O_1  and  C_2
REMARK    2  A    between atoms: C_9  and  C_11
REMARK    3  A    between atoms: C_16  and  O_17
REMARK                            x       y       z     vdW  Elec       q    Type
REMARK                         _______ _______ _______ _____ _____    ______ ____
ROOT
ATOM      1  C   UNL     1       8.294  -1.936  23.357  0.00  0.00    +0.045 A 
ATOM      2  C   UNL     1       9.619  -2.402  23.237  0.00  0.00    +0.014 A 
ATOM      3  C   UNL     1      10.621  -1.596  22.712  0.00  0.00    +0.001 A 
ATOM      4  C   UNL     1      10.312  -0.309  22.291  0.00  0.00    +0.012 A 
ATOM      5  C   UNL     1       9.011   0.215  22.422  0.00  0.00    +0.024 A 
ATOM      6  C   UNL     1       8.719   1.535  22.011  0.00  0.00    +0.125 A 
ATOM      7  C   UNL     1       7.454   2.092  22.177  0.00  0.00    +0.046 A 
ATOM      8  C   UNL     1       6.453   1.334  22.768  0.00  0.00    +0.004 A 
ATOM      9  C   UNL     1       6.713   0.020  23.163  0.00  0.00    +0.009 A 
ATOM     10  C   UNL     1       7.984  -0.589  22.986  0.00  0.00    -0.002 A 
ENDROOT
BRANCH   1  16
ATOM     11  C   UNL     1       4.738  -6.511  24.330  0.00  0.00    +0.120 A 
ATOM     12  C   UNL     1       4.608  -5.983  25.617  0.00  0.00    +0.048 A 
ATOM     13  C   UNL     1       5.265  -4.797  25.977  0.00  0.00    +0.035 A 
ATOM     14  C   UNL     1       6.050  -4.162  25.007  0.00  0.00    +0.110 A 
ATOM     15  N   UNL     1       6.797  -3.014  25.062  0.00  0.00    -0.209 NA
ATOM     16  C   UNL     1       7.314  -2.909  23.848  0.00  0.00    +0.229 A 
ATOM     17  O   UNL     1       6.976  -3.938  23.001  0.00  0.00    -0.435 OA
ATOM     18  C   UNL     1       6.152  -4.730  23.749  0.00  0.00    +0.159 A 
ATOM     19  C   UNL     1       5.523  -5.903  23.348  0.00  0.00    +0.093 A 
BRANCH  11  20
ATOM     20  O   UNL     1       4.057  -7.667  24.064  0.00  0.00    -0.507 OA
ATOM     21  H   UNL     1       4.567  -8.419  24.406  0.00  0.00    +0.292 HD
ENDBRANCH  11  20
ENDBRANCH   1  16
BRANCH   6  22
ATOM     22  O   UNL     1       9.708   2.292  21.432  0.00  0.00    -0.506 OA
ATOM     23  H   UNL     1       9.351   2.722  20.639  0.00  0.00    +0.292 HD
ENDBRANCH   6  22
TORSDOF 3
ENDMDL
MODEL 7
REMARK VINA RESULT:      -7.2      2.922      5.141
REMARK  Name = 
REMARK  3 active torsions:
REMARK  status: ('A' for Active; 'I' for Inactive)
REMARK    1  A    between atoms: O_1  and  C_2
REMARK    2  A    between atoms: C_9  and  C_11
REMARK    3  A    between atoms: C_16  and  O_17
REMARK                            x       y       z     vdW  Elec       q    Type
REMARK                         _______ _______ _______ _____ _____    ______ ____
ROOT
ATOM      1  C   UNL     1       9.324   0.397  23.306  0.00  0.00    +0.045 A 
ATOM      2  C   UNL     1       9.291  -0.009  21.957  0.00  0.00    +0.014 A 
ATOM      3  C   UNL     1       9.017  -1.325  21.608  0.00  0.00    +0.001 A 
ATOM      4  C   UNL     1       8.776  -2.260  22.606  0.00  0.00    +0.012 A 
ATOM      5  C   UNL     1       8.763  -1.897  23.967  0.00  0.00    +0.024 A 
ATOM      6  C   UNL     1       8.493  -2.856  24.968  0.00  0.00    +0.125 A 
ATOM      7  C   UNL     1       8.425  -2.511  26.315  0.00  0.00    +0.046 A 
ATOM      8  C   UNL     1       8.621  -1.189  26.686  0.00  0.00    +0.004 A 
ATOM      9  C   UNL     1       8.910  -0.227  25.715  0.00  0.00    +0.009 A 
ATOM     10  C   UNL     1       9.013  -0.547  24.335  0.00  0.00    -0.002 A 
ENDROOT
BRANCH   1  16
ATOM     11  C   UNL     1      11.924   5.652  23.690  0.00  0.00    +0.120 A 
ATOM     12  C   UNL     1      10.641   6.134  23.961  0.00  0.00    +0.048 A 
ATOM     13  C   UNL     1       9.545   5.261  24.024  0.00  0.00    +0.035 A 
ATOM     14  C   UNL     1       9.778   3.898  23.808  0.00  0.00    +0.110 A 
ATOM     15  N   UNL     1       8.924   2.827  23.804  0.00  0.00    -0.209 NA
ATOM     16  C   UNL     1       9.708   1.792  23.547  0.00  0.00    +0.229 A 
ATOM     17  O   UNL     1      11.028   2.120  23.351  0.00  0.00    -0.435 OA
ATOM     18  C   UNL     1      11.067   3.472  23.535  0.00  0.00    +0.159 A 
ATOM     19  C   UNL     1      12.182   4.299  23.460  0.00  0.00    +0.093 A 
BRANCH  11  20
ATOM     20  O   UNL     1      12.936   6.572  23.654  0.00  0.00    -0.507 OA
ATOM     21  H   UNL     1      13.724   6.191  24.075  0.00  0.00    +0.292 HD
ENDBRANCH  11  20
ENDBRANCH   1  16
BRANCH   6  22
ATOM     22  O   UNL     1       8.290  -4.165  24.607  0.00  0.00    -0.506 OA
ATOM     23  H   UNL     1       8.005  -4.195  23.680  0.00  0.00    +0.292 HD
ENDBRANCH   6  22
TORSDOF 3
ENDMDL
MODEL 8
REMARK VINA RESULT:      -7.1      2.073      7.175
REMARK  Name = 
REMARK  3 active torsions:
REMARK  status: ('A' for Active; 'I' for Inactive)
REMARK    1  A    between atoms: O_1  and  C_2
REMARK    2  A    between atoms: C_9  and  C_11
REMARK    3  A    between atoms: C_16  and  O_17
REMARK                            x       y       z     vdW  Elec       q    Type
REMARK                         _______ _______ _______ _____ _____    ______ ____
ROOT
ATOM      1  C   UNL     1       8.760  -0.199  23.139  0.00  0.00    +0.045 A 
ATOM      2  C   UNL     1       9.690   0.135  22.134  0.00  0.00    +0.014 A 
ATOM      3  C   UNL     1      10.190   1.425  22.015  0.00  0.00    +0.001 A 
ATOM      4  C   UNL     1       9.764   2.406  22.900  0.00  0.00    +0.012 A 
ATOM      5  C   UNL     1       8.863   2.116  23.944  0.00  0.00    +0.024 A 
ATOM      6  C   UNL     1       8.457   3.121  24.849  0.00  0.00    +0.125 A 
ATOM      7  C   UNL     1       7.609   2.847  25.918  0.00  0.00    +0.046 A 
ATOM      8  C   UNL     1       7.153   1.550  26.104  0.00  0.00    +0.004 A 
ATOM      9  C   UNL     1       7.524   0.543  25.209  0.00  0.00    +0.009 A 
ATOM     10  C   UNL     1       8.367   0.792  24.094  0.00  0.00    -0.002 A 
ENDROOT
BRANCH   1  16
ATOM     11  C   UNL     1       6.168  -5.331  21.927  0.00  0.00    +0.120 A 
ATOM     12  C   UNL     1       7.044  -5.861  22.878  0.00  0.00    +0.048 A 
ATOM     13  C   UNL     1       7.948  -5.035  23.561  0.00  0.00    +0.035 A 
ATOM     14  C   UNL     1       7.942  -3.667  23.263  0.00  0.00    +0.110 A 
ATOM     15  N   UNL     1       8.695  -2.633  23.756  0.00  0.00    -0.209 NA
ATOM     16  C   UNL     1       8.245  -1.571  23.107  0.00  0.00    +0.229 A 
ATOM     17  O   UNL     1       7.258  -1.847  22.190  0.00  0.00    -0.435 OA
ATOM     18  C   UNL     1       7.059  -3.193  22.307  0.00  0.00    +0.159 A 
ATOM     19  C   UNL     1       6.149  -3.972  21.603  0.00  0.00    +0.093 A 
BRANCH  11  20
ATOM     20  O   UNL     1       5.316  -6.207  21.314  0.00  0.00    -0.507 OA
ATOM     21  H   UNL     1       4.407  -6.013  21.595  0.00  0.00    +0.292 HD
ENDBRANCH  11  20
ENDBRANCH   1  16
BRANCH   6  22
ATOM     22  O   UNL     1       8.912   4.405  24.675  0.00  0.00    -0.506 OA
ATOM     23  H   UNL     1       9.173   4.524  23.748  0.00  0.00    +0.292 HD
ENDBRANCH   6  22
TORSDOF 3
ENDMDL
MODEL 9
REMARK VINA RESULT:      -6.9      2.023      6.814
REMARK  Name = 
REMARK  3 active torsions:
REMARK  status: ('A' for Active; 'I' for Inactive)
REMARK    1  A    between atoms: O_1  and  C_2
REMARK    2  A    between atoms: C_9  and  C_11
REMARK    3  A    between atoms: C_16  and  O_17
REMARK                            x       y       z     vdW  Elec       q    Type
REMARK                         _______ _______ _______ _____ _____    ______ ____
ROOT
ATOM      1  C   UNL     1       7.569  -0.205  24.322  0.00  0.00    +0.045 A 
ATOM      2  C   UNL     1       6.824   0.206  25.445  0.00  0.00    +0.014 A 
ATOM      3  C   UNL     1       6.974   1.478  25.982  0.00  0.00    +0.001 A 
ATOM      4  C   UNL     1       7.877   2.360  25.404  0.00  0.00    +0.012 A 
ATOM      5  C   UNL     1       8.619   2.010  24.259  0.00  0.00    +0.024 A 
ATOM      6  C   UNL     1       9.517   2.928  23.670  0.00  0.00    +0.125 A 
ATOM      7  C   UNL     1      10.223   2.622  22.510  0.00  0.00    +0.046 A 
ATOM      8  C   UNL     1      10.036   1.385  21.911  0.00  0.00    +0.004 A 
ATOM      9  C   UNL     1       9.169   0.453  22.487  0.00  0.00    +0.009 A 
ATOM     10  C   UNL     1       8.453   0.721  23.683  0.00  0.00    -0.002 A 
ENDROOT
BRANCH   1  16
ATOM     11  C   UNL     1       6.257  -5.271  21.648  0.00  0.00    +0.120 A 
ATOM     12  C   UNL     1       7.202  -5.833  22.511  0.00  0.00    +0.048 A 
ATOM     13  C   UNL     1       7.872  -5.041  23.455  0.00  0.00    +0.035 A 
ATOM     14  C   UNL     1       7.562  -3.677  23.507  0.00  0.00    +0.110 A 
ATOM     15  N   UNL     1       8.043  -2.673  24.305  0.00  0.00    -0.209 NA
ATOM     16  C   UNL     1       7.382  -1.599  23.903  0.00  0.00    +0.229 A 
ATOM     17  O   UNL     1       6.513  -1.828  22.864  0.00  0.00    -0.435 OA
ATOM     18  C   UNL     1       6.624  -3.168  22.625  0.00  0.00    +0.159 A 
ATOM     19  C   UNL     1       5.938  -3.911  21.671  0.00  0.00    +0.093 A 
BRANCH  11  20
ATOM     20  O   UNL     1       5.648  -6.117  20.763  0.00  0.00    -0.507 OA
ATOM     21  H   UNL     1       4.743  -6.295  21.069  0.00  0.00    +0.292 HD
ENDBRANCH  11  20
ENDBRANCH   1  16
BRANCH   6  22
ATOM     22  O   UNL     1       9.700   4.157  24.255  0.00  0.00    -0.506 OA
ATOM     23  H   UNL     1       9.428   4.847  23.629  0.00  0.00    +0.292 HD
ENDBRANCH   6  22
TORSDOF 3
ENDMDL
