MODEL 1
REMARK VINA RESULT:      -6.7      0.000      0.000
REMARK  Name = 
REMARK  7 active torsions:
REMARK  status: ('A' for Active; 'I' for Inactive)
REMARK    1  A    between atoms: C_5  and  C_6
REMARK    2  A    between atoms: C_6  and  N_7
REMARK    3  A    between atoms: CA_13  and  C_28
REMARK    4  A    between atoms: CA_17  and  N_19
REMARK    5  A    between atoms: C_20  and  O_21
REMARK    6  A    between atoms: C_20  and  C_22
REMARK    7  A    between atoms: C_22  and  C_23
REMARK                            x       y       z     vdW  Elec       q    Type
REMARK                         _______ _______ _______ _____ _____    ______ ____
ROOT
ATOM      1  C   UNL     1       7.386  -1.087  22.612  0.00  0.00    +0.173 C 
ATOM      2  CA  UNL     1       8.133  -2.414  22.257  0.00  0.00    +0.225 C 
ATOM      3  C   UNL     1       9.430  -1.512  22.378  0.00  0.00    +0.248 C 
ATOM      4  O   UNL     1      10.619  -1.683  22.235  0.00  0.00    -0.273 OA
ATOM      5  N   UNL     1       8.677  -0.495  22.855  0.00  0.00    -0.253 N 
ATOM      6  CA  UNL     1       8.862   0.765  23.344  0.00  0.00    +0.066 C 
ATOM      7  C   UNL     1       7.875   1.354  24.065  0.00  0.00    +0.028 C 
ATOM      8  C   UNL     1       6.555   0.708  24.421  0.00  0.00    +0.110 C 
ATOM      9  S   UNL     1       6.411  -1.057  24.137  0.00  0.00    -0.131 S 
ENDROOT
BRANCH   6  10
ATOM     10  C   UNL     1      10.204   1.551  23.085  0.00  0.00    +0.086 C 
ATOM     11  OXT UNL     1      10.338   1.976  21.900  0.00  0.00    -0.543 OA
ATOM     12  O   UNL     1      11.063   1.408  23.997  0.00  0.00    -0.543 OA
ENDBRANCH   6  10
BRANCH   2  13
ATOM     13  N   UNL     1       8.081  -3.469  23.277  0.00  0.00    -0.239 NA
ATOM     14  C   UNL     1       7.535  -4.610  23.025  0.00  0.00    +0.188 C 
BRANCH  14  15
ATOM     15  O   UNL     1       7.074  -4.999  21.823  0.00  0.00    -0.495 OA
ATOM     16  H   UNL     1       7.227  -5.935  21.651  0.00  0.00    +0.293 HD
ENDBRANCH  14  15
BRANCH  14  17
ATOM     17  C   UNL     1       7.372  -5.659  24.099  0.00  0.00    +0.137 C 
BRANCH  17  18
ATOM     18  C   UNL     1       6.615  -5.054  25.238  0.00  0.00    -0.001 A 
ATOM     19  S   UNL     1       7.386  -4.755  26.735  0.00  0.00    -0.101 S 
ATOM     20  C   UNL     1       5.983  -4.023  27.378  0.00  0.00    +0.045 A 
ATOM     21  C   UNL     1       4.935  -4.035  26.486  0.00  0.00    +0.008 A 
ATOM     22  C   UNL     1       5.293  -4.656  25.257  0.00  0.00    +0.011 A 
ENDBRANCH  17  18
ENDBRANCH  14  17
ENDBRANCH   2  13
BRANCH   7  23
ATOM     23  C   UNL     1       8.033   2.694  24.748  0.00  0.00    +0.391 C 
BRANCH  23  24
ATOM     24  N   UNL     1       8.104   3.901  23.886  0.00  0.00    -0.200 N 
ATOM     25  C   UNL     1       9.018   4.846  24.217  0.00  0.00    +0.309 A 
ATOM     26  C   UNL     1       9.008   6.095  23.607  0.00  0.00    +0.070 A 
ATOM     27  C   UNL     1       8.076   6.358  22.615  0.00  0.00    +0.012 A 
ATOM     28  C   UNL     1       7.193   5.356  22.235  0.00  0.00    +0.070 A 
ATOM     29  C   UNL     1       7.230   4.124  22.881  0.00  0.00    +0.309 A 
ENDBRANCH  23  24
ENDBRANCH   7  23
TORSDOF 7
ENDMDL
MODEL 2
REMARK VINA RESULT:      -6.7      2.101      7.796
REMARK  Name = 
REMARK  7 active torsions:
REMARK  status: ('A' for Active; 'I' for Inactive)
REMARK    1  A    between atoms: C_5  and  C_6
REMARK    2  A    between atoms: C_6  and  N_7
REMARK    3  A    between atoms: CA_13  and  C_28
REMARK    4  A    between atoms: CA_17  and  N_19
REMARK    5  A    between atoms: C_20  and  O_21
REMARK    6  A    between atoms: C_20  and  C_22
REMARK    7  A    between atoms: C_22  and  C_23
REMARK                            x       y       z     vdW  Elec       q    Type
REMARK                         _______ _______ _______ _____ _____    ______ ____
ROOT
ATOM      1  C   UNL     1       9.030  -3.457  24.638  0.00  0.00    +0.173 C 
ATOM      2  CA  UNL     1       9.640  -2.173  23.988  0.00  0.00    +0.225 C 
ATOM      3  C   UNL     1       8.740  -2.582  22.751  0.00  0.00    +0.248 C 
ATOM      4  O   UNL     1       8.546  -2.143  21.639  0.00  0.00    -0.273 OA
ATOM      5  N   UNL     1       8.158  -3.549  23.495  0.00  0.00    -0.253 N 
ATOM      6  CA  UNL     1       7.158  -4.468  23.365  0.00  0.00    +0.066 C 
ATOM      7  C   UNL     1       6.623  -5.034  24.477  0.00  0.00    +0.028 C 
ATOM      8  C   UNL     1       7.018  -4.702  25.897  0.00  0.00    +0.110 C 
ATOM      9  S   UNL     1       8.039  -3.248  26.139  0.00  0.00    -0.131 S 
ENDROOT
BRANCH   6  10
ATOM     10  C   UNL     1       6.615  -4.887  21.946  0.00  0.00    +0.086 C 
ATOM     11  OXT UNL     1       7.311  -5.769  21.361  0.00  0.00    -0.543 OA
ATOM     12  O   UNL     1       5.743  -4.104  21.482  0.00  0.00    -0.543 OA
ENDBRANCH   6  10
BRANCH   2  13
ATOM     13  N   UNL     1       9.229  -0.897  24.588  0.00  0.00    -0.239 NA
ATOM     14  C   UNL     1       9.527   0.227  24.029  0.00  0.00    +0.188 C 
BRANCH  14  15
ATOM     15  O   UNL     1      10.118   0.362  22.829  0.00  0.00    -0.495 OA
ATOM     16  H   UNL     1      10.849   0.989  22.843  0.00  0.00    +0.293 HD
ENDBRANCH  14  15
BRANCH  14  17
ATOM     17  C   UNL     1       9.212   1.545  24.695  0.00  0.00    +0.137 C 
BRANCH  17  18
ATOM     18  C   UNL     1       8.331   2.337  23.782  0.00  0.00    -0.001 A 
ATOM     19  S   UNL     1       6.818   1.718  23.279  0.00  0.00    -0.101 S 
ATOM     20  C   UNL     1       6.446   3.157  22.436  0.00  0.00    +0.045 A 
ATOM     21  C   UNL     1       7.465   4.078  22.503  0.00  0.00    +0.008 A 
ATOM     22  C   UNL     1       8.567   3.594  23.260  0.00  0.00    +0.011 A 
ENDBRANCH  17  18
ENDBRANCH  14  17
ENDBRANCH   2  13
BRANCH   7  23
ATOM     23  C   UNL     1       5.433  -5.969  24.440  0.00  0.00    +0.391 C 
BRANCH  23  24
ATOM     24  N   UNL     1       4.090  -5.366  24.250  0.00  0.00    -0.200 N 
ATOM     25  C   UNL     1       3.709  -4.412  25.135  0.00  0.00    +0.309 A 
ATOM     26  C   UNL     1       2.397  -3.953  25.169  0.00  0.00    +0.070 A 
ATOM     27  C   UNL     1       1.481  -4.447  24.253  0.00  0.00    +0.012 A 
ATOM     28  C   UNL     1       1.904  -5.369  23.305  0.00  0.00    +0.070 A 
ATOM     29  C   UNL     1       3.224  -5.811  23.315  0.00  0.00    +0.309 A 
ENDBRANCH  23  24
ENDBRANCH   7  23
TORSDOF 7
ENDMDL
MODEL 3
REMARK VINA RESULT:      -6.7      2.376      8.059
REMARK  Name = 
REMARK  7 active torsions:
REMARK  status: ('A' for Active; 'I' for Inactive)
REMARK    1  A    between atoms: C_5  and  C_6
REMARK    2  A    between atoms: C_6  and  N_7
REMARK    3  A    between atoms: CA_13  and  C_28
REMARK    4  A    between atoms: CA_17  and  N_19
REMARK    5  A    between atoms: C_20  and  O_21
REMARK    6  A    between atoms: C_20  and  C_22
REMARK    7  A    between atoms: C_22  and  C_23
REMARK                            x       y       z     vdW  Elec       q    Type
REMARK                         _______ _______ _______ _____ _____    ______ ____
ROOT
ATOM      1  C   UNL     1       8.748  -1.356  25.722  0.00  0.00    +0.173 C 
ATOM      2  CA  UNL     1       9.423  -0.575  24.547  0.00  0.00    +0.225 C 
ATOM      3  C   UNL     1       9.765  -2.025  24.010  0.00  0.00    +0.248 C 
ATOM      4  O   UNL     1      10.361  -2.478  23.059  0.00  0.00    -0.273 OA
ATOM      5  N   UNL     1       8.990  -2.565  24.978  0.00  0.00    -0.253 N 
ATOM      6  CA  UNL     1       8.551  -3.800  25.358  0.00  0.00    +0.066 C 
ATOM      7  C   UNL     1       7.480  -3.902  26.186  0.00  0.00    +0.028 C 
ATOM      8  C   UNL     1       6.677  -2.737  26.716  0.00  0.00    +0.110 C 
ATOM      9  S   UNL     1       6.966  -1.137  25.957  0.00  0.00    -0.131 S 
ENDROOT
BRANCH   6  10
ATOM     10  C   UNL     1       9.266  -5.111  24.854  0.00  0.00    +0.086 C 
ATOM     11  OXT UNL     1      10.389  -5.333  25.397  0.00  0.00    -0.543 OA
ATOM     12  O   UNL     1       8.764  -5.595  23.804  0.00  0.00    -0.543 OA
ENDBRANCH   6  10
BRANCH   2  13
ATOM     13  N   UNL     1       8.512   0.156  23.658  0.00  0.00    -0.239 NA
ATOM     14  C   UNL     1       8.945   0.730  22.588  0.00  0.00    +0.188 C 
BRANCH  14  15
ATOM     15  O   UNL     1      10.200   0.637  22.114  0.00  0.00    -0.495 OA
ATOM     16  H   UNL     1      10.703  -0.073  22.528  0.00  0.00    +0.293 HD
ENDBRANCH  14  15
BRANCH  14  17
ATOM     17  C   UNL     1       8.041   1.581  21.729  0.00  0.00    +0.137 C 
BRANCH  17  18
ATOM     18  C   UNL     1       7.789   2.871  22.443  0.00  0.00    -0.001 A 
ATOM     19  S   UNL     1       6.245   3.606  22.394  0.00  0.00    -0.101 S 
ATOM     20  C   UNL     1       6.741   4.851  23.454  0.00  0.00    +0.045 A 
ATOM     21  C   UNL     1       8.064   4.733  23.812  0.00  0.00    +0.008 A 
ATOM     22  C   UNL     1       8.678   3.603  23.206  0.00  0.00    +0.011 A 
ENDBRANCH  17  18
ENDBRANCH  14  17
ENDBRANCH   2  13
BRANCH   7  23
ATOM     23  C   UNL     1       6.848  -5.224  26.564  0.00  0.00    +0.391 C 
BRANCH  23  24
ATOM     24  N   UNL     1       5.688  -5.686  25.761  0.00  0.00    -0.200 N 
ATOM     25  C   UNL     1       4.890  -6.631  26.315  0.00  0.00    +0.309 A 
ATOM     26  C   UNL     1       3.918  -7.278  25.560  0.00  0.00    +0.070 A 
ATOM     27  C   UNL     1       3.737  -6.915  24.234  0.00  0.00    +0.012 A 
ATOM     28  C   UNL     1       4.512  -5.894  23.701  0.00  0.00    +0.070 A 
ATOM     29  C   UNL     1       5.482  -5.282  24.489  0.00  0.00    +0.309 A 
ENDBRANCH  23  24
ENDBRANCH   7  23
TORSDOF 7
ENDMDL
MODEL 4
REMARK VINA RESULT:      -6.6      2.518      3.364
REMARK  Name = 
REMARK  7 active torsions:
REMARK  status: ('A' for Active; 'I' for Inactive)
REMARK    1  A    between atoms: C_5  and  C_6
REMARK    2  A    between atoms: C_6  and  N_7
REMARK    3  A    between atoms: CA_13  and  C_28
REMARK    4  A    between atoms: CA_17  and  N_19
REMARK    5  A    between atoms: C_20  and  O_21
REMARK    6  A    between atoms: C_20  and  C_22
REMARK    7  A    between atoms: C_22  and  C_23
REMARK                            x       y       z     vdW  Elec       q    Type
REMARK                         _______ _______ _______ _____ _____    ______ ____
ROOT
ATOM      1  C   UNL     1       9.137  -3.123  24.239  0.00  0.00    +0.173 C 
ATOM      2  CA  UNL     1       8.732  -3.643  25.657  0.00  0.00    +0.225 C 
ATOM      3  C   UNL     1       8.928  -2.129  26.077  0.00  0.00    +0.248 C 
ATOM      4  O   UNL     1       8.850  -1.500  27.109  0.00  0.00    -0.273 OA
ATOM      5  N   UNL     1       9.080  -1.788  24.778  0.00  0.00    -0.253 N 
ATOM      6  CA  UNL     1       9.241  -0.655  24.035  0.00  0.00    +0.066 C 
ATOM      7  C   UNL     1       8.998  -0.690  22.701  0.00  0.00    +0.028 C 
ATOM      8  C   UNL     1       8.510  -1.901  21.938  0.00  0.00    +0.110 C 
ATOM      9  S   UNL     1       7.922  -3.291  22.907  0.00  0.00    -0.131 S 
ENDROOT
BRANCH   6  10
ATOM     10  C   UNL     1       9.709   0.696  24.700  0.00  0.00    +0.086 C 
ATOM     11  OXT UNL     1      10.965   0.810  24.820  0.00  0.00    -0.543 OA
ATOM     12  O   UNL     1       8.779   1.336  25.262  0.00  0.00    -0.543 OA
ENDBRANCH   6  10
BRANCH   2  13
ATOM     13  N   UNL     1       7.341  -4.093  25.799  0.00  0.00    -0.239 NA
ATOM     14  C   UNL     1       7.038  -5.084  26.567  0.00  0.00    +0.188 C 
BRANCH  14  15
ATOM     15  O   UNL     1       7.897  -5.722  27.382  0.00  0.00    -0.495 OA
ATOM     16  H   UNL     1       8.780  -5.337  27.367  0.00  0.00    +0.293 HD
ENDBRANCH  14  15
BRANCH  14  17
ATOM     17  C   UNL     1       5.632  -5.629  26.631  0.00  0.00    +0.137 C 
BRANCH  17  18
ATOM     18  C   UNL     1       5.011  -5.497  25.277  0.00  0.00    -0.001 A 
ATOM     19  S   UNL     1       3.844  -4.286  24.967  0.00  0.00    -0.101 S 
ATOM     20  C   UNL     1       3.750  -4.717  23.316  0.00  0.00    +0.045 A 
ATOM     21  C   UNL     1       4.564  -5.784  23.011  0.00  0.00    +0.008 A 
ATOM     22  C   UNL     1       5.274  -6.253  24.150  0.00  0.00    +0.011 A 
ENDBRANCH  17  18
ENDBRANCH  14  17
ENDBRANCH   2  13
BRANCH   7  23
ATOM     23  C   UNL     1       9.032   0.539  21.819  0.00  0.00    +0.391 C 
BRANCH  23  24
ATOM     24  N   UNL     1       8.030   1.602  22.081  0.00  0.00    -0.200 N 
ATOM     25  C   UNL     1       8.474   2.883  22.090  0.00  0.00    +0.309 A 
ATOM     26  C   UNL     1       7.661   3.918  22.539  0.00  0.00    +0.070 A 
ATOM     27  C   UNL     1       6.364   3.637  22.939  0.00  0.00    +0.012 A 
ATOM     28  C   UNL     1       5.899   2.331  22.856  0.00  0.00    +0.070 A 
ATOM     29  C   UNL     1       6.750   1.323  22.412  0.00  0.00    +0.309 A 
ENDBRANCH  23  24
ENDBRANCH   7  23
TORSDOF 7
ENDMDL
MODEL 5
REMARK VINA RESULT:      -6.6      2.689      3.905
REMARK  Name = 
REMARK  7 active torsions:
REMARK  status: ('A' for Active; 'I' for Inactive)
REMARK    1  A    between atoms: C_5  and  C_6
REMARK    2  A    between atoms: C_6  and  N_7
REMARK    3  A    between atoms: CA_13  and  C_28
REMARK    4  A    between atoms: CA_17  and  N_19
REMARK    5  A    between atoms: C_20  and  O_21
REMARK    6  A    between atoms: C_20  and  C_22
REMARK    7  A    between atoms: C_22  and  C_23
REMARK                            x       y       z     vdW  Elec       q    Type
REMARK                         _______ _______ _______ _____ _____    ______ ____
ROOT
ATOM      1  C   UNL     1       5.597  -3.687  23.215  0.00  0.00    +0.173 C 
ATOM      2  CA  UNL     1       5.623  -5.233  22.984  0.00  0.00    +0.225 C 
ATOM      3  C   UNL     1       7.194  -5.035  23.005  0.00  0.00    +0.248 C 
ATOM      4  O   UNL     1       8.158  -5.753  22.868  0.00  0.00    -0.273 OA
ATOM      5  N   UNL     1       7.026  -3.749  23.387  0.00  0.00    -0.253 N 
ATOM      6  CA  UNL     1       7.802  -2.686  23.749  0.00  0.00    +0.066 C 
ATOM      7  C   UNL     1       7.240  -1.647  24.418  0.00  0.00    +0.028 C 
ATOM      8  C   UNL     1       5.793  -1.570  24.849  0.00  0.00    +0.110 C 
ATOM      9  S   UNL     1       4.831  -3.080  24.740  0.00  0.00    -0.131 S 
ENDROOT
BRANCH   6  10
ATOM     10  C   UNL     1       9.339  -2.642  23.402  0.00  0.00    +0.086 C 
ATOM     11  OXT UNL     1       9.599  -2.194  22.247  0.00  0.00    -0.543 OA
ATOM     12  O   UNL     1      10.059  -3.304  24.197  0.00  0.00    -0.543 OA
ENDBRANCH   6  10
BRANCH   2  13
ATOM     13  N   UNL     1       5.142  -6.054  24.103  0.00  0.00    -0.239 NA
ATOM     14  C   UNL     1       4.029  -6.701  24.022  0.00  0.00    +0.188 C 
BRANCH  14  15
ATOM     15  O   UNL     1       3.266  -6.794  22.919  0.00  0.00    -0.495 OA
ATOM     16  H   UNL     1       3.692  -7.293  22.213  0.00  0.00    +0.293 HD
ENDBRANCH  14  15
BRANCH  14  17
ATOM     17  C   UNL     1       3.468  -7.453  25.205  0.00  0.00    +0.137 C 
BRANCH  17  18
ATOM     18  C   UNL     1       3.414  -6.522  26.375  0.00  0.00    -0.001 A 
ATOM     19  S   UNL     1       4.584  -6.619  27.619  0.00  0.00    -0.101 S 
ATOM     20  C   UNL     1       3.925  -5.263  28.423  0.00  0.00    +0.045 A 
ATOM     21  C   UNL     1       2.816  -4.765  27.779  0.00  0.00    +0.008 A 
ATOM     22  C   UNL     1       2.504  -5.510  26.608  0.00  0.00    +0.011 A 
ENDBRANCH  17  18
ENDBRANCH  14  17
ENDBRANCH   2  13
BRANCH   7  23
ATOM     23  C   UNL     1       8.040  -0.485  24.966  0.00  0.00    +0.391 C 
BRANCH  23  24
ATOM     24  N   UNL     1       8.583   0.495  23.992  0.00  0.00    -0.200 N 
ATOM     25  C   UNL     1       7.826   0.769  22.901  0.00  0.00    +0.309 A 
ATOM     26  C   UNL     1       8.343   1.499  21.837  0.00  0.00    +0.070 A 
ATOM     27  C   UNL     1       9.637   1.991  21.918  0.00  0.00    +0.012 A 
ATOM     28  C   UNL     1      10.375   1.765  23.072  0.00  0.00    +0.070 A 
ATOM     29  C   UNL     1       9.823   1.019  24.108  0.00  0.00    +0.309 A 
ENDBRANCH  23  24
ENDBRANCH   7  23
TORSDOF 7
ENDMDL
MODEL 6
REMARK VINA RESULT:      -6.4      3.362      5.119
REMARK  Name = 
REMARK  7 active torsions:
REMARK  status: ('A' for Active; 'I' for Inactive)
REMARK    1  A    between atoms: C_5  and  C_6
REMARK    2  A    between atoms: C_6  and  N_7
REMARK    3  A    between atoms: CA_13  and  C_28
REMARK    4  A    between atoms: CA_17  and  N_19
REMARK    5  A    between atoms: C_20  and  O_21
REMARK    6  A    between atoms: C_20  and  C_22
REMARK    7  A    between atoms: C_22  and  C_23
REMARK                            x       y       z     vdW  Elec       q    Type
REMARK                         _______ _______ _______ _____ _____    ______ ____
ROOT
ATOM      1  C   UNL     1       6.572  -4.957  22.738  0.00  0.00    +0.173 C 
ATOM      2  CA  UNL     1       5.460  -5.794  23.449  0.00  0.00    +0.225 C 
ATOM      3  C   UNL     1       6.416  -5.674  24.706  0.00  0.00    +0.248 C 
ATOM      4  O   UNL     1       6.400  -6.077  25.847  0.00  0.00    -0.273 OA
ATOM      5  N   UNL     1       7.199  -4.806  24.026  0.00  0.00    -0.253 N 
ATOM      6  CA  UNL     1       8.300  -4.034  24.258  0.00  0.00    +0.066 C 
ATOM      7  C   UNL     1       8.586  -3.009  23.415  0.00  0.00    +0.028 C 
ATOM      8  C   UNL     1       7.749  -2.604  22.223  0.00  0.00    +0.110 C 
ATOM      9  S   UNL     1       6.113  -3.328  22.094  0.00  0.00    -0.131 S 
ENDROOT
BRANCH   6  10
ATOM     10  C   UNL     1       9.248  -4.313  25.486  0.00  0.00    +0.086 C 
ATOM     11  OXT UNL     1      10.164  -5.157  25.256  0.00  0.00    -0.543 OA
ATOM     12  O   UNL     1       8.803  -3.878  26.582  0.00  0.00    -0.543 OA
ENDBRANCH   6  10
BRANCH   2  13
ATOM     13  N   UNL     1       4.175  -5.110  23.648  0.00  0.00    -0.239 NA
ATOM     14  C   UNL     1       3.060  -5.695  23.369  0.00  0.00    +0.188 C 
BRANCH  14  15
ATOM     15  O   UNL     1       2.934  -6.979  22.989  0.00  0.00    -0.495 OA
ATOM     16  H   UNL     1       3.108  -7.109  22.051  0.00  0.00    +0.293 HD
ENDBRANCH  14  15
BRANCH  14  17
ATOM     17  C   UNL     1       1.743  -4.963  23.459  0.00  0.00    +0.137 C 
BRANCH  17  18
ATOM     18  C   UNL     1       1.516  -4.573  24.885  0.00  0.00    -0.001 A 
ATOM     19  S   UNL     1       1.386  -5.765  26.104  0.00  0.00    -0.101 S 
ATOM     20  C   UNL     1       1.265  -4.581  27.330  0.00  0.00    +0.045 A 
ATOM     21  C   UNL     1       1.287  -3.302  26.822  0.00  0.00    +0.008 A 
ATOM     22  C   UNL     1       1.406  -3.298  25.405  0.00  0.00    +0.011 A 
ENDBRANCH  17  18
ENDBRANCH  14  17
ENDBRANCH   2  13
BRANCH   7  23
ATOM     23  C   UNL     1       9.712  -2.027  23.657  0.00  0.00    +0.391 C 
BRANCH  23  24
ATOM     24  N   UNL     1       9.345  -0.616  23.938  0.00  0.00    -0.200 N 
ATOM     25  C   UNL     1      10.004   0.344  23.244  0.00  0.00    +0.309 A 
ATOM     26  C   UNL     1       9.888   1.685  23.593  0.00  0.00    +0.070 A 
ATOM     27  C   UNL     1       9.048   2.044  24.637  0.00  0.00    +0.012 A 
ATOM     28  C   UNL     1       8.323   1.056  25.290  0.00  0.00    +0.070 A 
ATOM     29  C   UNL     1       8.480  -0.275  24.917  0.00  0.00    +0.309 A 
ENDBRANCH  23  24
ENDBRANCH   7  23
TORSDOF 7
ENDMDL
MODEL 7
REMARK VINA RESULT:      -6.4      2.373      8.247
REMARK  Name = 
REMARK  7 active torsions:
REMARK  status: ('A' for Active; 'I' for Inactive)
REMARK    1  A    between atoms: C_5  and  C_6
REMARK    2  A    between atoms: C_6  and  N_7
REMARK    3  A    between atoms: CA_13  and  C_28
REMARK    4  A    between atoms: CA_17  and  N_19
REMARK    5  A    between atoms: C_20  and  O_21
REMARK    6  A    between atoms: C_20  and  C_22
REMARK    7  A    between atoms: C_22  and  C_23
REMARK                            x       y       z     vdW  Elec       q    Type
REMARK                         _______ _______ _______ _____ _____    ______ ____
ROOT
ATOM      1  C   UNL     1       9.040  -4.020  24.626  0.00  0.00    +0.173 C 
ATOM      2  CA  UNL     1       9.553  -2.759  23.857  0.00  0.00    +0.225 C 
ATOM      3  C   UNL     1       8.298  -3.029  22.929  0.00  0.00    +0.248 C 
ATOM      4  O   UNL     1       7.832  -2.520  21.935  0.00  0.00    -0.273 OA
ATOM      5  N   UNL     1       7.869  -3.981  23.788  0.00  0.00    -0.253 N 
ATOM      6  CA  UNL     1       6.792  -4.806  23.936  0.00  0.00    +0.066 C 
ATOM      7  C   UNL     1       6.553  -5.381  25.142  0.00  0.00    +0.028 C 
ATOM      8  C   UNL     1       7.373  -5.155  26.391  0.00  0.00    +0.110 C 
ATOM      9  S   UNL     1       8.553  -3.805  26.356  0.00  0.00    -0.131 S 
ENDROOT
BRANCH   6  10
ATOM     10  C   UNL     1       5.823  -5.106  22.730  0.00  0.00    +0.086 C 
ATOM     11  OXT UNL     1       6.221  -6.029  21.959  0.00  0.00    -0.543 OA
ATOM     12  O   UNL     1       4.947  -4.218  22.547  0.00  0.00    -0.543 OA
ENDBRANCH   6  10
BRANCH   2  13
ATOM     13  N   UNL     1       9.457  -1.486  24.582  0.00  0.00    -0.239 NA
ATOM     14  C   UNL     1       9.956  -0.403  24.091  0.00  0.00    +0.188 C 
BRANCH  14  15
ATOM     15  O   UNL     1      10.496  -0.285  22.865  0.00  0.00    -0.495 OA
ATOM     16  H   UNL     1      11.198  -0.925  22.705  0.00  0.00    +0.293 HD
ENDBRANCH  14  15
BRANCH  14  17
ATOM     17  C   UNL     1       9.966   0.886  24.878  0.00  0.00    +0.137 C 
BRANCH  17  18
ATOM     18  C   UNL     1       9.090   1.875  24.176  0.00  0.00    -0.001 A 
ATOM     19  S   UNL     1       9.682   3.427  23.769  0.00  0.00    -0.101 S 
ATOM     20  C   UNL     1       8.227   3.835  22.971  0.00  0.00    +0.045 A 
ATOM     21  C   UNL     1       7.294   2.826  23.042  0.00  0.00    +0.008 A 
ATOM     22  C   UNL     1       7.784   1.702  23.762  0.00  0.00    +0.011 A 
ENDBRANCH  17  18
ENDBRANCH  14  17
ENDBRANCH   2  13
BRANCH   7  23
ATOM     23  C   UNL     1       5.321  -6.211  25.434  0.00  0.00    +0.391 C 
BRANCH  23  24
ATOM     24  N   UNL     1       4.535  -5.871  26.646  0.00  0.00    -0.200 N 
ATOM     25  C   UNL     1       4.528  -6.778  27.654  0.00  0.00    +0.309 A 
ATOM     26  C   UNL     1       3.653  -6.649  28.726  0.00  0.00    +0.070 A 
ATOM     27  C   UNL     1       2.809  -5.550  28.784  0.00  0.00    +0.012 A 
ATOM     28  C   UNL     1       2.879  -4.592  27.782  0.00  0.00    +0.070 A 
ATOM     29  C   UNL     1       3.761  -4.767  26.720  0.00  0.00    +0.309 A 
ENDBRANCH  23  24
ENDBRANCH   7  23
TORSDOF 7
ENDMDL
MODEL 8
REMARK VINA RESULT:      -6.3      2.488      8.234
REMARK  Name = 
REMARK  7 active torsions:
REMARK  status: ('A' for Active; 'I' for Inactive)
REMARK    1  A    between atoms: C_5  and  C_6
REMARK    2  A    between atoms: C_6  and  N_7
REMARK    3  A    between atoms: CA_13  and  C_28
REMARK    4  A    between atoms: CA_17  and  N_19
REMARK    5  A    between atoms: C_20  and  O_21
REMARK    6  A    between atoms: C_20  and  C_22
REMARK    7  A    between atoms: C_22  and  C_23
REMARK                            x       y       z     vdW  Elec       q    Type
REMARK                         _______ _______ _______ _____ _____    ______ ____
ROOT
ATOM      1  C   UNL     1       7.915  -4.442  23.568  0.00  0.00    +0.173 C 
ATOM      2  CA  UNL     1       7.872  -3.292  22.510  0.00  0.00    +0.225 C 
ATOM      3  C   UNL     1       6.308  -3.539  22.561  0.00  0.00    +0.248 C 
ATOM      4  O   UNL     1       5.341  -3.079  21.998  0.00  0.00    -0.273 OA
ATOM      5  N   UNL     1       6.476  -4.381  23.605  0.00  0.00    -0.253 N 
ATOM      6  CA  UNL     1       5.700  -5.106  24.462  0.00  0.00    +0.066 C 
ATOM      7  C   UNL     1       6.233  -5.560  25.625  0.00  0.00    +0.028 C 
ATOM      8  C   UNL     1       7.645  -5.296  26.095  0.00  0.00    +0.110 C 
ATOM      9  S   UNL     1       8.579  -4.049  25.206  0.00  0.00    -0.131 S 
ENDROOT
BRANCH   6  10
ATOM     10  C   UNL     1       4.194  -5.428  24.124  0.00  0.00    +0.086 C 
ATOM     11  OXT UNL     1       3.368  -4.573  24.560  0.00  0.00    -0.543 OA
ATOM     12  O   UNL     1       4.004  -6.607  23.720  0.00  0.00    -0.543 OA
ENDBRANCH   6  10
BRANCH   2  13
ATOM     13  N   UNL     1       8.250  -1.959  22.999  0.00  0.00    -0.239 NA
ATOM     14  C   UNL     1       9.256  -1.328  22.497  0.00  0.00    +0.188 C 
BRANCH  14  15
ATOM     15  O   UNL     1       9.978  -1.738  21.439  0.00  0.00    -0.495 OA
ATOM     16  H   UNL     1      10.434  -1.014  20.997  0.00  0.00    +0.293 HD
ENDBRANCH  14  15
BRANCH  14  17
ATOM     17  C   UNL     1       9.724  -0.011  23.069  0.00  0.00    +0.137 C 
BRANCH  17  18
ATOM     18  C   UNL     1       8.655   1.009  22.841  0.00  0.00    -0.001 A 
ATOM     19  S   UNL     1       7.700   1.576  24.142  0.00  0.00    -0.101 S 
ATOM     20  C   UNL     1       6.887   2.692  23.135  0.00  0.00    +0.045 A 
ATOM     21  C   UNL     1       7.306   2.612  21.826  0.00  0.00    +0.008 A 
ATOM     22  C   UNL     1       8.310   1.621  21.651  0.00  0.00    +0.011 A 
ENDBRANCH  17  18
ENDBRANCH  14  17
ENDBRANCH   2  13
BRANCH   7  23
ATOM     23  C   UNL     1       5.421  -6.265  26.689  0.00  0.00    +0.391 C 
BRANCH  23  24
ATOM     24  N   UNL     1       5.204  -5.553  27.973  0.00  0.00    -0.200 N 
ATOM     25  C   UNL     1       5.702  -6.132  29.094  0.00  0.00    +0.309 A 
ATOM     26  C   UNL     1       5.362  -5.658  30.355  0.00  0.00    +0.070 A 
ATOM     27  C   UNL     1       4.538  -4.547  30.462  0.00  0.00    +0.012 A 
ATOM     28  C   UNL     1       4.096  -3.920  29.305  0.00  0.00    +0.070 A 
ATOM     29  C   UNL     1       4.450  -4.436  28.063  0.00  0.00    +0.309 A 
ENDBRANCH  23  24
ENDBRANCH   7  23
TORSDOF 7
ENDMDL
MODEL 9
REMARK VINA RESULT:      -6.3      2.657      7.845
REMARK  Name = 
REMARK  7 active torsions:
REMARK  status: ('A' for Active; 'I' for Inactive)
REMARK    1  A    between atoms: C_5  and  C_6
REMARK    2  A    between atoms: C_6  and  N_7
REMARK    3  A    between atoms: CA_13  and  C_28
REMARK    4  A    between atoms: CA_17  and  N_19
REMARK    5  A    between atoms: C_20  and  O_21
REMARK    6  A    between atoms: C_20  and  C_22
REMARK    7  A    between atoms: C_22  and  C_23
REMARK                            x       y       z     vdW  Elec       q    Type
REMARK                         _______ _______ _______ _____ _____    ______ ____
ROOT
ATOM      1  C   UNL     1       8.415  -2.174  25.908  0.00  0.00    +0.173 C 
ATOM      2  CA  UNL     1       9.258  -2.345  24.603  0.00  0.00    +0.225 C 
ATOM      3  C   UNL     1       8.573  -3.772  24.555  0.00  0.00    +0.248 C 
ATOM      4  O   UNL     1       8.636  -4.738  23.828  0.00  0.00    -0.273 OA
ATOM      5  N   UNL     1       7.770  -3.421  25.584  0.00  0.00    -0.253 N 
ATOM      6  CA  UNL     1       6.728  -3.951  26.288  0.00  0.00    +0.066 C 
ATOM      7  C   UNL     1       5.940  -3.134  27.032  0.00  0.00    +0.028 C 
ATOM      8  C   UNL     1       6.089  -1.633  27.128  0.00  0.00    +0.110 C 
ATOM      9  S   UNL     1       7.183  -0.847  25.943  0.00  0.00    -0.131 S 
ENDROOT
BRANCH   6  10
ATOM     10  C   UNL     1       6.425  -5.498  26.255  0.00  0.00    +0.086 C 
ATOM     11  OXT UNL     1       7.072  -6.174  27.110  0.00  0.00    -0.543 OA
ATOM     12  O   UNL     1       5.809  -5.875  25.222  0.00  0.00    -0.543 OA
ENDBRANCH   6  10
BRANCH   2  13
ATOM     13  N   UNL     1       8.866  -1.492  23.473  0.00  0.00    -0.239 NA
ATOM     14  C   UNL     1       9.675  -1.273  22.494  0.00  0.00    +0.188 C 
BRANCH  14  15
ATOM     15  O   UNL     1      10.874  -1.862  22.334  0.00  0.00    -0.495 OA
ATOM     16  H   UNL     1      10.881  -2.502  21.614  0.00  0.00    +0.293 HD
ENDBRANCH  14  15
BRANCH  14  17
ATOM     17  C   UNL     1       9.329  -0.307  21.386  0.00  0.00    +0.137 C 
BRANCH  17  18
ATOM     18  C   UNL     1       9.185   1.059  21.979  0.00  0.00    -0.001 A 
ATOM     19  S   UNL     1       7.698   1.898  21.882  0.00  0.00    -0.101 S 
ATOM     20  C   UNL     1       8.304   3.196  22.813  0.00  0.00    +0.045 A 
ATOM     21  C   UNL     1       9.623   3.014  23.163  0.00  0.00    +0.008 A 
ATOM     22  C   UNL     1      10.140   1.790  22.658  0.00  0.00    +0.011 A 
ENDBRANCH  17  18
ENDBRANCH  14  17
ENDBRANCH   2  13
BRANCH   7  23
ATOM     23  C   UNL     1       4.695  -3.611  27.747  0.00  0.00    +0.391 C 
BRANCH  23  24
ATOM     24  N   UNL     1       3.536  -4.018  26.914  0.00  0.00    -0.200 N 
ATOM     25  C   UNL     1       2.911  -5.174  27.244  0.00  0.00    +0.309 A 
ATOM     26  C   UNL     1       1.966  -5.743  26.399  0.00  0.00    +0.070 A 
ATOM     27  C   UNL     1       1.626  -5.089  25.223  0.00  0.00    +0.012 A 
ATOM     28  C   UNL     1       2.221  -3.869  24.934  0.00  0.00    +0.070 A 
ATOM     29  C   UNL     1       3.172  -3.342  25.802  0.00  0.00    +0.309 A 
ENDBRANCH  23  24
ENDBRANCH   7  23
TORSDOF 7
ENDMDL
