MODEL 1
REMARK VINA RESULT:      -7.4      0.000      0.000
REMARK  Name = 
REMARK  12 active torsions:
REMARK  status: ('A' for Active; 'I' for Inactive)
REMARK    1  A    between atoms: C_1  and  C_2
REMARK    2  A    between atoms: C_2  and  O_3
REMARK    3  A    between atoms: O_3  and  C_4
REMARK    4  A    between atoms: C_7  and  C_10
REMARK    5  A    between atoms: C_13  and  C_16
REMARK    6  A    between atoms: C_16  and  C_18
REMARK    7  A    between atoms: C_18  and  C_19
REMARK    8  A    between atoms: C_19  and  C_21
REMARK    9  A    between atoms: C_19  and  C_34
REMARK   10  A    between atoms: C_21  and  C_22
REMARK   11  A    between atoms: C_22  and  N_23
REMARK   12  A    between atoms: C_34  and  O_35
REMARK                            x       y       z     vdW  Elec       q    Type
REMARK                         _______ _______ _______ _____ _____    ______ ____
ROOT
ATOM      1  C   UNL     1       6.436  -3.583  27.134  0.00  0.00    +0.094 C 
ENDROOT
BRANCH   1   2
ATOM      2  C   UNL     1       5.988  -2.148  26.914  0.00  0.00    +0.164 C 
ATOM      3  O   UNL     1       5.000  -1.692  27.485  0.00  0.00    -0.292 OA
BRANCH   2   7
ATOM      4  C   UNL     1       8.308   0.813  24.811  0.00  0.00    -0.018 A 
ATOM      5  C   UNL     1       8.918  -0.036  25.750  0.00  0.00    +0.009 A 
ATOM      6  C   UNL     1       8.206  -1.062  26.380  0.00  0.00    +0.012 A 
ATOM      7  C   UNL     1       6.852  -1.248  26.099  0.00  0.00    +0.017 A 
ATOM      8  C   UNL     1       6.262  -0.510  25.072  0.00  0.00    +0.012 A 
ATOM      9  C   UNL     1       6.989   0.502  24.431  0.00  0.00    +0.009 A 
BRANCH   4  13
ATOM     10  C   UNL     1      10.387   4.467  23.810  0.00  0.00    +0.121 A 
ATOM     11  C   UNL     1      10.894   3.237  23.396  0.00  0.00    +0.046 A 
ATOM     12  C   UNL     1      10.196   2.049  23.656  0.00  0.00    +0.012 A 
ATOM     13  C   UNL     1       8.979   2.055  24.358  0.00  0.00    -0.018 A 
ATOM     14  C   UNL     1       8.472   3.313  24.733  0.00  0.00    +0.012 A 
ATOM     15  C   UNL     1       9.158   4.500  24.460  0.00  0.00    +0.046 A 
BRANCH  10  16
ATOM     16  O   UNL     1      11.176   5.554  23.545  0.00  0.00    -0.492 OA
BRANCH  16  18
ATOM     17  C   UNL     1      13.141   5.641  22.177  0.00  0.00    +0.048 C 
ATOM     18  C   UNL     1      12.585   5.325  23.552  0.00  0.00    +0.225 C 
ENDBRANCH  16  18
ENDBRANCH  10  16
ENDBRANCH   4  13
ENDBRANCH   2   7
ENDBRANCH   1   2
BRANCH   1  19
ATOM     19  C   UNL     1       5.352  -4.606  26.769  0.00  0.00    +0.106 C 
BRANCH  19  20
ATOM     20  C   UNL     1       5.914  -5.975  27.104  0.00  0.00    +0.308 C 
ATOM     21  O   UNL     1       5.269  -7.012  27.043  0.00  0.00    -0.251 OA
BRANCH  20  22
ATOM     22  O   UNL     1       7.211  -5.959  27.479  0.00  0.00    -0.480 OA
ATOM     23  H   UNL     1       7.627  -5.078  27.505  0.00  0.00    +0.295 HD
ENDBRANCH  20  22
ENDBRANCH  19  20
BRANCH  19  24
ATOM     24  C   UNL     1       4.993  -4.531  25.276  0.00  0.00    +0.034 C 
BRANCH  24  25
ATOM     25  C   UNL     1       5.976  -5.274  24.368  0.00  0.00    +0.118 C 
BRANCH  25  26
ATOM     26  N   UNL     1       6.958  -4.359  23.816  0.00  0.00    -0.234 N 
ATOM     27  C   UNL     1       8.238  -4.256  24.290  0.00  0.00    +0.254 C 
ATOM     28  O   UNL     1       8.785  -4.886  25.173  0.00  0.00    -0.270 OA
ATOM     29  C   UNL     1       8.869  -3.171  23.548  0.00  0.00    +0.049 A 
ATOM     30  C   UNL     1       7.929  -2.655  22.674  0.00  0.00    +0.049 A 
ATOM     31  C   UNL     1       8.220  -1.595  21.838  0.00  0.00    +0.014 A 
ATOM     32  C   UNL     1       9.512  -1.062  21.906  0.00  0.00    +0.001 A 
ATOM     33  C   UNL     1      10.468  -1.592  22.798  0.00  0.00    +0.001 A 
ATOM     34  C   UNL     1      10.150  -2.661  23.638  0.00  0.00    +0.014 A 
ATOM     35  C   UNL     1       6.692  -3.412  22.864  0.00  0.00    +0.254 C 
ATOM     36  O   UNL     1       5.655  -3.190  22.269  0.00  0.00    -0.270 OA
ENDBRANCH  25  26
ENDBRANCH  24  25
ENDBRANCH  19  24
ENDBRANCH   1  19
TORSDOF 11
ENDMDL
MODEL 2
REMARK VINA RESULT:      -7.3      0.288      1.709
REMARK  Name = 
REMARK  12 active torsions:
REMARK  status: ('A' for Active; 'I' for Inactive)
REMARK    1  A    between atoms: C_1  and  C_2
REMARK    2  A    between atoms: C_2  and  O_3
REMARK    3  A    between atoms: O_3  and  C_4
REMARK    4  A    between atoms: C_7  and  C_10
REMARK    5  A    between atoms: C_13  and  C_16
REMARK    6  A    between atoms: C_16  and  C_18
REMARK    7  A    between atoms: C_18  and  C_19
REMARK    8  A    between atoms: C_19  and  C_21
REMARK    9  A    between atoms: C_19  and  C_34
REMARK   10  A    between atoms: C_21  and  C_22
REMARK   11  A    between atoms: C_22  and  N_23
REMARK   12  A    between atoms: C_34  and  O_35
REMARK                            x       y       z     vdW  Elec       q    Type
REMARK                         _______ _______ _______ _____ _____    ______ ____
ROOT
ATOM      1  C   UNL     1       6.004  -3.632  27.168  0.00  0.00    +0.094 C 
ENDROOT
BRANCH   1   2
ATOM      2  C   UNL     1       5.571  -2.220  26.811  0.00  0.00    +0.164 C 
ATOM      3  O   UNL     1       4.491  -1.768  27.186  0.00  0.00    -0.292 OA
BRANCH   2   7
ATOM      4  C   UNL     1       8.205   0.705  25.057  0.00  0.00    -0.018 A 
ATOM      5  C   UNL     1       8.695  -0.229  25.985  0.00  0.00    +0.009 A 
ATOM      6  C   UNL     1       7.881  -1.243  26.501  0.00  0.00    +0.012 A 
ATOM      7  C   UNL     1       6.543  -1.332  26.113  0.00  0.00    +0.017 A 
ATOM      8  C   UNL     1       6.074  -0.504  25.093  0.00  0.00    +0.012 A 
ATOM      9  C   UNL     1       6.902   0.495  24.566  0.00  0.00    +0.009 A 
BRANCH   4  13
ATOM     10  C   UNL     1      10.354   4.226  23.769  0.00  0.00    +0.121 A 
ATOM     11  C   UNL     1       9.151   4.354  24.459  0.00  0.00    +0.046 A 
ATOM     12  C   UNL     1       8.476   3.223  24.941  0.00  0.00    +0.012 A 
ATOM     13  C   UNL     1       8.977   1.927  24.727  0.00  0.00    -0.018 A 
ATOM     14  C   UNL     1      10.211   1.829  24.059  0.00  0.00    +0.012 A 
ATOM     15  C   UNL     1      10.893   2.956  23.592  0.00  0.00    +0.046 A 
BRANCH  10  16
ATOM     16  O   UNL     1      10.898   5.393  23.303  0.00  0.00    -0.492 OA
BRANCH  16  18
ATOM     17  C   UNL     1      13.059   5.628  22.295  0.00  0.00    +0.048 C 
ATOM     18  C   UNL     1      12.280   5.603  23.595  0.00  0.00    +0.225 C 
ENDBRANCH  16  18
ENDBRANCH  10  16
ENDBRANCH   4  13
ENDBRANCH   2   7
ENDBRANCH   1   2
BRANCH   1  19
ATOM     19  C   UNL     1       5.044  -4.702  26.630  0.00  0.00    +0.106 C 
BRANCH  19  20
ATOM     20  C   UNL     1       5.692  -6.046  26.901  0.00  0.00    +0.308 C 
ATOM     21  O   UNL     1       5.112  -7.118  26.800  0.00  0.00    -0.251 OA
BRANCH  20  22
ATOM     22  O   UNL     1       6.990  -5.966  27.265  0.00  0.00    -0.480 OA
ATOM     23  H   UNL     1       7.541  -5.374  26.720  0.00  0.00    +0.295 HD
ENDBRANCH  20  22
ENDBRANCH  19  20
BRANCH  19  24
ATOM     24  C   UNL     1       4.799  -4.525  25.123  0.00  0.00    +0.034 C 
BRANCH  24  25
ATOM     25  C   UNL     1       5.874  -5.170  24.244  0.00  0.00    +0.118 C 
BRANCH  25  26
ATOM     26  N   UNL     1       6.869  -4.190  23.849  0.00  0.00    -0.234 N 
ATOM     27  C   UNL     1       6.666  -3.275  22.850  0.00  0.00    +0.254 C 
ATOM     28  O   UNL     1       5.678  -3.084  22.171  0.00  0.00    -0.270 OA
ATOM     29  C   UNL     1       7.921  -2.549  22.693  0.00  0.00    +0.049 A 
ATOM     30  C   UNL     1       8.830  -3.077  23.592  0.00  0.00    +0.049 A 
ATOM     31  C   UNL     1      10.126  -2.608  23.673  0.00  0.00    +0.014 A 
ATOM     32  C   UNL     1      10.486  -1.567  22.809  0.00  0.00    +0.001 A 
ATOM     33  C   UNL     1       9.556  -1.031  21.894  0.00  0.00    +0.001 A 
ATOM     34  C   UNL     1       8.251  -1.525  21.825  0.00  0.00    +0.014 A 
ATOM     35  C   UNL     1       8.153  -4.147  24.322  0.00  0.00    +0.254 C 
ATOM     36  O   UNL     1       8.683  -4.840  25.170  0.00  0.00    -0.270 OA
ENDBRANCH  25  26
ENDBRANCH  24  25
ENDBRANCH  19  24
ENDBRANCH   1  19
TORSDOF 11
ENDMDL
MODEL 3
REMARK VINA RESULT:      -7.0      2.372      4.792
REMARK  Name = 
REMARK  12 active torsions:
REMARK  status: ('A' for Active; 'I' for Inactive)
REMARK    1  A    between atoms: C_1  and  C_2
REMARK    2  A    between atoms: C_2  and  O_3
REMARK    3  A    between atoms: O_3  and  C_4
REMARK    4  A    between atoms: C_7  and  C_10
REMARK    5  A    between atoms: C_13  and  C_16
REMARK    6  A    between atoms: C_16  and  C_18
REMARK    7  A    between atoms: C_18  and  C_19
REMARK    8  A    between atoms: C_19  and  C_21
REMARK    9  A    between atoms: C_19  and  C_34
REMARK   10  A    between atoms: C_21  and  C_22
REMARK   11  A    between atoms: C_22  and  N_23
REMARK   12  A    between atoms: C_34  and  O_35
REMARK                            x       y       z     vdW  Elec       q    Type
REMARK                         _______ _______ _______ _____ _____    ______ ____
ROOT
ATOM      1  C   UNL     1       3.141  -6.052  24.563  0.00  0.00    +0.094 C 
ENDROOT
BRANCH   1   2
ATOM      2  C   UNL     1       4.532  -6.366  24.037  0.00  0.00    +0.164 C 
ATOM      3  O   UNL     1       4.958  -7.518  24.005  0.00  0.00    -0.292 OA
BRANCH   2   7
ATOM      4  C   UNL     1       6.881  -3.009  22.702  0.00  0.00    -0.018 A 
ATOM      5  C   UNL     1       7.442  -4.295  22.754  0.00  0.00    +0.009 A 
ATOM      6  C   UNL     1       6.676  -5.414  23.098  0.00  0.00    +0.012 A 
ATOM      7  C   UNL     1       5.327  -5.265  23.423  0.00  0.00    +0.017 A 
ATOM      8  C   UNL     1       4.718  -4.022  23.246  0.00  0.00    +0.012 A 
ATOM      9  C   UNL     1       5.488  -2.911  22.879  0.00  0.00    +0.009 A 
BRANCH   4  13
ATOM     10  C   UNL     1       9.324   0.504  22.095  0.00  0.00    +0.121 A 
ATOM     11  C   UNL     1       8.062   0.621  22.675  0.00  0.00    +0.046 A 
ATOM     12  C   UNL     1       7.286  -0.517  22.939  0.00  0.00    +0.012 A 
ATOM     13  C   UNL     1       7.742  -1.805  22.610  0.00  0.00    -0.018 A 
ATOM     14  C   UNL     1       9.033  -1.897  22.059  0.00  0.00    +0.012 A 
ATOM     15  C   UNL     1       9.815  -0.765  21.810  0.00  0.00    +0.046 A 
BRANCH  10  16
ATOM     16  O   UNL     1       9.971   1.684  21.839  0.00  0.00    -0.492 OA
BRANCH  16  18
ATOM     17  C   UNL     1      10.920   1.827  24.035  0.00  0.00    +0.048 C 
ATOM     18  C   UNL     1      10.148   2.559  22.954  0.00  0.00    +0.225 C 
ENDBRANCH  16  18
ENDBRANCH  10  16
ENDBRANCH   4  13
ENDBRANCH   2   7
ENDBRANCH   1   2
BRANCH   1  19
ATOM     19  C   UNL     1       2.836  -6.755  25.892  0.00  0.00    +0.106 C 
BRANCH  19  20
ATOM     20  C   UNL     1       1.851  -7.867  25.581  0.00  0.00    +0.308 C 
ATOM     21  O   UNL     1       0.637  -7.742  25.649  0.00  0.00    -0.251 OA
BRANCH  20  22
ATOM     22  O   UNL     1       2.433  -9.028  25.213  0.00  0.00    -0.480 OA
ATOM     23  H   UNL     1       1.946  -9.836  25.461  0.00  0.00    +0.295 HD
ENDBRANCH  20  22
ENDBRANCH  19  20
BRANCH  19  24
ATOM     24  C   UNL     1       2.229  -5.779  26.914  0.00  0.00    +0.034 C 
BRANCH  24  25
ATOM     25  C   UNL     1       3.182  -5.410  28.053  0.00  0.00    +0.118 C 
BRANCH  25  26
ATOM     26  N   UNL     1       4.460  -4.960  27.530  0.00  0.00    -0.234 N 
ATOM     27  C   UNL     1       5.569  -5.761  27.469  0.00  0.00    +0.254 C 
ATOM     28  O   UNL     1       5.693  -6.929  27.777  0.00  0.00    -0.270 OA
ATOM     29  C   UNL     1       6.658  -4.923  26.982  0.00  0.00    +0.049 A 
ATOM     30  C   UNL     1       6.157  -3.647  26.794  0.00  0.00    +0.049 A 
ATOM     31  C   UNL     1       6.956  -2.611  26.352  0.00  0.00    +0.014 A 
ATOM     32  C   UNL     1       8.300  -2.904  26.096  0.00  0.00    +0.001 A 
ATOM     33  C   UNL     1       8.808  -4.207  26.288  0.00  0.00    +0.001 A 
ATOM     34  C   UNL     1       7.981  -5.238  26.742  0.00  0.00    +0.014 A 
ATOM     35  C   UNL     1       4.743  -3.672  27.166  0.00  0.00    +0.254 C 
ATOM     36  O   UNL     1       4.012  -2.700  27.146  0.00  0.00    -0.270 OA
ENDBRANCH  25  26
ENDBRANCH  24  25
ENDBRANCH  19  24
ENDBRANCH   1  19
TORSDOF 11
ENDMDL
MODEL 4
REMARK VINA RESULT:      -7.0      1.834      4.141
REMARK  Name = 
REMARK  12 active torsions:
REMARK  status: ('A' for Active; 'I' for Inactive)
REMARK    1  A    between atoms: C_1  and  C_2
REMARK    2  A    between atoms: C_2  and  O_3
REMARK    3  A    between atoms: O_3  and  C_4
REMARK    4  A    between atoms: C_7  and  C_10
REMARK    5  A    between atoms: C_13  and  C_16
REMARK    6  A    between atoms: C_16  and  C_18
REMARK    7  A    between atoms: C_18  and  C_19
REMARK    8  A    between atoms: C_19  and  C_21
REMARK    9  A    between atoms: C_19  and  C_34
REMARK   10  A    between atoms: C_21  and  C_22
REMARK   11  A    between atoms: C_22  and  N_23
REMARK   12  A    between atoms: C_34  and  O_35
REMARK                            x       y       z     vdW  Elec       q    Type
REMARK                         _______ _______ _______ _____ _____    ______ ____
ROOT
ATOM      1  C   UNL     1       5.095  -5.558  22.754  0.00  0.00    +0.094 C 
ENDROOT
BRANCH   1   2
ATOM      2  C   UNL     1       6.537  -5.241  22.396  0.00  0.00    +0.164 C 
ATOM      3  O   UNL     1       7.200  -5.994  21.686  0.00  0.00    -0.292 OA
BRANCH   2   7
ATOM      4  C   UNL     1       8.481  -1.486  23.225  0.00  0.00    -0.018 A 
ATOM      5  C   UNL     1       7.230  -1.515  22.588  0.00  0.00    +0.009 A 
ATOM      6  C   UNL     1       6.538  -2.714  22.388  0.00  0.00    +0.012 A 
ATOM      7  C   UNL     1       7.099  -3.922  22.804  0.00  0.00    +0.017 A 
ATOM      8  C   UNL     1       8.273  -3.904  23.558  0.00  0.00    +0.012 A 
ATOM      9  C   UNL     1       8.948  -2.696  23.773  0.00  0.00    +0.009 A 
BRANCH   4  13
ATOM     10  C   UNL     1      10.666   2.243  23.211  0.00  0.00    +0.121 A 
ATOM     11  C   UNL     1      10.824   1.344  24.263  0.00  0.00    +0.046 A 
ATOM     12  C   UNL     1      10.173   0.102  24.248  0.00  0.00    +0.012 A 
ATOM     13  C   UNL     1       9.327  -0.268  23.189  0.00  0.00    -0.018 A 
ATOM     14  C   UNL     1       9.214   0.643  22.123  0.00  0.00    +0.012 A 
ATOM     15  C   UNL     1       9.875   1.875  22.127  0.00  0.00    +0.046 A 
BRANCH  10  16
ATOM     16  O   UNL     1      11.309   3.443  23.354  0.00  0.00    -0.492 OA
BRANCH  16  18
ATOM     17  C   UNL     1      11.345   5.762  23.959  0.00  0.00    +0.048 C 
ATOM     18  C   UNL     1      10.475   4.582  23.571  0.00  0.00    +0.225 C 
ENDBRANCH  16  18
ENDBRANCH  10  16
ENDBRANCH   4  13
ENDBRANCH   2   7
ENDBRANCH   1   2
BRANCH   1  19
ATOM     19  C   UNL     1       4.975  -6.627  23.848  0.00  0.00    +0.106 C 
BRANCH  19  20
ATOM     20  C   UNL     1       3.493  -6.802  24.125  0.00  0.00    +0.308 C 
ATOM     21  O   UNL     1       3.005  -7.810  24.618  0.00  0.00    -0.251 OA
BRANCH  20  22
ATOM     22  O   UNL     1       2.740  -5.736  23.784  0.00  0.00    -0.480 OA
ATOM     23  H   UNL     1       2.047  -5.909  23.120  0.00  0.00    +0.295 HD
ENDBRANCH  20  22
ENDBRANCH  19  20
BRANCH  19  24
ATOM     24  C   UNL     1       5.707  -6.199  25.129  0.00  0.00    +0.034 C 
BRANCH  24  25
ATOM     25  C   UNL     1       4.840  -5.384  26.092  0.00  0.00    +0.118 C 
BRANCH  25  26
ATOM     26  N   UNL     1       5.311  -4.013  26.173  0.00  0.00    -0.234 N 
ATOM     27  C   UNL     1       4.702  -2.971  25.527  0.00  0.00    +0.254 C 
ATOM     28  O   UNL     1       3.700  -2.971  24.840  0.00  0.00    -0.270 OA
ATOM     29  C   UNL     1       5.524  -1.793  25.775  0.00  0.00    +0.049 A 
ATOM     30  C   UNL     1       6.605  -2.187  26.543  0.00  0.00    +0.049 A 
ATOM     31  C   UNL     1       7.583  -1.293  26.933  0.00  0.00    +0.014 A 
ATOM     32  C   UNL     1       7.435   0.037  26.521  0.00  0.00    +0.001 A 
ATOM     33  C   UNL     1       6.331   0.435  25.738  0.00  0.00    +0.001 A 
ATOM     34  C   UNL     1       5.357  -0.488  25.352  0.00  0.00    +0.014 A 
ATOM     35  C   UNL     1       6.473  -3.623  26.782  0.00  0.00    +0.254 C 
ATOM     36  O   UNL     1       7.278  -4.292  27.401  0.00  0.00    -0.270 OA
ENDBRANCH  25  26
ENDBRANCH  24  25
ENDBRANCH  19  24
ENDBRANCH   1  19
TORSDOF 11
ENDMDL
MODEL 5
REMARK VINA RESULT:      -6.9      2.516      4.464
REMARK  Name = 
REMARK  12 active torsions:
REMARK  status: ('A' for Active; 'I' for Inactive)
REMARK    1  A    between atoms: C_1  and  C_2
REMARK    2  A    between atoms: C_2  and  O_3
REMARK    3  A    between atoms: O_3  and  C_4
REMARK    4  A    between atoms: C_7  and  C_10
REMARK    5  A    between atoms: C_13  and  C_16
REMARK    6  A    between atoms: C_16  and  C_18
REMARK    7  A    between atoms: C_18  and  C_19
REMARK    8  A    between atoms: C_19  and  C_21
REMARK    9  A    between atoms: C_19  and  C_34
REMARK   10  A    between atoms: C_21  and  C_22
REMARK   11  A    between atoms: C_22  and  N_23
REMARK   12  A    between atoms: C_34  and  O_35
REMARK                            x       y       z     vdW  Elec       q    Type
REMARK                         _______ _______ _______ _____ _____    ______ ____
ROOT
ATOM      1  C   UNL     1       4.980  -7.033  28.006  0.00  0.00    +0.094 C 
ENDROOT
BRANCH   1   2
ATOM      2  C   UNL     1       5.990  -5.981  28.431  0.00  0.00    +0.164 C 
ATOM      3  O   UNL     1       6.438  -5.950  29.576  0.00  0.00    -0.292 OA
BRANCH   2   7
ATOM      4  C   UNL     1       7.871  -3.155  25.777  0.00  0.00    -0.018 A 
ATOM      5  C   UNL     1       8.200  -4.519  25.714  0.00  0.00    +0.009 A 
ATOM      6  C   UNL     1       7.540  -5.468  26.503  0.00  0.00    +0.012 A 
ATOM      7  C   UNL     1       6.545  -5.066  27.394  0.00  0.00    +0.017 A 
ATOM      8  C   UNL     1       6.108  -3.741  27.374  0.00  0.00    +0.012 A 
ATOM      9  C   UNL     1       6.759  -2.801  26.565  0.00  0.00    +0.009 A 
BRANCH   4  13
ATOM     10  C   UNL     1      10.179  -0.132  23.724  0.00  0.00    +0.121 A 
ATOM     11  C   UNL     1       9.499   0.184  24.898  0.00  0.00    +0.046 A 
ATOM     12  C   UNL     1       8.801  -0.802  25.611  0.00  0.00    +0.012 A 
ATOM     13  C   UNL     1       8.745  -2.131  25.156  0.00  0.00    -0.018 A 
ATOM     14  C   UNL     1       9.470  -2.430  23.988  0.00  0.00    +0.012 A 
ATOM     15  C   UNL     1      10.180  -1.452  23.285  0.00  0.00    +0.046 A 
BRANCH  10  16
ATOM     16  O   UNL     1      10.784   0.918  23.087  0.00  0.00    -0.492 OA
BRANCH  16  18
ATOM     17  C   UNL     1       9.030   1.440  21.540  0.00  0.00    +0.048 C 
ATOM     18  C   UNL     1       9.922   1.968  22.647  0.00  0.00    +0.225 C 
ENDBRANCH  16  18
ENDBRANCH  10  16
ENDBRANCH   4  13
ENDBRANCH   2   7
ENDBRANCH   1   2
BRANCH   1  19
ATOM     19  C   UNL     1       3.536  -6.513  28.026  0.00  0.00    +0.106 C 
BRANCH  19  20
ATOM     20  C   UNL     1       2.884  -7.083  29.272  0.00  0.00    +0.308 C 
ATOM     21  O   UNL     1       1.685  -7.293  29.380  0.00  0.00    -0.251 OA
BRANCH  20  22
ATOM     22  O   UNL     1       3.751  -7.351  30.271  0.00  0.00    -0.480 OA
ATOM     23  H   UNL     1       3.533  -6.948  31.132  0.00  0.00    +0.295 HD
ENDBRANCH  20  22
ENDBRANCH  19  20
BRANCH  19  24
ATOM     24  C   UNL     1       2.765  -6.958  26.773  0.00  0.00    +0.034 C 
BRANCH  24  25
ATOM     25  C   UNL     1       2.359  -5.801  25.857  0.00  0.00    +0.118 C 
BRANCH  25  26
ATOM     26  N   UNL     1       3.473  -5.395  25.018  0.00  0.00    -0.234 N 
ATOM     27  C   UNL     1       3.701  -4.095  24.653  0.00  0.00    +0.254 C 
ATOM     28  O   UNL     1       3.094  -3.090  24.963  0.00  0.00    -0.270 OA
ATOM     29  C   UNL     1       4.839  -4.115  23.741  0.00  0.00    +0.049 A 
ATOM     30  C   UNL     1       5.228  -5.433  23.581  0.00  0.00    +0.049 A 
ATOM     31  C   UNL     1       6.277  -5.785  22.755  0.00  0.00    +0.014 A 
ATOM     32  C   UNL     1       6.939  -4.750  22.085  0.00  0.00    +0.001 A 
ATOM     33  C   UNL     1       6.539  -3.407  22.250  0.00  0.00    +0.001 A 
ATOM     34  C   UNL     1       5.471  -3.075  23.087  0.00  0.00    +0.014 A 
ATOM     35  C   UNL     1       4.333  -6.256  24.393  0.00  0.00    +0.254 C 
ATOM     36  O   UNL     1       4.383  -7.470  24.452  0.00  0.00    -0.270 OA
ENDBRANCH  25  26
ENDBRANCH  24  25
ENDBRANCH  19  24
ENDBRANCH   1  19
TORSDOF 11
ENDMDL
MODEL 6
REMARK VINA RESULT:      -6.9      2.252      8.559
REMARK  Name = 
REMARK  12 active torsions:
REMARK  status: ('A' for Active; 'I' for Inactive)
REMARK    1  A    between atoms: C_1  and  C_2
REMARK    2  A    between atoms: C_2  and  O_3
REMARK    3  A    between atoms: O_3  and  C_4
REMARK    4  A    between atoms: C_7  and  C_10
REMARK    5  A    between atoms: C_13  and  C_16
REMARK    6  A    between atoms: C_16  and  C_18
REMARK    7  A    between atoms: C_18  and  C_19
REMARK    8  A    between atoms: C_19  and  C_21
REMARK    9  A    between atoms: C_19  and  C_34
REMARK   10  A    between atoms: C_21  and  C_22
REMARK   11  A    between atoms: C_22  and  N_23
REMARK   12  A    between atoms: C_34  and  O_35
REMARK                            x       y       z     vdW  Elec       q    Type
REMARK                         _______ _______ _______ _____ _____    ______ ____
ROOT
ATOM      1  C   UNL     1      10.783   2.903  23.744  0.00  0.00    +0.094 C 
ENDROOT
BRANCH   1   2
ATOM      2  C   UNL     1      10.315   1.817  22.791  0.00  0.00    +0.164 C 
ATOM      3  O   UNL     1      10.196   2.030  21.587  0.00  0.00    -0.292 OA
BRANCH   2   7
ATOM      4  C   UNL     1       9.339  -2.062  24.397  0.00  0.00    -0.018 A 
ATOM      5  C   UNL     1       9.525  -1.889  23.015  0.00  0.00    +0.009 A 
ATOM      6  C   UNL     1       9.929  -0.661  22.480  0.00  0.00    +0.012 A 
ATOM      7  C   UNL     1      10.135   0.434  23.319  0.00  0.00    +0.017 A 
ATOM      8  C   UNL     1      10.090   0.250  24.702  0.00  0.00    +0.012 A 
ATOM      9  C   UNL     1       9.706  -0.989  25.231  0.00  0.00    +0.009 A 
BRANCH   4  13
ATOM     10  C   UNL     1       7.084  -5.363  26.038  0.00  0.00    +0.121 A 
ATOM     11  C   UNL     1       7.160  -5.184  24.658  0.00  0.00    +0.046 A 
ATOM     12  C   UNL     1       7.942  -4.157  24.110  0.00  0.00    +0.012 A 
ATOM     13  C   UNL     1       8.655  -3.265  24.928  0.00  0.00    -0.018 A 
ATOM     14  C   UNL     1       8.590  -3.490  26.316  0.00  0.00    +0.012 A 
ATOM     15  C   UNL     1       7.824  -4.523  26.864  0.00  0.00    +0.046 A 
BRANCH  10  16
ATOM     16  O   UNL     1       6.253  -6.365  26.463  0.00  0.00    -0.492 OA
BRANCH  16  18
ATOM     17  C   UNL     1       4.226  -5.127  26.782  0.00  0.00    +0.048 C 
ATOM     18  C   UNL     1       4.891  -6.273  26.043  0.00  0.00    +0.225 C 
ENDBRANCH  16  18
ENDBRANCH  10  16
ENDBRANCH   4  13
ENDBRANCH   2   7
ENDBRANCH   1   2
BRANCH   1  19
ATOM     19  C   UNL     1       9.989   4.207  23.596  0.00  0.00    +0.106 C 
BRANCH  19  20
ATOM     20  C   UNL     1      11.006   5.330  23.503  0.00  0.00    +0.308 C 
ATOM     21  O   UNL     1      10.953   6.356  24.166  0.00  0.00    -0.251 OA
BRANCH  20  22
ATOM     22  O   UNL     1      11.997   5.100  22.616  0.00  0.00    -0.480 OA
ATOM     23  H   UNL     1      12.016   4.203  22.234  0.00  0.00    +0.295 HD
ENDBRANCH  20  22
ENDBRANCH  19  20
BRANCH  19  24
ATOM     24  C   UNL     1       9.057   4.433  24.797  0.00  0.00    +0.034 C 
BRANCH  24  25
ATOM     25  C   UNL     1       7.580   4.179  24.487  0.00  0.00    +0.118 C 
BRANCH  25  26
ATOM     26  N   UNL     1       7.209   2.819  24.834  0.00  0.00    -0.234 N 
ATOM     27  C   UNL     1       6.829   1.885  23.907  0.00  0.00    +0.254 C 
ATOM     28  O   UNL     1       6.768   1.981  22.697  0.00  0.00    -0.270 OA
ATOM     29  C   UNL     1       6.446   0.693  24.653  0.00  0.00    +0.049 A 
ATOM     30  C   UNL     1       6.591   0.974  26.000  0.00  0.00    +0.049 A 
ATOM     31  C   UNL     1       6.286   0.041  26.972  0.00  0.00    +0.014 A 
ATOM     32  C   UNL     1       5.826  -1.208  26.540  0.00  0.00    +0.001 A 
ATOM     33  C   UNL     1       5.679  -1.490  25.165  0.00  0.00    +0.001 A 
ATOM     34  C   UNL     1       5.989  -0.529  24.199  0.00  0.00    +0.014 A 
ATOM     35  C   UNL     1       7.066   2.351  26.112  0.00  0.00    +0.254 C 
ATOM     36  O   UNL     1       7.268   2.923  27.166  0.00  0.00    -0.270 OA
ENDBRANCH  25  26
ENDBRANCH  24  25
ENDBRANCH  19  24
ENDBRANCH   1  19
TORSDOF 11
ENDMDL
MODEL 7
REMARK VINA RESULT:      -6.8      2.150      4.096
REMARK  Name = 
REMARK  12 active torsions:
REMARK  status: ('A' for Active; 'I' for Inactive)
REMARK    1  A    between atoms: C_1  and  C_2
REMARK    2  A    between atoms: C_2  and  O_3
REMARK    3  A    between atoms: O_3  and  C_4
REMARK    4  A    between atoms: C_7  and  C_10
REMARK    5  A    between atoms: C_13  and  C_16
REMARK    6  A    between atoms: C_16  and  C_18
REMARK    7  A    between atoms: C_18  and  C_19
REMARK    8  A    between atoms: C_19  and  C_21
REMARK    9  A    between atoms: C_19  and  C_34
REMARK   10  A    between atoms: C_21  and  C_22
REMARK   11  A    between atoms: C_22  and  N_23
REMARK   12  A    between atoms: C_34  and  O_35
REMARK                            x       y       z     vdW  Elec       q    Type
REMARK                         _______ _______ _______ _____ _____    ______ ____
ROOT
ATOM      1  C   UNL     1       4.771  -6.629  27.668  0.00  0.00    +0.094 C 
ENDROOT
BRANCH   1   2
ATOM      2  C   UNL     1       6.140  -6.033  27.943  0.00  0.00    +0.164 C 
ATOM      3  O   UNL     1       6.844  -6.444  28.864  0.00  0.00    -0.292 OA
BRANCH   2   7
ATOM      4  C   UNL     1       7.999  -2.983  25.532  0.00  0.00    -0.018 A 
ATOM      5  C   UNL     1       8.325  -4.336  25.344  0.00  0.00    +0.009 A 
ATOM      6  C   UNL     1       7.671  -5.351  26.052  0.00  0.00    +0.012 A 
ATOM      7  C   UNL     1       6.686  -5.029  26.986  0.00  0.00    +0.017 A 
ATOM      8  C   UNL     1       6.251  -3.707  27.088  0.00  0.00    +0.012 A 
ATOM      9  C   UNL     1       6.896  -2.700  26.360  0.00  0.00    +0.009 A 
BRANCH   4  13
ATOM     10  C   UNL     1      10.271   0.242  23.767  0.00  0.00    +0.121 A 
ATOM     11  C   UNL     1       9.753   0.373  25.054  0.00  0.00    +0.046 A 
ATOM     12  C   UNL     1       9.071  -0.690  25.664  0.00  0.00    +0.012 A 
ATOM     13  C   UNL     1       8.869  -1.909  24.995  0.00  0.00    -0.018 A 
ATOM     14  C   UNL     1       9.433  -2.027  23.712  0.00  0.00    +0.012 A 
ATOM     15  C   UNL     1      10.128  -0.975  23.108  0.00  0.00    +0.046 A 
BRANCH  10  16
ATOM     16  O   UNL     1      10.875   1.358  23.253  0.00  0.00    -0.492 OA
BRANCH  16  18
ATOM     17  C   UNL     1      11.313   3.714  23.301  0.00  0.00    +0.048 C 
ATOM     18  C   UNL     1      10.338   2.613  23.673  0.00  0.00    +0.225 C 
ENDBRANCH  16  18
ENDBRANCH  10  16
ENDBRANCH   4  13
ENDBRANCH   2   7
ENDBRANCH   1   2
BRANCH   1  19
ATOM     19  C   UNL     1       3.630  -5.813  28.291  0.00  0.00    +0.106 C 
BRANCH  19  20
ATOM     20  C   UNL     1       2.695  -6.806  28.954  0.00  0.00    +0.308 C 
ATOM     21  O   UNL     1       1.488  -6.639  29.065  0.00  0.00    -0.251 OA
BRANCH  20  22
ATOM     22  O   UNL     1       3.309  -7.914  29.419  0.00  0.00    -0.480 OA
ATOM     23  H   UNL     1       2.715  -8.629  29.714  0.00  0.00    +0.295 HD
ENDBRANCH  20  22
ENDBRANCH  19  20
BRANCH  19  24
ATOM     24  C   UNL     1       2.876  -5.004  27.224  0.00  0.00    +0.034 C 
BRANCH  24  25
ATOM     25  C   UNL     1       2.627  -5.777  25.927  0.00  0.00    +0.118 C 
BRANCH  25  26
ATOM     26  N   UNL     1       3.560  -5.362  24.894  0.00  0.00    -0.234 N 
ATOM     27  C   UNL     1       4.393  -6.232  24.243  0.00  0.00    +0.254 C 
ATOM     28  O   UNL     1       4.488  -7.438  24.356  0.00  0.00    -0.270 OA
ATOM     29  C   UNL     1       5.232  -5.424  23.366  0.00  0.00    +0.049 A 
ATOM     30  C   UNL     1       4.878  -4.099  23.548  0.00  0.00    +0.049 A 
ATOM     31  C   UNL     1       5.511  -3.079  22.865  0.00  0.00    +0.014 A 
ATOM     32  C   UNL     1       6.527  -3.440  21.972  0.00  0.00    +0.001 A 
ATOM     33  C   UNL     1       6.884  -4.793  21.789  0.00  0.00    +0.001 A 
ATOM     34  C   UNL     1       6.234  -5.807  22.495  0.00  0.00    +0.014 A 
ATOM     35  C   UNL     1       3.812  -4.063  24.548  0.00  0.00    +0.254 C 
ATOM     36  O   UNL     1       3.295  -3.043  24.962  0.00  0.00    -0.270 OA
ENDBRANCH  25  26
ENDBRANCH  24  25
ENDBRANCH  19  24
ENDBRANCH   1  19
TORSDOF 11
ENDMDL
MODEL 8
REMARK VINA RESULT:      -6.8      2.863      8.975
REMARK  Name = 
REMARK  12 active torsions:
REMARK  status: ('A' for Active; 'I' for Inactive)
REMARK    1  A    between atoms: C_1  and  C_2
REMARK    2  A    between atoms: C_2  and  O_3
REMARK    3  A    between atoms: O_3  and  C_4
REMARK    4  A    between atoms: C_7  and  C_10
REMARK    5  A    between atoms: C_13  and  C_16
REMARK    6  A    between atoms: C_16  and  C_18
REMARK    7  A    between atoms: C_18  and  C_19
REMARK    8  A    between atoms: C_19  and  C_21
REMARK    9  A    between atoms: C_19  and  C_34
REMARK   10  A    between atoms: C_21  and  C_22
REMARK   11  A    between atoms: C_22  and  N_23
REMARK   12  A    between atoms: C_34  and  O_35
REMARK                            x       y       z     vdW  Elec       q    Type
REMARK                         _______ _______ _______ _____ _____    ______ ____
ROOT
ATOM      1  C   UNL     1       9.232  -0.857  22.102  0.00  0.00    +0.094 C 
ENDROOT
BRANCH   1   2
ATOM      2  C   UNL     1       9.285  -2.110  22.960  0.00  0.00    +0.164 C 
ATOM      3  O   UNL     1      10.199  -2.300  23.759  0.00  0.00    -0.292 OA
BRANCH   2   7
ATOM      4  C   UNL     1       5.834  -4.670  23.286  0.00  0.00    -0.018 A 
ATOM      5  C   UNL     1       5.798  -3.526  22.472  0.00  0.00    +0.009 A 
ATOM      6  C   UNL     1       6.931  -2.729  22.280  0.00  0.00    +0.012 A 
ATOM      7  C   UNL     1       8.128  -3.049  22.921  0.00  0.00    +0.017 A 
ATOM      8  C   UNL     1       8.224  -4.252  23.622  0.00  0.00    +0.012 A 
ATOM      9  C   UNL     1       7.090  -5.056  23.791  0.00  0.00    +0.009 A 
BRANCH   4  13
ATOM     10  C   UNL     1       2.154  -6.752  24.182  0.00  0.00    +0.121 A 
ATOM     11  C   UNL     1       3.377  -7.291  24.576  0.00  0.00    +0.046 A 
ATOM     12  C   UNL     1       4.573  -6.595  24.351  0.00  0.00    +0.012 A 
ATOM     13  C   UNL     1       4.583  -5.347  23.705  0.00  0.00    -0.018 A 
ATOM     14  C   UNL     1       3.332  -4.809  23.351  0.00  0.00    +0.012 A 
ATOM     15  C   UNL     1       2.136  -5.494  23.589  0.00  0.00    +0.046 A 
BRANCH  10  16
ATOM     16  O   UNL     1       1.057  -7.539  24.409  0.00  0.00    -0.492 OA
BRANCH  16  18
ATOM     17  C   UNL     1       0.814  -8.642  22.295  0.00  0.00    +0.048 C 
ATOM     18  C   UNL     1       1.063  -8.822  23.780  0.00  0.00    +0.225 C 
ENDBRANCH  16  18
ENDBRANCH  10  16
ENDBRANCH   4  13
ENDBRANCH   2   7
ENDBRANCH   1   2
BRANCH   1  19
ATOM     19  C   UNL     1       8.495   0.301  22.786  0.00  0.00    +0.106 C 
BRANCH  19  20
ATOM     20  C   UNL     1       8.567   1.485  21.839  0.00  0.00    +0.308 C 
ATOM     21  O   UNL     1       7.589   2.097  21.435  0.00  0.00    -0.251 OA
BRANCH  20  22
ATOM     22  O   UNL     1       9.823   1.818  21.472  0.00  0.00    -0.480 OA
ATOM     23  H   UNL     1       9.957   2.759  21.252  0.00  0.00    +0.295 HD
ENDBRANCH  20  22
ENDBRANCH  19  20
BRANCH  19  24
ATOM     24  C   UNL     1       9.144   0.659  24.133  0.00  0.00    +0.034 C 
BRANCH  24  25
ATOM     25  C   UNL     1       8.133   0.950  25.245  0.00  0.00    +0.118 C 
BRANCH  25  26
ATOM     26  N   UNL     1       7.361  -0.238  25.561  0.00  0.00    -0.234 N 
ATOM     27  C   UNL     1       6.020  -0.351  25.306  0.00  0.00    +0.254 C 
ATOM     28  O   UNL     1       5.269   0.439  24.770  0.00  0.00    -0.270 OA
ATOM     29  C   UNL     1       5.602  -1.636  25.853  0.00  0.00    +0.049 A 
ATOM     30  C   UNL     1       6.709  -2.228  26.434  0.00  0.00    +0.049 A 
ATOM     31  C   UNL     1       6.630  -3.457  27.060  0.00  0.00    +0.014 A 
ATOM     32  C   UNL     1       5.381  -4.086  27.080  0.00  0.00    +0.001 A 
ATOM     33  C   UNL     1       4.254  -3.479  26.486  0.00  0.00    +0.001 A 
ATOM     34  C   UNL     1       4.356  -2.233  25.863  0.00  0.00    +0.014 A 
ATOM     35  C   UNL     1       7.837  -1.315  26.260  0.00  0.00    +0.254 C 
ATOM     36  O   UNL     1       8.958  -1.520  26.685  0.00  0.00    -0.270 OA
ENDBRANCH  25  26
ENDBRANCH  24  25
ENDBRANCH  19  24
ENDBRANCH   1  19
TORSDOF 11
ENDMDL
MODEL 9
REMARK VINA RESULT:      -6.7      2.329      8.595
REMARK  Name = 
REMARK  12 active torsions:
REMARK  status: ('A' for Active; 'I' for Inactive)
REMARK    1  A    between atoms: C_1  and  C_2
REMARK    2  A    between atoms: C_2  and  O_3
REMARK    3  A    between atoms: O_3  and  C_4
REMARK    4  A    between atoms: C_7  and  C_10
REMARK    5  A    between atoms: C_13  and  C_16
REMARK    6  A    between atoms: C_16  and  C_18
REMARK    7  A    between atoms: C_18  and  C_19
REMARK    8  A    between atoms: C_19  and  C_21
REMARK    9  A    between atoms: C_19  and  C_34
REMARK   10  A    between atoms: C_21  and  C_22
REMARK   11  A    between atoms: C_22  and  N_23
REMARK   12  A    between atoms: C_34  and  O_35
REMARK                            x       y       z     vdW  Elec       q    Type
REMARK                         _______ _______ _______ _____ _____    ______ ____
ROOT
ATOM      1  C   UNL     1      10.230  -0.381  22.980  0.00  0.00    +0.094 C 
ENDROOT
BRANCH   1   2
ATOM      2  C   UNL     1       9.330  -1.409  22.317  0.00  0.00    +0.164 C 
ATOM      3  O   UNL     1       9.068  -1.352  21.118  0.00  0.00    -0.292 OA
BRANCH   2   7
ATOM      4  C   UNL     1       7.735  -4.497  24.865  0.00  0.00    -0.018 A 
ATOM      5  C   UNL     1       7.342  -4.411  23.519  0.00  0.00    +0.009 A 
ATOM      6  C   UNL     1       7.912  -3.474  22.650  0.00  0.00    +0.012 A 
ATOM      7  C   UNL     1       8.877  -2.582  23.118  0.00  0.00    +0.017 A 
ATOM      8  C   UNL     1       9.380  -2.740  24.410  0.00  0.00    +0.012 A 
ATOM      9  C   UNL     1       8.820  -3.695  25.267  0.00  0.00    +0.009 A 
BRANCH   4  13
ATOM     10  C   UNL     1       5.286  -6.516  27.798  0.00  0.00    +0.121 A 
ATOM     11  C   UNL     1       4.978  -6.614  26.443  0.00  0.00    +0.046 A 
ATOM     12  C   UNL     1       5.802  -6.019  25.476  0.00  0.00    +0.012 A 
ATOM     13  C   UNL     1       6.947  -5.290  25.839  0.00  0.00    -0.018 A 
ATOM     14  C   UNL     1       7.254  -5.238  27.211  0.00  0.00    +0.012 A 
ATOM     15  C   UNL     1       6.443  -5.843  28.176  0.00  0.00    +0.046 A 
BRANCH  10  16
ATOM     16  O   UNL     1       4.386  -7.092  28.654  0.00  0.00    -0.492 OA
BRANCH  16  18
ATOM     17  C   UNL     1       2.676  -5.510  29.217  0.00  0.00    +0.048 C 
ATOM     18  C   UNL     1       3.013  -6.766  28.437  0.00  0.00    +0.225 C 
ENDBRANCH  16  18
ENDBRANCH  10  16
ENDBRANCH   4  13
ENDBRANCH   2   7
ENDBRANCH   1   2
BRANCH   1  19
ATOM     19  C   UNL     1       9.484   0.905  23.362  0.00  0.00    +0.106 C 
BRANCH  19  20
ATOM     20  C   UNL     1      10.302   2.062  22.819  0.00  0.00    +0.308 C 
ATOM     21  O   UNL     1      11.007   2.783  23.510  0.00  0.00    -0.251 OA
BRANCH  20  22
ATOM     22  O   UNL     1      10.193   2.233  21.485  0.00  0.00    -0.480 OA
ATOM     23  H   UNL     1      10.687   1.593  20.940  0.00  0.00    +0.295 HD
ENDBRANCH  20  22
ENDBRANCH  19  20
BRANCH  19  24
ATOM     24  C   UNL     1       9.333   1.030  24.886  0.00  0.00    +0.034 C 
BRANCH  24  25
ATOM     25  C   UNL     1       7.942   1.488  25.332  0.00  0.00    +0.118 C 
BRANCH  25  26
ATOM     26  N   UNL     1       7.094   0.346  25.622  0.00  0.00    -0.234 N 
ATOM     27  C   UNL     1       6.389  -0.328  24.662  0.00  0.00    +0.254 C 
ATOM     28  O   UNL     1       6.360  -0.151  23.461  0.00  0.00    -0.270 OA
ATOM     29  C   UNL     1       5.595  -1.332  25.360  0.00  0.00    +0.049 A 
ATOM     30  C   UNL     1       5.843  -1.200  26.714  0.00  0.00    +0.049 A 
ATOM     31  C   UNL     1       5.220  -2.004  27.648  0.00  0.00    +0.014 A 
ATOM     32  C   UNL     1       4.325  -2.967  27.169  0.00  0.00    +0.001 A 
ATOM     33  C   UNL     1       4.074  -3.099  25.787  0.00  0.00    +0.001 A 
ATOM     34  C   UNL     1       4.713  -2.271  24.860  0.00  0.00    +0.014 A 
ATOM     35  C   UNL     1       6.797  -0.105  26.880  0.00  0.00    +0.254 C 
ATOM     36  O   UNL     1       7.204   0.294  27.955  0.00  0.00    -0.270 OA
ENDBRANCH  25  26
ENDBRANCH  24  25
ENDBRANCH  19  24
ENDBRANCH   1  19
TORSDOF 11
ENDMDL
