MODEL 1
REMARK VINA RESULT:      -6.7      0.000      0.000
REMARK  Name = 
REMARK  8 active torsions:
REMARK  status: ('A' for Active; 'I' for Inactive)
REMARK    1  A    between atoms: C_1  and  O_2
REMARK    2  A    between atoms: O_2  and  C_3
REMARK    3  A    between atoms: C_9  and  N_10
REMARK    4  A    between atoms: N_10  and  C_11
REMARK    5  A    between atoms: C_13  and  S_14
REMARK    6  A    between atoms: S_14  and  C_15
REMARK    7  A    between atoms: C_21  and  O_22
REMARK    8  A    between atoms: O_22  and  C_23
REMARK                            x       y       z     vdW  Elec       q    Type
REMARK                         _______ _______ _______ _____ _____    ______ ____
ROOT
ATOM      1  C   UNL     1       4.241  -6.211  23.845  0.00  0.00    +0.164 A 
ATOM      2  C   UNL     1       5.338  -5.589  23.237  0.00  0.00    +0.162 A 
ATOM      3  C   UNL     1       6.443  -5.262  24.036  0.00  0.00    +0.062 A 
ATOM      4  C   UNL     1       6.477  -5.556  25.426  0.00  0.00    +0.044 A 
ATOM      5  C   UNL     1       5.371  -6.184  26.015  0.00  0.00    +0.080 A 
ATOM      6  N   UNL     1       5.323  -6.504  27.309  0.00  0.00    -0.235 NA
ATOM      7  C   UNL     1       6.397  -6.206  28.043  0.00  0.00    +0.223 A 
ATOM      8  N   UNL     1       7.508  -5.612  27.605  0.00  0.00    -0.220 NA
ATOM      9  C   UNL     1       7.555  -5.285  26.299  0.00  0.00    +0.134 A 
ATOM     10  C   UNL     1       4.285  -6.501  25.216  0.00  0.00    +0.078 A 
ENDROOT
BRANCH   1  12
ATOM     11  C   UNL     1       2.003  -5.776  23.138  0.00  0.00    +0.277 C 
ATOM     12  O   UNL     1       3.102  -6.673  23.238  0.00  0.00    -0.491 OA
ENDBRANCH   1  12
BRANCH   2  13
ATOM     13  O   UNL     1       5.287  -5.371  21.890  0.00  0.00    -0.491 OA
ATOM     14  C   UNL     1       6.443  -5.642  21.110  0.00  0.00    +0.277 C 
ENDBRANCH   2  13
BRANCH   9  15
ATOM     15  N   UNL     1       8.730  -4.669  25.777  0.00  0.00    -0.299 N 
ATOM     16  H   UNL     1       9.147  -5.285  25.088  0.00  0.00    +0.154 HD
BRANCH  15  17
ATOM     17  C   UNL     1       8.924  -3.312  25.417  0.00  0.00    +0.033 A 
ATOM     18  C   UNL     1       8.547  -2.308  26.319  0.00  0.00    +0.023 A 
ATOM     19  C   UNL     1       8.698  -0.957  25.998  0.00  0.00    +0.003 A 
ATOM     20  C   UNL     1       9.216  -0.592  24.756  0.00  0.00    +0.015 A 
ATOM     21  C   UNL     1       9.562  -1.569  23.819  0.00  0.00    +0.009 A 
ATOM     22  C   UNL     1       9.371  -2.918  24.148  0.00  0.00    +0.038 A 
BRANCH  21  23
ATOM     23  S   UNL     1      10.193  -1.028  22.235  0.00  0.00    -0.129 S 
ATOM     24  C   UNL     1       9.811   0.747  22.269  0.00  0.00    +0.090 C 
ENDBRANCH  21  23
ENDBRANCH  15  17
ENDBRANCH   9  15
TORSDOF 5
ENDMDL
MODEL 2
REMARK VINA RESULT:      -6.4      1.998      3.306
REMARK  Name = 
REMARK  8 active torsions:
REMARK  status: ('A' for Active; 'I' for Inactive)
REMARK    1  A    between atoms: C_1  and  O_2
REMARK    2  A    between atoms: O_2  and  C_3
REMARK    3  A    between atoms: C_9  and  N_10
REMARK    4  A    between atoms: N_10  and  C_11
REMARK    5  A    between atoms: C_13  and  S_14
REMARK    6  A    between atoms: S_14  and  C_15
REMARK    7  A    between atoms: C_21  and  O_22
REMARK    8  A    between atoms: O_22  and  C_23
REMARK                            x       y       z     vdW  Elec       q    Type
REMARK                         _______ _______ _______ _____ _____    ______ ____
ROOT
ATOM      1  C   UNL     1       4.359  -6.812  25.250  0.00  0.00    +0.164 A 
ATOM      2  C   UNL     1       5.438  -6.452  26.066  0.00  0.00    +0.162 A 
ATOM      3  C   UNL     1       6.474  -5.695  25.503  0.00  0.00    +0.062 A 
ATOM      4  C   UNL     1       6.447  -5.280  24.144  0.00  0.00    +0.044 A 
ATOM      5  C   UNL     1       5.356  -5.645  23.344  0.00  0.00    +0.080 A 
ATOM      6  N   UNL     1       5.246  -5.290  22.062  0.00  0.00    -0.235 NA
ATOM      7  C   UNL     1       6.232  -4.548  21.556  0.00  0.00    +0.223 A 
ATOM      8  N   UNL     1       7.318  -4.135  22.209  0.00  0.00    -0.220 NA
ATOM      9  C   UNL     1       7.432  -4.497  23.502  0.00  0.00    +0.134 A 
ATOM     10  C   UNL     1       4.338  -6.395  23.911  0.00  0.00    +0.078 A 
ENDROOT
BRANCH   1  12
ATOM     11  C   UNL     1       2.361  -7.930  24.578  0.00  0.00    +0.277 C 
ATOM     12  O   UNL     1       3.222  -7.484  25.616  0.00  0.00    -0.491 OA
ENDBRANCH   1  12
BRANCH   2  13
ATOM     13  O   UNL     1       5.402  -6.827  27.379  0.00  0.00    -0.491 OA
ATOM     14  C   UNL     1       6.098  -6.038  28.334  0.00  0.00    +0.277 C 
ENDBRANCH   2  13
BRANCH   9  15
ATOM     15  N   UNL     1       8.566  -4.061  24.250  0.00  0.00    -0.299 N 
ATOM     16  H   UNL     1       9.407  -4.420  23.812  0.00  0.00    +0.154 HD
BRANCH  15  17
ATOM     17  C   UNL     1       8.805  -2.786  24.819  0.00  0.00    +0.033 A 
ATOM     18  C   UNL     1       8.217  -2.471  26.052  0.00  0.00    +0.023 A 
ATOM     19  C   UNL     1       8.405  -1.218  26.641  0.00  0.00    +0.003 A 
ATOM     20  C   UNL     1       9.176  -0.254  25.992  0.00  0.00    +0.015 A 
ATOM     21  C   UNL     1       9.740  -0.524  24.742  0.00  0.00    +0.009 A 
ATOM     22  C   UNL     1       9.511  -1.774  24.153  0.00  0.00    +0.038 A 
BRANCH  21  23
ATOM     23  S   UNL     1      10.691   0.770  23.953  0.00  0.00    -0.129 S 
ATOM     24  C   UNL     1       9.962   0.806  22.291  0.00  0.00    +0.090 C 
ENDBRANCH  21  23
ENDBRANCH  15  17
ENDBRANCH   9  15
TORSDOF 5
ENDMDL
MODEL 3
REMARK VINA RESULT:      -6.2      2.302      3.546
REMARK  Name = 
REMARK  8 active torsions:
REMARK  status: ('A' for Active; 'I' for Inactive)
REMARK    1  A    between atoms: C_1  and  O_2
REMARK    2  A    between atoms: O_2  and  C_3
REMARK    3  A    between atoms: C_9  and  N_10
REMARK    4  A    between atoms: N_10  and  C_11
REMARK    5  A    between atoms: C_13  and  S_14
REMARK    6  A    between atoms: S_14  and  C_15
REMARK    7  A    between atoms: C_21  and  O_22
REMARK    8  A    between atoms: O_22  and  C_23
REMARK                            x       y       z     vdW  Elec       q    Type
REMARK                         _______ _______ _______ _____ _____    ______ ____
ROOT
ATOM      1  C   UNL     1       4.793  -5.199  25.938  0.00  0.00    +0.164 A 
ATOM      2  C   UNL     1       4.586  -4.486  24.752  0.00  0.00    +0.162 A 
ATOM      3  C   UNL     1       5.707  -4.014  24.056  0.00  0.00    +0.062 A 
ATOM      4  C   UNL     1       7.030  -4.253  24.515  0.00  0.00    +0.044 A 
ATOM      5  C   UNL     1       7.218  -4.974  25.702  0.00  0.00    +0.080 A 
ATOM      6  N   UNL     1       8.425  -5.250  26.200  0.00  0.00    -0.235 NA
ATOM      7  C   UNL     1       9.477  -4.813  25.506  0.00  0.00    +0.223 A 
ATOM      8  N   UNL     1       9.434  -4.122  24.367  0.00  0.00    -0.220 NA
ATOM      9  C   UNL     1       8.215  -3.838  23.866  0.00  0.00    +0.134 A 
ATOM     10  C   UNL     1       6.103  -5.434  26.383  0.00  0.00    +0.078 A 
ENDROOT
BRANCH   1  12
ATOM     11  C   UNL     1       4.297  -6.757  27.677  0.00  0.00    +0.277 C 
ATOM     12  O   UNL     1       3.847  -5.800  26.728  0.00  0.00    -0.491 OA
ENDBRANCH   1  12
BRANCH   2  13
ATOM     13  O   UNL     1       3.301  -4.323  24.317  0.00  0.00    -0.491 OA
ATOM     14  C   UNL     1       2.762  -5.271  23.408  0.00  0.00    +0.277 C 
ENDBRANCH   2  13
BRANCH   9  15
ATOM     15  N   UNL     1       8.117  -3.119  22.638  0.00  0.00    -0.299 N 
ATOM     16  H   UNL     1       7.330  -3.478  22.109  0.00  0.00    +0.154 HD
BRANCH  15  17
ATOM     17  C   UNL     1       8.272  -1.728  22.421  0.00  0.00    +0.033 A 
ATOM     18  C   UNL     1       9.418  -1.268  21.758  0.00  0.00    +0.023 A 
ATOM     19  C   UNL     1       9.626   0.097  21.542  0.00  0.00    +0.003 A 
ATOM     20  C   UNL     1       8.692   1.024  22.003  0.00  0.00    +0.015 A 
ATOM     21  C   UNL     1       7.561   0.598  22.704  0.00  0.00    +0.009 A 
ATOM     22  C   UNL     1       7.388  -0.772  22.940  0.00  0.00    +0.038 A 
BRANCH  21  23
ATOM     23  S   UNL     1       6.419   1.844  23.293  0.00  0.00    -0.129 S 
ATOM     24  C   UNL     1       6.786   3.236  22.186  0.00  0.00    +0.090 C 
ENDBRANCH  21  23
ENDBRANCH  15  17
ENDBRANCH   9  15
TORSDOF 5
ENDMDL
MODEL 4
REMARK VINA RESULT:      -6.1      1.984      3.135
REMARK  Name = 
REMARK  8 active torsions:
REMARK  status: ('A' for Active; 'I' for Inactive)
REMARK    1  A    between atoms: C_1  and  O_2
REMARK    2  A    between atoms: O_2  and  C_3
REMARK    3  A    between atoms: C_9  and  N_10
REMARK    4  A    between atoms: N_10  and  C_11
REMARK    5  A    between atoms: C_13  and  S_14
REMARK    6  A    between atoms: S_14  and  C_15
REMARK    7  A    between atoms: C_21  and  O_22
REMARK    8  A    between atoms: O_22  and  C_23
REMARK                            x       y       z     vdW  Elec       q    Type
REMARK                         _______ _______ _______ _____ _____    ______ ____
ROOT
ATOM      1  C   UNL     1       5.334  -5.979  24.033  0.00  0.00    +0.164 A 
ATOM      2  C   UNL     1       5.805  -5.361  22.869  0.00  0.00    +0.162 A 
ATOM      3  C   UNL     1       6.829  -4.410  22.989  0.00  0.00    +0.062 A 
ATOM      4  C   UNL     1       7.398  -4.076  24.248  0.00  0.00    +0.044 A 
ATOM      5  C   UNL     1       6.917  -4.709  25.401  0.00  0.00    +0.080 A 
ATOM      6  N   UNL     1       7.400  -4.462  26.620  0.00  0.00    -0.235 NA
ATOM      7  C   UNL     1       8.391  -3.573  26.706  0.00  0.00    +0.223 A 
ATOM      8  N   UNL     1       8.937  -2.905  25.689  0.00  0.00    -0.220 NA
ATOM      9  C   UNL     1       8.446  -3.152  24.458  0.00  0.00    +0.134 A 
ATOM     10  C   UNL     1       5.904  -5.646  25.271  0.00  0.00    +0.078 A 
ENDROOT
BRANCH   1  12
ATOM     11  C   UNL     1       3.240  -6.714  24.911  0.00  0.00    +0.277 C 
ATOM     12  O   UNL     1       4.397  -6.975  24.129  0.00  0.00    -0.491 OA
ENDBRANCH   1  12
BRANCH   2  13
ATOM     13  O   UNL     1       5.268  -5.747  21.674  0.00  0.00    -0.491 OA
ATOM     14  C   UNL     1       6.140  -5.984  20.578  0.00  0.00    +0.277 C 
ENDBRANCH   2  13
BRANCH   9  15
ATOM     15  N   UNL     1       9.012  -2.478  23.336  0.00  0.00    -0.299 N 
ATOM     16  H   UNL     1       9.107  -3.137  22.571  0.00  0.00    +0.154 HD
BRANCH  15  17
ATOM     17  C   UNL     1       8.711  -1.183  22.845  0.00  0.00    +0.033 A 
ATOM     18  C   UNL     1       9.525  -0.629  21.847  0.00  0.00    +0.023 A 
ATOM     19  C   UNL     1       9.281   0.653  21.350  0.00  0.00    +0.003 A 
ATOM     20  C   UNL     1       8.225   1.408  21.860  0.00  0.00    +0.015 A 
ATOM     21  C   UNL     1       7.423   0.898  22.885  0.00  0.00    +0.009 A 
ATOM     22  C   UNL     1       7.704  -0.376  23.393  0.00  0.00    +0.038 A 
BRANCH  21  23
ATOM     23  S   UNL     1       6.104   1.932  23.511  0.00  0.00    -0.129 S 
ATOM     24  C   UNL     1       5.592   1.022  24.997  0.00  0.00    +0.090 C 
ENDBRANCH  21  23
ENDBRANCH  15  17
ENDBRANCH   9  15
TORSDOF 5
ENDMDL
MODEL 5
REMARK VINA RESULT:      -5.9      2.073      2.934
REMARK  Name = 
REMARK  8 active torsions:
REMARK  status: ('A' for Active; 'I' for Inactive)
REMARK    1  A    between atoms: C_1  and  O_2
REMARK    2  A    between atoms: O_2  and  C_3
REMARK    3  A    between atoms: C_9  and  N_10
REMARK    4  A    between atoms: N_10  and  C_11
REMARK    5  A    between atoms: C_13  and  S_14
REMARK    6  A    between atoms: S_14  and  C_15
REMARK    7  A    between atoms: C_21  and  O_22
REMARK    8  A    between atoms: O_22  and  C_23
REMARK                            x       y       z     vdW  Elec       q    Type
REMARK                         _______ _______ _______ _____ _____    ______ ____
ROOT
ATOM      1  C   UNL     1       3.603  -7.050  24.422  0.00  0.00    +0.164 A 
ATOM      2  C   UNL     1       3.361  -5.979  23.555  0.00  0.00    +0.162 A 
ATOM      3  C   UNL     1       4.176  -4.843  23.659  0.00  0.00    +0.062 A 
ATOM      4  C   UNL     1       5.234  -4.763  24.604  0.00  0.00    +0.044 A 
ATOM      5  C   UNL     1       5.464  -5.848  25.460  0.00  0.00    +0.080 A 
ATOM      6  N   UNL     1       6.441  -5.862  26.369  0.00  0.00    -0.235 NA
ATOM      7  C   UNL     1       7.219  -4.780  26.432  0.00  0.00    +0.223 A 
ATOM      8  N   UNL     1       7.107  -3.687  25.677  0.00  0.00    -0.220 NA
ATOM      9  C   UNL     1       6.118  -3.672  24.761  0.00  0.00    +0.134 A 
ATOM     10  C   UNL     1       4.652  -6.965  25.350  0.00  0.00    +0.078 A 
ENDROOT
BRANCH   1  12
ATOM     11  C   UNL     1       1.822  -8.399  25.262  0.00  0.00    +0.277 C 
ATOM     12  O   UNL     1       2.973  -8.268  24.440  0.00  0.00    -0.491 OA
ENDBRANCH   1  12
BRANCH   2  13
ATOM     13  O   UNL     1       2.368  -6.115  22.627  0.00  0.00    -0.491 OA
ATOM     14  C   UNL     1       1.089  -5.565  22.909  0.00  0.00    +0.277 C 
ENDBRANCH   2  13
BRANCH   9  15
ATOM     15  N   UNL     1       5.971  -2.534  23.914  0.00  0.00    -0.299 N 
ATOM     16  H   UNL     1       5.258  -1.925  24.301  0.00  0.00    +0.154 HD
BRANCH  15  17
ATOM     17  C   UNL     1       6.985  -1.775  23.279  0.00  0.00    +0.033 A 
ATOM     18  C   UNL     1       7.937  -2.438  22.491  0.00  0.00    +0.023 A 
ATOM     19  C   UNL     1       8.968  -1.734  21.864  0.00  0.00    +0.003 A 
ATOM     20  C   UNL     1       9.070  -0.353  22.032  0.00  0.00    +0.015 A 
ATOM     21  C   UNL     1       8.161   0.328  22.846  0.00  0.00    +0.009 A 
ATOM     22  C   UNL     1       7.154  -0.400  23.492  0.00  0.00    +0.038 A 
BRANCH  21  23
ATOM     23  S   UNL     1       8.369   2.095  23.040  0.00  0.00    -0.129 S 
ATOM     24  C   UNL     1       9.857   2.182  24.077  0.00  0.00    +0.090 C 
ENDBRANCH  21  23
ENDBRANCH  15  17
ENDBRANCH   9  15
TORSDOF 5
ENDMDL
MODEL 6
REMARK VINA RESULT:      -5.9      3.819      7.108
REMARK  Name = 
REMARK  8 active torsions:
REMARK  status: ('A' for Active; 'I' for Inactive)
REMARK    1  A    between atoms: C_1  and  O_2
REMARK    2  A    between atoms: O_2  and  C_3
REMARK    3  A    between atoms: C_9  and  N_10
REMARK    4  A    between atoms: N_10  and  C_11
REMARK    5  A    between atoms: C_13  and  S_14
REMARK    6  A    between atoms: S_14  and  C_15
REMARK    7  A    between atoms: C_21  and  O_22
REMARK    8  A    between atoms: O_22  and  C_23
REMARK                            x       y       z     vdW  Elec       q    Type
REMARK                         _______ _______ _______ _____ _____    ______ ____
ROOT
ATOM      1  C   UNL     1       6.763   1.992  22.707  0.00  0.00    +0.164 A 
ATOM      2  C   UNL     1       6.426   1.362  23.911  0.00  0.00    +0.162 A 
ATOM      3  C   UNL     1       7.143   0.218  24.286  0.00  0.00    +0.062 A 
ATOM      4  C   UNL     1       8.199  -0.300  23.488  0.00  0.00    +0.044 A 
ATOM      5  C   UNL     1       8.526   0.347  22.289  0.00  0.00    +0.080 A 
ATOM      6  N   UNL     1       9.507  -0.066  21.485  0.00  0.00    -0.235 NA
ATOM      7  C   UNL     1      10.193  -1.142  21.876  0.00  0.00    +0.223 A 
ATOM      8  N   UNL     1       9.983  -1.844  22.990  0.00  0.00    -0.220 NA
ATOM      9  C   UNL     1       8.989  -1.430  23.800  0.00  0.00    +0.134 A 
ATOM     10  C   UNL     1       7.809   1.476  21.927  0.00  0.00    +0.078 A 
ENDROOT
BRANCH   1  12
ATOM     11  C   UNL     1       7.055   4.314  22.235  0.00  0.00    +0.277 C 
ATOM     12  O   UNL     1       6.239   3.151  22.195  0.00  0.00    -0.491 OA
ENDBRANCH   1  12
BRANCH   2  13
ATOM     13  O   UNL     1       5.441   1.921  24.673  0.00  0.00    -0.491 OA
ATOM     14  C   UNL     1       5.804   2.607  25.863  0.00  0.00    +0.277 C 
ENDBRANCH   2  13
BRANCH   9  15
ATOM     15  N   UNL     1       8.740  -2.135  25.014  0.00  0.00    -0.299 N 
ATOM     16  H   UNL     1       8.581  -1.464  25.758  0.00  0.00    +0.154 HD
BRANCH  15  17
ATOM     17  C   UNL     1       7.950  -3.295  25.209  0.00  0.00    +0.033 A 
ATOM     18  C   UNL     1       8.009  -3.957  26.443  0.00  0.00    +0.023 A 
ATOM     19  C   UNL     1       7.266  -5.117  26.673  0.00  0.00    +0.003 A 
ATOM     20  C   UNL     1       6.462  -5.641  25.661  0.00  0.00    +0.015 A 
ATOM     21  C   UNL     1       6.416  -5.026  24.407  0.00  0.00    +0.009 A 
ATOM     22  C   UNL     1       7.194  -3.883  24.186  0.00  0.00    +0.038 A 
BRANCH  21  23
ATOM     23  S   UNL     1       5.386  -5.769  23.146  0.00  0.00    -0.129 S 
ATOM     24  C   UNL     1       6.573  -6.010  21.793  0.00  0.00    +0.090 C 
ENDBRANCH  21  23
ENDBRANCH  15  17
ENDBRANCH   9  15
TORSDOF 5
ENDMDL
MODEL 7
REMARK VINA RESULT:      -5.8      3.960      7.321
REMARK  Name = 
REMARK  8 active torsions:
REMARK  status: ('A' for Active; 'I' for Inactive)
REMARK    1  A    between atoms: C_1  and  O_2
REMARK    2  A    between atoms: O_2  and  C_3
REMARK    3  A    between atoms: C_9  and  N_10
REMARK    4  A    between atoms: N_10  and  C_11
REMARK    5  A    between atoms: C_13  and  S_14
REMARK    6  A    between atoms: S_14  and  C_15
REMARK    7  A    between atoms: C_21  and  O_22
REMARK    8  A    between atoms: O_22  and  C_23
REMARK                            x       y       z     vdW  Elec       q    Type
REMARK                         _______ _______ _______ _____ _____    ______ ____
ROOT
ATOM      1  C   UNL     1       6.462   1.785  23.333  0.00  0.00    +0.164 A 
ATOM      2  C   UNL     1       6.006   0.715  24.111  0.00  0.00    +0.162 A 
ATOM      3  C   UNL     1       6.675  -0.513  24.010  0.00  0.00    +0.062 A 
ATOM      4  C   UNL     1       7.798  -0.687  23.157  0.00  0.00    +0.044 A 
ATOM      5  C   UNL     1       8.243   0.398  22.389  0.00  0.00    +0.080 A 
ATOM      6  N   UNL     1       9.293   0.325  21.570  0.00  0.00    -0.235 NA
ATOM      7  C   UNL     1       9.930  -0.847  21.510  0.00  0.00    +0.223 A 
ATOM      8  N   UNL     1       9.609  -1.950  22.187  0.00  0.00    -0.220 NA
ATOM      9  C   UNL     1       8.545  -1.877  23.012  0.00  0.00    +0.134 A 
ATOM     10  C   UNL     1       7.573   1.606  22.496  0.00  0.00    +0.078 A 
ENDROOT
BRANCH   1  12
ATOM     11  C   UNL     1       6.601   3.989  22.427  0.00  0.00    +0.277 C 
ATOM     12  O   UNL     1       5.998   3.075  23.334  0.00  0.00    -0.491 OA
ENDBRANCH   1  12
BRANCH   2  13
ATOM     13  O   UNL     1       4.957   0.937  24.957  0.00  0.00    -0.491 OA
ATOM     14  C   UNL     1       4.976   0.334  26.243  0.00  0.00    +0.277 C 
ENDBRANCH   2  13
BRANCH   9  15
ATOM     15  N   UNL     1       8.176  -3.024  23.774  0.00  0.00    -0.299 N 
ATOM     16  H   UNL     1       8.020  -2.744  24.736  0.00  0.00    +0.154 HD
BRANCH  15  17
ATOM     17  C   UNL     1       7.297  -4.074  23.411  0.00  0.00    +0.033 A 
ATOM     18  C   UNL     1       7.169  -4.416  22.057  0.00  0.00    +0.023 A 
ATOM     19  C   UNL     1       6.297  -5.428  21.650  0.00  0.00    +0.003 A 
ATOM     20  C   UNL     1       5.526  -6.104  22.595  0.00  0.00    +0.015 A 
ATOM     21  C   UNL     1       5.600  -5.757  23.946  0.00  0.00    +0.009 A 
ATOM     22  C   UNL     1       6.456  -4.716  24.331  0.00  0.00    +0.038 A 
BRANCH  21  23
ATOM     23  S   UNL     1       4.561  -6.646  25.100  0.00  0.00    -0.129 S 
ATOM     24  C   UNL     1       5.336  -6.235  26.690  0.00  0.00    +0.090 C 
ENDBRANCH  21  23
ENDBRANCH  15  17
ENDBRANCH   9  15
TORSDOF 5
ENDMDL
MODEL 8
REMARK VINA RESULT:      -5.7      4.498      6.939
REMARK  Name = 
REMARK  8 active torsions:
REMARK  status: ('A' for Active; 'I' for Inactive)
REMARK    1  A    between atoms: C_1  and  O_2
REMARK    2  A    between atoms: O_2  and  C_3
REMARK    3  A    between atoms: C_9  and  N_10
REMARK    4  A    between atoms: N_10  and  C_11
REMARK    5  A    between atoms: C_13  and  S_14
REMARK    6  A    between atoms: S_14  and  C_15
REMARK    7  A    between atoms: C_21  and  O_22
REMARK    8  A    between atoms: O_22  and  C_23
REMARK                            x       y       z     vdW  Elec       q    Type
REMARK                         _______ _______ _______ _____ _____    ______ ____
ROOT
ATOM      1  C   UNL     1       8.476  -2.946  23.721  0.00  0.00    +0.164 A 
ATOM      2  C   UNL     1       7.602  -2.361  22.798  0.00  0.00    +0.162 A 
ATOM      3  C   UNL     1       7.726  -0.989  22.541  0.00  0.00    +0.062 A 
ATOM      4  C   UNL     1       8.716  -0.194  23.179  0.00  0.00    +0.044 A 
ATOM      5  C   UNL     1       9.586  -0.797  24.097  0.00  0.00    +0.080 A 
ATOM      6  N   UNL     1      10.549  -0.128  24.733  0.00  0.00    -0.235 NA
ATOM      7  C   UNL     1      10.664   1.172  24.453  0.00  0.00    +0.223 A 
ATOM      8  N   UNL     1       9.904   1.862  23.603  0.00  0.00    -0.220 NA
ATOM      9  C   UNL     1       8.929   1.187  22.963  0.00  0.00    +0.134 A 
ATOM     10  C   UNL     1       9.453  -2.154  24.344  0.00  0.00    +0.078 A 
ENDROOT
BRANCH   1  12
ATOM     11  C   UNL     1       9.447  -4.615  25.124  0.00  0.00    +0.277 C 
ATOM     12  O   UNL     1       8.568  -4.271  24.061  0.00  0.00    -0.491 OA
ENDBRANCH   1  12
BRANCH   2  13
ATOM     13  O   UNL     1       6.699  -3.170  22.168  0.00  0.00    -0.491 OA
ATOM     14  C   UNL     1       5.432  -3.381  22.773  0.00  0.00    +0.277 C 
ENDBRANCH   2  13
BRANCH   9  15
ATOM     15  N   UNL     1       8.103   1.876  22.027  0.00  0.00    -0.299 N 
ATOM     16  H   UNL     1       7.744   1.211  21.352  0.00  0.00    +0.154 HD
BRANCH  15  17
ATOM     17  C   UNL     1       7.151   2.895  22.279  0.00  0.00    +0.033 A 
ATOM     18  C   UNL     1       7.574   4.231  22.295  0.00  0.00    +0.023 A 
ATOM     19  C   UNL     1       6.676   5.267  22.562  0.00  0.00    +0.003 A 
ATOM     20  C   UNL     1       5.340   4.976  22.835  0.00  0.00    +0.015 A 
ATOM     21  C   UNL     1       4.898   3.651  22.868  0.00  0.00    +0.009 A 
ATOM     22  C   UNL     1       5.821   2.624  22.630  0.00  0.00    +0.038 A 
BRANCH  21  23
ATOM     23  S   UNL     1       3.177   3.349  23.253  0.00  0.00    -0.129 S 
ATOM     24  C   UNL     1       2.425   3.328  21.600  0.00  0.00    +0.090 C 
ENDBRANCH  21  23
ENDBRANCH  15  17
ENDBRANCH   9  15
TORSDOF 5
ENDMDL
MODEL 9
REMARK VINA RESULT:      -5.6      1.714      2.202
REMARK  Name = 
REMARK  8 active torsions:
REMARK  status: ('A' for Active; 'I' for Inactive)
REMARK    1  A    between atoms: C_1  and  O_2
REMARK    2  A    between atoms: O_2  and  C_3
REMARK    3  A    between atoms: C_9  and  N_10
REMARK    4  A    between atoms: N_10  and  C_11
REMARK    5  A    between atoms: C_13  and  S_14
REMARK    6  A    between atoms: S_14  and  C_15
REMARK    7  A    between atoms: C_21  and  O_22
REMARK    8  A    between atoms: O_22  and  C_23
REMARK                            x       y       z     vdW  Elec       q    Type
REMARK                         _______ _______ _______ _____ _____    ______ ____
ROOT
ATOM      1  C   UNL     1       3.520  -7.096  24.660  0.00  0.00    +0.164 A 
ATOM      2  C   UNL     1       3.634  -5.830  24.074  0.00  0.00    +0.162 A 
ATOM      3  C   UNL     1       4.456  -4.881  24.697  0.00  0.00    +0.062 A 
ATOM      4  C   UNL     1       5.176  -5.177  25.886  0.00  0.00    +0.044 A 
ATOM      5  C   UNL     1       5.054  -6.452  26.455  0.00  0.00    +0.080 A 
ATOM      6  N   UNL     1       5.700  -6.817  27.563  0.00  0.00    -0.235 NA
ATOM      7  C   UNL     1       6.497  -5.905  28.123  0.00  0.00    +0.223 A 
ATOM      8  N   UNL     1       6.701  -4.664  27.682  0.00  0.00    -0.220 NA
ATOM      9  C   UNL     1       6.045  -4.293  26.565  0.00  0.00    +0.134 A 
ATOM     10  C   UNL     1       4.237  -7.382  25.831  0.00  0.00    +0.078 A 
ENDROOT
BRANCH   1  12
ATOM     11  C   UNL     1       1.845  -8.756  25.026  0.00  0.00    +0.277 C 
ATOM     12  O   UNL     1       2.830  -8.179  24.180  0.00  0.00    -0.491 OA
ENDBRANCH   1  12
BRANCH   2  13
ATOM     13  O   UNL     1       2.967  -5.602  22.904  0.00  0.00    -0.491 OA
ATOM     14  C   UNL     1       1.557  -5.437  22.942  0.00  0.00    +0.277 C 
ENDBRANCH   2  13
BRANCH   9  15
ATOM     15  N   UNL     1       6.247  -2.983  26.041  0.00  0.00    -0.299 N 
ATOM     16  H   UNL     1       6.085  -2.305  26.778  0.00  0.00    +0.154 HD
BRANCH  15  17
ATOM     17  C   UNL     1       7.266  -2.534  25.165  0.00  0.00    +0.033 A 
ATOM     18  C   UNL     1       8.420  -3.314  25.010  0.00  0.00    +0.023 A 
ATOM     19  C   UNL     1       9.461  -2.901  24.175  0.00  0.00    +0.003 A 
ATOM     20  C   UNL     1       9.366  -1.688  23.494  0.00  0.00    +0.015 A 
ATOM     21  C   UNL     1       8.247  -0.869  23.661  0.00  0.00    +0.009 A 
ATOM     22  C   UNL     1       7.229  -1.285  24.529  0.00  0.00    +0.038 A 
BRANCH  21  23
ATOM     23  S   UNL     1       8.205   0.687  22.780  0.00  0.00    -0.129 S 
ATOM     24  C   UNL     1       9.603   0.503  21.635  0.00  0.00    +0.090 C 
ENDBRANCH  21  23
ENDBRANCH  15  17
ENDBRANCH   9  15
TORSDOF 5
ENDMDL
