MODEL 1
REMARK VINA RESULT:      -2.5      0.000      0.000
REMARK  Name = 
REMARK  2 active torsions:
REMARK  status: ('A' for Active; 'I' for Inactive)
REMARK    1  A    between atoms: C_1  and  C_2
REMARK    2  A    between atoms: C_2  and  O_3
REMARK                            x       y       z     vdW  Elec       q    Type
REMARK                         _______ _______ _______ _____ _____    ______ ____
ROOT
ATOM      1  C   UNL     1      12.089   5.791  23.798  0.00  0.00    +0.034 C 
ATOM      2  C   UNL     1      13.011   5.402  22.661  0.00  0.00    +0.152 C 
ENDROOT
BRANCH   2   3
ATOM      3  O   UNL     1      14.296   5.070  23.168  0.00  0.00    -0.395 OA
ATOM      4  H   UNL     1      14.442   5.605  23.967  0.00  0.00    +0.209 HD
ENDBRANCH   2   3
TORSDOF 1
ENDMDL
MODEL 2
REMARK VINA RESULT:      -2.1      5.697      5.775
REMARK  Name = 
REMARK  2 active torsions:
REMARK  status: ('A' for Active; 'I' for Inactive)
REMARK    1  A    between atoms: C_1  and  C_2
REMARK    2  A    between atoms: C_2  and  O_3
REMARK                            x       y       z     vdW  Elec       q    Type
REMARK                         _______ _______ _______ _____ _____    ______ ____
ROOT
ATOM      1  C   UNL     1       9.451   0.035  21.443  0.00  0.00    +0.034 C 
ATOM      2  C   UNL     1       9.988   1.144  22.325  0.00  0.00    +0.152 C 
ENDROOT
BRANCH   2   3
ATOM      3  O   UNL     1      10.188   2.322  21.556  0.00  0.00    -0.395 OA
ATOM      4  H   UNL     1       9.760   3.056  22.030  0.00  0.00    +0.209 HD
ENDBRANCH   2   3
TORSDOF 1
ENDMDL
MODEL 3
REMARK VINA RESULT:      -2.0      6.967      7.012
REMARK  Name = 
REMARK  2 active torsions:
REMARK  status: ('A' for Active; 'I' for Inactive)
REMARK    1  A    between atoms: C_1  and  C_2
REMARK    2  A    between atoms: C_2  and  O_3
REMARK                            x       y       z     vdW  Elec       q    Type
REMARK                         _______ _______ _______ _____ _____    ______ ____
ROOT
ATOM      1  C   UNL     1       9.813   0.786  21.828  0.00  0.00    +0.034 C 
ATOM      2  C   UNL     1       9.266  -0.607  21.589  0.00  0.00    +0.152 C 
ENDROOT
BRANCH   2   3
ATOM      3  O   UNL     1      10.328  -1.550  21.574  0.00  0.00    -0.395 OA
ATOM      4  H   UNL     1      11.103  -1.111  21.182  0.00  0.00    +0.209 HD
ENDBRANCH   2   3
TORSDOF 1
ENDMDL
MODEL 4
REMARK VINA RESULT:      -1.9      5.477      5.477
REMARK  Name = 
REMARK  2 active torsions:
REMARK  status: ('A' for Active; 'I' for Inactive)
REMARK    1  A    between atoms: C_1  and  C_2
REMARK    2  A    between atoms: C_2  and  O_3
REMARK                            x       y       z     vdW  Elec       q    Type
REMARK                         _______ _______ _______ _____ _____    ______ ____
ROOT
ATOM      1  C   UNL     1      10.324   0.521  23.236  0.00  0.00    +0.034 C 
ATOM      2  C   UNL     1       9.770   0.920  21.884  0.00  0.00    +0.152 C 
ENDROOT
BRANCH   2   3
ATOM      3  O   UNL     1      10.168   2.246  21.567  0.00  0.00    -0.395 OA
ATOM      4  H   UNL     1       9.643   2.849  22.120  0.00  0.00    +0.209 HD
ENDBRANCH   2   3
TORSDOF 1
ENDMDL
MODEL 5
REMARK VINA RESULT:      -1.9      4.512      4.564
REMARK  Name = 
REMARK  2 active torsions:
REMARK  status: ('A' for Active; 'I' for Inactive)
REMARK    1  A    between atoms: C_1  and  C_2
REMARK    2  A    between atoms: C_2  and  O_3
REMARK                            x       y       z     vdW  Elec       q    Type
REMARK                         _______ _______ _______ _____ _____    ______ ____
ROOT
ATOM      1  C   UNL     1      10.610   1.435  23.964  0.00  0.00    +0.034 C 
ATOM      2  C   UNL     1      10.361   2.642  23.084  0.00  0.00    +0.152 C 
ENDROOT
BRANCH   2   3
ATOM      3  O   UNL     1      10.250   2.239  21.726  0.00  0.00    -0.395 OA
ATOM      4  H   UNL     1       9.850   1.353  21.716  0.00  0.00    +0.209 HD
ENDBRANCH   2   3
TORSDOF 1
ENDMDL
MODEL 6
REMARK VINA RESULT:      -1.8     11.703     11.756
REMARK  Name = 
REMARK  2 active torsions:
REMARK  status: ('A' for Active; 'I' for Inactive)
REMARK    1  A    between atoms: C_1  and  C_2
REMARK    2  A    between atoms: C_2  and  O_3
REMARK                            x       y       z     vdW  Elec       q    Type
REMARK                         _______ _______ _______ _____ _____    ______ ____
ROOT
ATOM      1  C   UNL     1       8.101  -5.225  26.543  0.00  0.00    +0.034 C 
ATOM      2  C   UNL     1       9.365  -4.776  25.839  0.00  0.00    +0.152 C 
ENDROOT
BRANCH   2   3
ATOM      3  O   UNL     1      10.020  -5.894  25.256  0.00  0.00    -0.395 OA
ATOM      4  H   UNL     1       9.792  -5.906  24.310  0.00  0.00    +0.209 HD
ENDBRANCH   2   3
TORSDOF 1
ENDMDL
MODEL 7
REMARK VINA RESULT:      -1.8      7.296      7.298
REMARK  Name = 
REMARK  2 active torsions:
REMARK  status: ('A' for Active; 'I' for Inactive)
REMARK    1  A    between atoms: C_1  and  C_2
REMARK    2  A    between atoms: C_2  and  O_3
REMARK                            x       y       z     vdW  Elec       q    Type
REMARK                         _______ _______ _______ _____ _____    ______ ____
ROOT
ATOM      1  C   UNL     1      10.375  -0.210  23.413  0.00  0.00    +0.034 C 
ATOM      2  C   UNL     1      10.199  -1.603  22.846  0.00  0.00    +0.152 C 
ENDROOT
BRANCH   2   3
ATOM      3  O   UNL     1      10.200  -1.554  21.426  0.00  0.00    -0.395 OA
ATOM      4  H   UNL     1      10.809  -0.845  21.159  0.00  0.00    +0.209 HD
ENDBRANCH   2   3
TORSDOF 1
ENDMDL
MODEL 8
REMARK VINA RESULT:      -1.8     12.829     12.935
REMARK  Name = 
REMARK  2 active torsions:
REMARK  status: ('A' for Active; 'I' for Inactive)
REMARK    1  A    between atoms: C_1  and  C_2
REMARK    2  A    between atoms: C_2  and  O_3
REMARK                            x       y       z     vdW  Elec       q    Type
REMARK                         _______ _______ _______ _____ _____    ______ ____
ROOT
ATOM      1  C   UNL     1       6.689  -5.327  25.713  0.00  0.00    +0.034 C 
ATOM      2  C   UNL     1       7.836  -5.203  26.695  0.00  0.00    +0.152 C 
ENDROOT
BRANCH   2   3
ATOM      3  O   UNL     1       7.622  -6.063  27.804  0.00  0.00    -0.395 OA
ATOM      4  H   UNL     1       6.999  -6.755  27.521  0.00  0.00    +0.209 HD
ENDBRANCH   2   3
TORSDOF 1
ENDMDL
MODEL 9
REMARK VINA RESULT:      -1.8     12.135     12.227
REMARK  Name = 
REMARK  2 active torsions:
REMARK  status: ('A' for Active; 'I' for Inactive)
REMARK    1  A    between atoms: C_1  and  C_2
REMARK    2  A    between atoms: C_2  and  O_3
REMARK                            x       y       z     vdW  Elec       q    Type
REMARK                         _______ _______ _______ _____ _____    ______ ____
ROOT
ATOM      1  C   UNL     1       8.462  -3.874  26.462  0.00  0.00    +0.034 C 
ATOM      2  C   UNL     1       8.089  -5.335  26.311  0.00  0.00    +0.152 C 
ENDROOT
BRANCH   2   3
ATOM      3  O   UNL     1       7.796  -5.896  27.582  0.00  0.00    -0.395 OA
ATOM      4  H   UNL     1       8.616  -5.880  28.105  0.00  0.00    +0.209 HD
ENDBRANCH   2   3
TORSDOF 1
ENDMDL
