MODEL 1
REMARK VINA RESULT:      -7.1      0.000      0.000
REMARK  Name = 
REMARK  14 active torsions:
REMARK  status: ('A' for Active; 'I' for Inactive)
REMARK    1  A    between atoms: C_1  and  C_2
REMARK    2  A    between atoms: C_2  and  O_3
REMARK    3  A    between atoms: O_3  and  C_4
REMARK    4  A    between atoms: C_4  and  C_6
REMARK    5  A    between atoms: C_6  and  C_8
REMARK    6  A    between atoms: C_6  and  C_16
REMARK    7  A    between atoms: C_8  and  C_9
REMARK    8  A    between atoms: C_9  and  C_10
REMARK    9  A    between atoms: C_16  and  C_17
REMARK   10  A    between atoms: C_17  and  C_22
REMARK   11  A    between atoms: N_24  and  C_25
REMARK   12  A    between atoms: N_35  and  C_36
REMARK   13  A    between atoms: C_36  and  C_37
REMARK   14  A    between atoms: C_37  and  O_38
REMARK                            x       y       z     vdW  Elec       q    Type
REMARK                         _______ _______ _______ _____ _____    ______ ____
ROOT
ATOM      1  C   UNL     1       6.411  -0.563  25.887  0.00  0.00    +0.220 C 
ATOM      2  N   UNL     1       6.926   0.329  24.967  0.00  0.00    -0.304 N 
ATOM      3  H   UNL     1       7.317  -0.007  24.092  0.00  0.00    +0.149 HD
ATOM      4  O   UNL     1       5.754  -0.182  26.856  0.00  0.00    -0.275 OA
ENDROOT
BRANCH   2   5
ATOM      5  C   UNL     1       6.660   1.776  25.054  0.00  0.00    +0.160 C 
ATOM      6  C   UNL     1       6.554   2.363  23.624  0.00  0.00    +0.241 C 
ATOM      7  O   UNL     1       6.323   1.603  22.667  0.00  0.00    -0.273 OA
ATOM      8  N   UNL     1       6.461   3.728  23.407  0.00  0.00    -0.259 N 
ATOM      9  C   UNL     1       7.450   4.662  23.831  0.00  0.00    +0.040 A 
ATOM     10  C   UNL     1       7.931   4.704  25.146  0.00  0.00    -0.026 A 
ATOM     11  C   UNL     1       8.996   5.561  25.476  0.00  0.00    +0.005 A 
ATOM     12  C   UNL     1       9.565   6.392  24.518  0.00  0.00    +0.000 A 
ATOM     13  C   UNL     1       9.049   6.402  23.227  0.00  0.00    +0.002 A 
ATOM     14  C   UNL     1       7.323   3.873  26.233  0.00  0.00    +0.039 C 
ATOM     15  C   UNL     1       7.989   5.553  22.888  0.00  0.00    +0.024 A 
ATOM     16  C   UNL     1       7.668   2.422  25.987  0.00  0.00    +0.036 C 
BRANCH   8  17
ATOM     17  C   UNL     1       5.218   4.277  22.840  0.00  0.00    +0.234 C 
BRANCH  17  18
ATOM     18  C   UNL     1       3.843   3.885  23.376  0.00  0.00    +0.323 C 
ATOM     19  O   UNL     1       3.289   4.524  24.266  0.00  0.00    -0.249 OA
BRANCH  18  20
ATOM     20  O   UNL     1       3.332   2.718  22.944  0.00  0.00    -0.480 OA
ATOM     21  H   UNL     1       2.699   2.292  23.571  0.00  0.00    +0.295 HD
ENDBRANCH  18  20
ENDBRANCH  17  18
ENDBRANCH   8  17
ENDBRANCH   2   5
BRANCH   1  22
ATOM     22  C   UNL     1       6.699  -2.053  25.607  0.00  0.00    +0.048 C 
ATOM     23  C   UNL     1       6.125  -2.992  26.699  0.00  0.00    +0.016 C 
ATOM     24  C   UNL     1       4.753  -3.480  26.254  0.00  0.00    +0.001 C 
ATOM     25  C   UNL     1       4.478  -2.775  24.943  0.00  0.00    +0.001 C 
ATOM     26  C   UNL     1       5.867  -2.484  24.373  0.00  0.00    +0.016 C 
BRANCH  22  27
ATOM     27  C   UNL     1       8.239  -2.252  25.420  0.00  0.00    +0.030 C 
BRANCH  27  28
ATOM     28  C   UNL     1       8.727  -3.040  24.155  0.00  0.00    +0.099 C 
BRANCH  28  29
ATOM     29  C   UNL     1       9.037  -4.475  24.563  0.00  0.00    +0.310 C 
ATOM     30  O   UNL     1      10.128  -4.848  24.973  0.00  0.00    -0.251 OA
BRANCH  29  31
ATOM     31  O   UNL     1       7.960  -5.285  24.360  0.00  0.00    -0.465 OA
BRANCH  31  33
ATOM     32  C   UNL     1       6.083  -5.814  22.910  0.00  0.00    +0.048 C 
ATOM     33  C   UNL     1       7.558  -5.455  22.988  0.00  0.00    +0.229 C 
ENDBRANCH  31  33
ENDBRANCH  29  31
ENDBRANCH  28  29
BRANCH  28  34
ATOM     34  C   UNL     1       9.993  -2.444  23.514  0.00  0.00    +0.019 C 
BRANCH  34  35
ATOM     35  C   UNL     1       9.804  -1.547  22.286  0.00  0.00    +0.036 C 
BRANCH  35  36
ATOM     36  C   UNL     1       9.980  -0.097  22.696  0.00  0.00    -0.047 A 
ATOM     37  C   UNL     1      10.512   0.233  23.950  0.00  0.00    +0.003 A 
ATOM     38  C   UNL     1      10.742   1.568  24.296  0.00  0.00    +0.000 A 
ATOM     39  C   UNL     1      10.447   2.585  23.390  0.00  0.00    +0.000 A 
ATOM     40  C   UNL     1       9.926   2.268  22.138  0.00  0.00    +0.000 A 
ATOM     41  C   UNL     1       9.696   0.934  21.790  0.00  0.00    +0.003 A 
ENDBRANCH  35  36
ENDBRANCH  34  35
ENDBRANCH  28  34
ENDBRANCH  27  28
ENDBRANCH  22  27
ENDBRANCH   1  22
TORSDOF 13
ENDMDL
MODEL 2
REMARK VINA RESULT:      -6.9      2.129      7.639
REMARK  Name = 
REMARK  14 active torsions:
REMARK  status: ('A' for Active; 'I' for Inactive)
REMARK    1  A    between atoms: C_1  and  C_2
REMARK    2  A    between atoms: C_2  and  O_3
REMARK    3  A    between atoms: O_3  and  C_4
REMARK    4  A    between atoms: C_4  and  C_6
REMARK    5  A    between atoms: C_6  and  C_8
REMARK    6  A    between atoms: C_6  and  C_16
REMARK    7  A    between atoms: C_8  and  C_9
REMARK    8  A    between atoms: C_9  and  C_10
REMARK    9  A    between atoms: C_16  and  C_17
REMARK   10  A    between atoms: C_17  and  C_22
REMARK   11  A    between atoms: N_24  and  C_25
REMARK   12  A    between atoms: N_35  and  C_36
REMARK   13  A    between atoms: C_36  and  C_37
REMARK   14  A    between atoms: C_37  and  O_38
REMARK                            x       y       z     vdW  Elec       q    Type
REMARK                         _______ _______ _______ _____ _____    ______ ____
ROOT
ATOM      1  C   UNL     1       8.610  -0.227  23.397  0.00  0.00    +0.220 C 
ATOM      2  N   UNL     1       8.042  -0.893  24.466  0.00  0.00    -0.304 N 
ATOM      3  H   UNL     1       7.343  -0.434  25.042  0.00  0.00    +0.149 HD
ATOM      4  O   UNL     1       9.302  -0.815  22.566  0.00  0.00    -0.275 OA
ENDROOT
BRANCH   2   5
ATOM      5  C   UNL     1       8.175  -2.351  24.633  0.00  0.00    +0.160 C 
ATOM      6  C   UNL     1       7.041  -3.062  23.852  0.00  0.00    +0.241 C 
ATOM      7  O   UNL     1       6.450  -2.451  22.945  0.00  0.00    -0.273 OA
ATOM      8  N   UNL     1       6.832  -4.426  23.960  0.00  0.00    -0.259 N 
ATOM      9  C   UNL     1       6.540  -5.083  25.189  0.00  0.00    +0.040 A 
ATOM     10  C   UNL     1       7.321  -4.913  26.339  0.00  0.00    -0.026 A 
ATOM     11  C   UNL     1       6.914  -5.486  27.557  0.00  0.00    +0.005 A 
ATOM     12  C   UNL     1       5.753  -6.247  27.632  0.00  0.00    +0.000 A 
ATOM     13  C   UNL     1       5.007  -6.474  26.480  0.00  0.00    +0.002 A 
ATOM     14  C   UNL     1       8.609  -4.150  26.308  0.00  0.00    +0.039 C 
ATOM     15  C   UNL     1       5.405  -5.908  25.263  0.00  0.00    +0.024 A 
ATOM     16  C   UNL     1       8.302  -2.683  26.109  0.00  0.00    +0.036 C 
BRANCH   8  17
ATOM     17  C   UNL     1       7.063  -5.279  22.781  0.00  0.00    +0.234 C 
BRANCH  17  18
ATOM     18  C   UNL     1       5.985  -5.505  21.724  0.00  0.00    +0.323 C 
ATOM     19  O   UNL     1       5.910  -4.809  20.716  0.00  0.00    -0.249 OA
BRANCH  18  20
ATOM     20  O   UNL     1       5.024  -6.400  22.018  0.00  0.00    -0.480 OA
ATOM     21  H   UNL     1       4.133  -6.175  21.658  0.00  0.00    +0.295 HD
ENDBRANCH  18  20
ENDBRANCH  17  18
ENDBRANCH   8  17
ENDBRANCH   2   5
BRANCH   1  22
ATOM     22  C   UNL     1       8.302   1.281  23.310  0.00  0.00    +0.048 C 
ATOM     23  C   UNL     1       9.097   2.118  24.346  0.00  0.00    +0.016 C 
ATOM     24  C   UNL     1      10.366   2.641  23.684  0.00  0.00    +0.001 C 
ATOM     25  C   UNL     1      10.365   2.055  22.288  0.00  0.00    +0.001 C 
ATOM     26  C   UNL     1       8.886   1.819  21.979  0.00  0.00    +0.016 C 
BRANCH  22  27
ATOM     27  C   UNL     1       6.760   1.501  23.446  0.00  0.00    +0.030 C 
BRANCH  27  28
ATOM     28  C   UNL     1       6.214   2.034  24.815  0.00  0.00    +0.099 C 
BRANCH  28  29
ATOM     29  C   UNL     1       5.011   1.193  25.222  0.00  0.00    +0.310 C 
ATOM     30  O   UNL     1       3.932   1.662  25.562  0.00  0.00    -0.251 OA
BRANCH  29  31
ATOM     31  O   UNL     1       5.315  -0.136  25.207  0.00  0.00    -0.465 OA
BRANCH  31  33
ATOM     32  C   UNL     1       4.369  -2.202  26.069  0.00  0.00    +0.048 C 
ATOM     33  C   UNL     1       4.999  -0.861  26.410  0.00  0.00    +0.229 C 
ENDBRANCH  31  33
ENDBRANCH  29  31
ENDBRANCH  28  29
BRANCH  28  34
ATOM     34  C   UNL     1       5.769   3.507  24.764  0.00  0.00    +0.019 C 
BRANCH  34  35
ATOM     35  C   UNL     1       6.245   4.343  23.572  0.00  0.00    +0.036 C 
BRANCH  35  36
ATOM     36  C   UNL     1       7.454   5.159  23.987  0.00  0.00    -0.047 A 
ATOM     37  C   UNL     1       7.763   5.343  25.342  0.00  0.00    +0.003 A 
ATOM     38  C   UNL     1       8.919   6.033  25.721  0.00  0.00    +0.000 A 
ATOM     39  C   UNL     1       9.779   6.542  24.749  0.00  0.00    +0.000 A 
ATOM     40  C   UNL     1       9.486   6.357  23.400  0.00  0.00    +0.000 A 
ATOM     41  C   UNL     1       8.332   5.667  23.019  0.00  0.00    +0.003 A 
ENDBRANCH  35  36
ENDBRANCH  34  35
ENDBRANCH  28  34
ENDBRANCH  27  28
ENDBRANCH  22  27
ENDBRANCH   1  22
TORSDOF 13
ENDMDL
MODEL 3
REMARK VINA RESULT:      -6.9      3.145      8.020
REMARK  Name = 
REMARK  14 active torsions:
REMARK  status: ('A' for Active; 'I' for Inactive)
REMARK    1  A    between atoms: C_1  and  C_2
REMARK    2  A    between atoms: C_2  and  O_3
REMARK    3  A    between atoms: O_3  and  C_4
REMARK    4  A    between atoms: C_4  and  C_6
REMARK    5  A    between atoms: C_6  and  C_8
REMARK    6  A    between atoms: C_6  and  C_16
REMARK    7  A    between atoms: C_8  and  C_9
REMARK    8  A    between atoms: C_9  and  C_10
REMARK    9  A    between atoms: C_16  and  C_17
REMARK   10  A    between atoms: C_17  and  C_22
REMARK   11  A    between atoms: N_24  and  C_25
REMARK   12  A    between atoms: N_35  and  C_36
REMARK   13  A    between atoms: C_36  and  C_37
REMARK   14  A    between atoms: C_37  and  O_38
REMARK                            x       y       z     vdW  Elec       q    Type
REMARK                         _______ _______ _______ _____ _____    ______ ____
ROOT
ATOM      1  C   UNL     1       5.415  -1.854  25.162  0.00  0.00    +0.220 C 
ATOM      2  N   UNL     1       5.209  -3.183  24.847  0.00  0.00    -0.304 N 
ATOM      3  H   UNL     1       5.976  -3.751  24.497  0.00  0.00    +0.149 HD
ATOM      4  O   UNL     1       4.570  -1.198  25.771  0.00  0.00    -0.275 OA
ENDROOT
BRANCH   2   5
ATOM      5  C   UNL     1       4.001  -3.907  25.281  0.00  0.00    +0.160 C 
ATOM      6  C   UNL     1       4.420  -5.170  26.075  0.00  0.00    +0.241 C 
ATOM      7  O   UNL     1       5.561  -5.235  26.562  0.00  0.00    -0.273 OA
ATOM      8  N   UNL     1       3.490  -6.118  26.469  0.00  0.00    -0.259 N 
ATOM      9  C   UNL     1       2.661  -6.835  25.559  0.00  0.00    +0.040 A 
ATOM     10  C   UNL     1       1.888  -6.198  24.581  0.00  0.00    -0.026 A 
ATOM     11  C   UNL     1       1.189  -6.962  23.630  0.00  0.00    +0.005 A 
ATOM     12  C   UNL     1       1.231  -8.351  23.662  0.00  0.00    +0.000 A 
ATOM     13  C   UNL     1       1.945  -8.991  24.669  0.00  0.00    +0.002 A 
ATOM     14  C   UNL     1       1.760  -4.707  24.529  0.00  0.00    +0.039 C 
ATOM     15  C   UNL     1       2.644  -8.239  25.621  0.00  0.00    +0.024 A 
ATOM     16  C   UNL     1       3.082  -4.119  24.091  0.00  0.00    +0.036 C 
BRANCH   8  17
ATOM     17  C   UNL     1       3.227  -6.303  27.906  0.00  0.00    +0.234 C 
BRANCH  17  18
ATOM     18  C   UNL     1       4.105  -7.195  28.781  0.00  0.00    +0.323 C 
ATOM     19  O   UNL     1       3.788  -7.490  29.929  0.00  0.00    -0.249 OA
BRANCH  18  20
ATOM     20  O   UNL     1       5.318  -7.517  28.295  0.00  0.00    -0.480 OA
ATOM     21  H   UNL     1       5.304  -7.911  27.390  0.00  0.00    +0.295 HD
ENDBRANCH  18  20
ENDBRANCH  17  18
ENDBRANCH   8  17
ENDBRANCH   2   5
BRANCH   1  22
ATOM     22  C   UNL     1       6.769  -1.264  24.718  0.00  0.00    +0.048 C 
ATOM     23  C   UNL     1       6.796  -0.883  23.215  0.00  0.00    +0.016 C 
ATOM     24  C   UNL     1       6.445   0.593  23.077  0.00  0.00    +0.001 C 
ATOM     25  C   UNL     1       6.134   1.068  24.480  0.00  0.00    +0.001 C 
ATOM     26  C   UNL     1       6.934   0.126  25.383  0.00  0.00    +0.016 C 
BRANCH  22  27
ATOM     27  C   UNL     1       7.912  -2.267  25.084  0.00  0.00    +0.030 C 
BRANCH  27  28
ATOM     28  C   UNL     1       8.647  -3.000  23.910  0.00  0.00    +0.099 C 
BRANCH  28  29
ATOM     29  C   UNL     1       8.637  -4.498  24.187  0.00  0.00    +0.310 C 
ATOM     30  O   UNL     1       9.543  -5.095  24.754  0.00  0.00    -0.251 OA
BRANCH  29  31
ATOM     31  O   UNL     1       7.517  -5.084  23.674  0.00  0.00    -0.465 OA
BRANCH  31  33
ATOM     32  C   UNL     1       6.755  -5.935  21.530  0.00  0.00    +0.048 C 
ATOM     33  C   UNL     1       7.182  -4.713  22.325  0.00  0.00    +0.229 C 
ENDBRANCH  31  33
ENDBRANCH  29  31
ENDBRANCH  28  29
BRANCH  28  34
ATOM     34  C   UNL     1      10.111  -2.559  23.735  0.00  0.00    +0.019 C 
BRANCH  34  35
ATOM     35  C   UNL     1      10.441  -1.683  22.522  0.00  0.00    +0.036 C 
BRANCH  35  36
ATOM     36  C   UNL     1      10.194  -0.229  22.875  0.00  0.00    -0.047 A 
ATOM     37  C   UNL     1      10.411   0.238  24.179  0.00  0.00    +0.003 A 
ATOM     38  C   UNL     1      10.255   1.593  24.485  0.00  0.00    +0.000 A 
ATOM     39  C   UNL     1       9.884   2.496  23.489  0.00  0.00    +0.000 A 
ATOM     40  C   UNL     1       9.675   2.044  22.188  0.00  0.00    +0.000 A 
ATOM     41  C   UNL     1       9.832   0.690  21.880  0.00  0.00    +0.003 A 
ENDBRANCH  35  36
ENDBRANCH  34  35
ENDBRANCH  28  34
ENDBRANCH  27  28
ENDBRANCH  22  27
ENDBRANCH   1  22
TORSDOF 13
ENDMDL
MODEL 4
REMARK VINA RESULT:      -6.8      2.036      7.880
REMARK  Name = 
REMARK  14 active torsions:
REMARK  status: ('A' for Active; 'I' for Inactive)
REMARK    1  A    between atoms: C_1  and  C_2
REMARK    2  A    between atoms: C_2  and  O_3
REMARK    3  A    between atoms: O_3  and  C_4
REMARK    4  A    between atoms: C_4  and  C_6
REMARK    5  A    between atoms: C_6  and  C_8
REMARK    6  A    between atoms: C_6  and  C_16
REMARK    7  A    between atoms: C_8  and  C_9
REMARK    8  A    between atoms: C_9  and  C_10
REMARK    9  A    between atoms: C_16  and  C_17
REMARK   10  A    between atoms: C_17  and  C_22
REMARK   11  A    between atoms: N_24  and  C_25
REMARK   12  A    between atoms: N_35  and  C_36
REMARK   13  A    between atoms: C_36  and  C_37
REMARK   14  A    between atoms: C_37  and  O_38
REMARK                            x       y       z     vdW  Elec       q    Type
REMARK                         _______ _______ _______ _____ _____    ______ ____
ROOT
ATOM      1  C   UNL     1       6.960   1.203  25.057  0.00  0.00    +0.220 C 
ATOM      2  N   UNL     1       6.978   0.170  24.140  0.00  0.00    -0.304 N 
ATOM      3  H   UNL     1       7.214   0.352  23.169  0.00  0.00    +0.149 HD
ATOM      4  O   UNL     1       6.878   0.989  26.267  0.00  0.00    -0.275 OA
ENDROOT
BRANCH   2   5
ATOM      5  C   UNL     1       6.969  -1.242  24.559  0.00  0.00    +0.160 C 
ATOM      6  C   UNL     1       8.009  -2.031  23.724  0.00  0.00    +0.241 C 
ATOM      7  O   UNL     1       8.921  -1.415  23.146  0.00  0.00    -0.273 OA
ATOM      8  N   UNL     1       8.103  -3.411  23.801  0.00  0.00    -0.259 N 
ATOM      9  C   UNL     1       7.028  -4.292  23.490  0.00  0.00    +0.040 A 
ATOM     10  C   UNL     1       5.752  -4.152  24.049  0.00  0.00    -0.026 A 
ATOM     11  C   UNL     1       4.698  -4.972  23.610  0.00  0.00    +0.005 A 
ATOM     12  C   UNL     1       4.911  -5.946  22.641  0.00  0.00    +0.000 A 
ATOM     13  C   UNL     1       6.189  -6.134  22.128  0.00  0.00    +0.002 A 
ATOM     14  C   UNL     1       5.475  -3.158  25.134  0.00  0.00    +0.039 C 
ATOM     15  C   UNL     1       7.246  -5.323  22.559  0.00  0.00    +0.024 A 
ATOM     16  C   UNL     1       5.543  -1.765  24.549  0.00  0.00    +0.036 C 
BRANCH   8  17
ATOM     17  C   UNL     1       9.321  -4.011  24.370  0.00  0.00    +0.234 C 
BRANCH  17  18
ATOM     18  C   UNL     1       9.289  -4.850  25.646  0.00  0.00    +0.323 C 
ATOM     19  O   UNL     1       8.908  -4.385  26.716  0.00  0.00    -0.249 OA
BRANCH  18  20
ATOM     20  O   UNL     1       9.843  -6.075  25.582  0.00  0.00    -0.480 OA
ATOM     21  H   UNL     1       9.800  -6.496  24.691  0.00  0.00    +0.295 HD
ENDBRANCH  18  20
ENDBRANCH  17  18
ENDBRANCH   8  17
ENDBRANCH   2   5
BRANCH   1  22
ATOM     22  C   UNL     1       7.069   2.623  24.467  0.00  0.00    +0.048 C 
ATOM     23  C   UNL     1       6.879   2.652  22.928  0.00  0.00    +0.016 C 
ATOM     24  C   UNL     1       5.418   2.957  22.621  0.00  0.00    +0.001 C 
ATOM     25  C   UNL     1       4.729   3.033  23.966  0.00  0.00    +0.001 C 
ATOM     26  C   UNL     1       5.839   3.440  24.936  0.00  0.00    +0.016 C 
BRANCH  22  27
ATOM     27  C   UNL     1       8.435   3.255  24.895  0.00  0.00    +0.030 C 
BRANCH  27  28
ATOM     28  C   UNL     1       9.277   3.992  23.798  0.00  0.00    +0.099 C 
BRANCH  28  29
ATOM     29  C   UNL     1      10.549   3.195  23.541  0.00  0.00    +0.310 C 
ATOM     30  O   UNL     1      11.657   3.699  23.406  0.00  0.00    -0.251 OA
BRANCH  29  31
ATOM     31  O   UNL     1      10.279   1.863  23.430  0.00  0.00    -0.465 OA
BRANCH  31  33
ATOM     32  C   UNL     1      10.486   0.334  25.307  0.00  0.00    +0.048 C 
ATOM     33  C   UNL     1      11.183   0.983  24.123  0.00  0.00    +0.229 C 
ENDBRANCH  31  33
ENDBRANCH  29  31
ENDBRANCH  28  29
BRANCH  28  34
ATOM     34  C   UNL     1       9.684   5.422  24.199  0.00  0.00    +0.019 C 
BRANCH  34  35
ATOM     35  C   UNL     1       9.233   6.563  23.282  0.00  0.00    +0.036 C 
BRANCH  35  36
ATOM     36  C   UNL     1       7.727   6.716  23.382  0.00  0.00    -0.047 A 
ATOM     37  C   UNL     1       6.910   6.503  22.263  0.00  0.00    +0.003 A 
ATOM     38  C   UNL     1       5.518   6.572  22.375  0.00  0.00    +0.000 A 
ATOM     39  C   UNL     1       4.929   6.850  23.607  0.00  0.00    +0.000 A 
ATOM     40  C   UNL     1       5.731   7.054  24.728  0.00  0.00    +0.000 A 
ATOM     41  C   UNL     1       7.122   6.985  24.618  0.00  0.00    +0.003 A 
ENDBRANCH  35  36
ENDBRANCH  34  35
ENDBRANCH  28  34
ENDBRANCH  27  28
ENDBRANCH  22  27
ENDBRANCH   1  22
TORSDOF 13
ENDMDL
MODEL 5
REMARK VINA RESULT:      -6.6      2.358      8.493
REMARK  Name = 
REMARK  14 active torsions:
REMARK  status: ('A' for Active; 'I' for Inactive)
REMARK    1  A    between atoms: C_1  and  C_2
REMARK    2  A    between atoms: C_2  and  O_3
REMARK    3  A    between atoms: O_3  and  C_4
REMARK    4  A    between atoms: C_4  and  C_6
REMARK    5  A    between atoms: C_6  and  C_8
REMARK    6  A    between atoms: C_6  and  C_16
REMARK    7  A    between atoms: C_8  and  C_9
REMARK    8  A    between atoms: C_9  and  C_10
REMARK    9  A    between atoms: C_16  and  C_17
REMARK   10  A    between atoms: C_17  and  C_22
REMARK   11  A    between atoms: N_24  and  C_25
REMARK   12  A    between atoms: N_35  and  C_36
REMARK   13  A    between atoms: C_36  and  C_37
REMARK   14  A    between atoms: C_37  and  O_38
REMARK                            x       y       z     vdW  Elec       q    Type
REMARK                         _______ _______ _______ _____ _____    ______ ____
ROOT
ATOM      1  C   UNL     1       8.972  -0.420  24.342  0.00  0.00    +0.220 C 
ATOM      2  N   UNL     1       7.865  -1.220  24.548  0.00  0.00    -0.304 N 
ATOM      3  H   UNL     1       6.936  -0.875  24.326  0.00  0.00    +0.149 HD
ATOM      4  O   UNL     1      10.115  -0.872  24.409  0.00  0.00    -0.275 OA
ENDROOT
BRANCH   2   5
ATOM      5  C   UNL     1       7.987  -2.668  24.791  0.00  0.00    +0.160 C 
ATOM      6  C   UNL     1       6.895  -3.416  23.985  0.00  0.00    +0.241 C 
ATOM      7  O   UNL     1       6.353  -2.849  23.020  0.00  0.00    -0.273 OA
ATOM      8  N   UNL     1       6.678  -4.774  24.146  0.00  0.00    -0.259 N 
ATOM      9  C   UNL     1       6.320  -5.373  25.388  0.00  0.00    +0.040 A 
ATOM     10  C   UNL     1       7.040  -5.148  26.568  0.00  0.00    -0.026 A 
ATOM     11  C   UNL     1       6.567  -5.663  27.788  0.00  0.00    +0.005 A 
ATOM     12  C   UNL     1       5.403  -6.421  27.838  0.00  0.00    +0.000 A 
ATOM     13  C   UNL     1       4.719  -6.703  26.660  0.00  0.00    +0.002 A 
ATOM     14  C   UNL     1       8.329  -4.385  26.570  0.00  0.00    +0.039 C 
ATOM     15  C   UNL     1       5.182  -6.195  25.440  0.00  0.00    +0.024 A 
ATOM     16  C   UNL     1       8.034  -2.930  26.286  0.00  0.00    +0.036 C 
BRANCH   8  17
ATOM     17  C   UNL     1       6.970  -5.681  23.022  0.00  0.00    +0.234 C 
BRANCH  17  18
ATOM     18  C   UNL     1       6.012  -5.844  21.845  0.00  0.00    +0.323 C 
ATOM     19  O   UNL     1       6.379  -5.685  20.685  0.00  0.00    -0.249 OA
BRANCH  18  20
ATOM     20  O   UNL     1       4.710  -6.014  22.140  0.00  0.00    -0.480 OA
ATOM     21  H   UNL     1       4.329  -6.868  21.826  0.00  0.00    +0.295 HD
ENDBRANCH  18  20
ENDBRANCH  17  18
ENDBRANCH   8  17
ENDBRANCH   2   5
BRANCH   1  22
ATOM     22  C   UNL     1       8.676   1.056  24.007  0.00  0.00    +0.048 C 
ATOM     23  C   UNL     1       9.947   1.848  23.604  0.00  0.00    +0.016 C 
ATOM     24  C   UNL     1      10.071   1.837  22.086  0.00  0.00    +0.001 C 
ATOM     25  C   UNL     1       8.926   0.980  21.593  0.00  0.00    +0.001 C 
ATOM     26  C   UNL     1       7.865   1.101  22.687  0.00  0.00    +0.016 C 
BRANCH  22  27
ATOM     27  C   UNL     1       7.936   1.720  25.215  0.00  0.00    +0.030 C 
BRANCH  27  28
ATOM     28  C   UNL     1       6.464   2.210  24.993  0.00  0.00    +0.099 C 
BRANCH  28  29
ATOM     29  C   UNL     1       6.362   3.664  25.435  0.00  0.00    +0.310 C 
ATOM     30  O   UNL     1       6.418   4.029  26.602  0.00  0.00    -0.251 OA
BRANCH  29  31
ATOM     31  O   UNL     1       6.146   4.486  24.368  0.00  0.00    -0.465 OA
BRANCH  31  33
ATOM     32  C   UNL     1       7.277   4.689  22.228  0.00  0.00    +0.048 C 
ATOM     33  C   UNL     1       7.328   4.985  23.717  0.00  0.00    +0.229 C 
ENDBRANCH  31  33
ENDBRANCH  29  31
ENDBRANCH  28  29
BRANCH  28  34
ATOM     34  C   UNL     1       5.423   1.397  25.784  0.00  0.00    +0.019 C 
BRANCH  34  35
ATOM     35  C   UNL     1       5.933   0.559  26.960  0.00  0.00    +0.036 C 
BRANCH  35  36
ATOM     36  C   UNL     1       5.119  -0.718  27.052  0.00  0.00    -0.047 A 
ATOM     37  C   UNL     1       4.651  -1.354  25.893  0.00  0.00    +0.003 A 
ATOM     38  C   UNL     1       3.965  -2.569  25.977  0.00  0.00    +0.000 A 
ATOM     39  C   UNL     1       3.744  -3.163  27.218  0.00  0.00    +0.000 A 
ATOM     40  C   UNL     1       4.213  -2.544  28.375  0.00  0.00    +0.000 A 
ATOM     41  C   UNL     1       4.899  -1.330  28.294  0.00  0.00    +0.003 A 
ENDBRANCH  35  36
ENDBRANCH  34  35
ENDBRANCH  28  34
ENDBRANCH  27  28
ENDBRANCH  22  27
ENDBRANCH   1  22
TORSDOF 13
ENDMDL
MODEL 6
REMARK VINA RESULT:      -6.4      2.326      7.882
REMARK  Name = 
REMARK  14 active torsions:
REMARK  status: ('A' for Active; 'I' for Inactive)
REMARK    1  A    between atoms: C_1  and  C_2
REMARK    2  A    between atoms: C_2  and  O_3
REMARK    3  A    between atoms: O_3  and  C_4
REMARK    4  A    between atoms: C_4  and  C_6
REMARK    5  A    between atoms: C_6  and  C_8
REMARK    6  A    between atoms: C_6  and  C_16
REMARK    7  A    between atoms: C_8  and  C_9
REMARK    8  A    between atoms: C_9  and  C_10
REMARK    9  A    between atoms: C_16  and  C_17
REMARK   10  A    between atoms: C_17  and  C_22
REMARK   11  A    between atoms: N_24  and  C_25
REMARK   12  A    between atoms: N_35  and  C_36
REMARK   13  A    between atoms: C_36  and  C_37
REMARK   14  A    between atoms: C_37  and  O_38
REMARK                            x       y       z     vdW  Elec       q    Type
REMARK                         _______ _______ _______ _____ _____    ______ ____
ROOT
ATOM      1  C   UNL     1       7.383   0.438  25.429  0.00  0.00    +0.220 C 
ATOM      2  N   UNL     1       6.595  -0.600  24.973  0.00  0.00    -0.304 N 
ATOM      3  H   UNL     1       5.807  -0.413  24.359  0.00  0.00    +0.149 HD
ATOM      4  O   UNL     1       8.452   0.231  26.003  0.00  0.00    -0.275 OA
ENDROOT
BRANCH   2   5
ATOM      5  C   UNL     1       7.019  -2.006  25.086  0.00  0.00    +0.160 C 
ATOM      6  C   UNL     1       6.300  -2.846  24.000  0.00  0.00    +0.241 C 
ATOM      7  O   UNL     1       5.817  -2.275  23.007  0.00  0.00    -0.273 OA
ATOM      8  N   UNL     1       6.395  -4.228  23.973  0.00  0.00    -0.259 N 
ATOM      9  C   UNL     1       5.979  -5.067  25.046  0.00  0.00    +0.040 A 
ATOM     10  C   UNL     1       6.402  -4.867  26.366  0.00  0.00    -0.026 A 
ATOM     11  C   UNL     1       5.860  -5.647  27.403  0.00  0.00    +0.005 A 
ATOM     12  C   UNL     1       4.925  -6.639  27.133  0.00  0.00    +0.000 A 
ATOM     13  C   UNL     1       4.548  -6.886  25.817  0.00  0.00    +0.002 A 
ATOM     14  C   UNL     1       7.447  -3.851  26.712  0.00  0.00    +0.039 C 
ATOM     15  C   UNL     1       5.082  -6.115  24.778  0.00  0.00    +0.024 A 
ATOM     16  C   UNL     1       6.863  -2.469  26.524  0.00  0.00    +0.036 C 
BRANCH   8  17
ATOM     17  C   UNL     1       7.091  -4.873  22.847  0.00  0.00    +0.234 C 
BRANCH  17  18
ATOM     18  C   UNL     1       6.341  -5.387  21.620  0.00  0.00    +0.323 C 
ATOM     19  O   UNL     1       5.868  -4.624  20.784  0.00  0.00    -0.249 OA
BRANCH  18  20
ATOM     20  O   UNL     1       6.084  -6.708  21.575  0.00  0.00    -0.480 OA
ATOM     21  H   UNL     1       6.696  -7.223  20.997  0.00  0.00    +0.295 HD
ENDBRANCH  18  20
ENDBRANCH  17  18
ENDBRANCH   8  17
ENDBRANCH   2   5
BRANCH   1  22
ATOM     22  C   UNL     1       6.845   1.857  25.154  0.00  0.00    +0.048 C 
ATOM     23  C   UNL     1       5.332   1.872  24.815  0.00  0.00    +0.016 C 
ATOM     24  C   UNL     1       4.546   2.143  26.091  0.00  0.00    +0.001 C 
ATOM     25  C   UNL     1       5.579   2.212  27.195  0.00  0.00    +0.001 C 
ATOM     26  C   UNL     1       6.862   2.649  26.486  0.00  0.00    +0.016 C 
BRANCH  22  27
ATOM     27  C   UNL     1       7.701   2.521  24.025  0.00  0.00    +0.030 C 
BRANCH  27  28
ATOM     28  C   UNL     1       9.028   3.244  24.441  0.00  0.00    +0.099 C 
BRANCH  28  29
ATOM     29  C   UNL     1       8.869   4.738  24.192  0.00  0.00    +0.310 C 
ATOM     30  O   UNL     1       7.830   5.356  24.383  0.00  0.00    -0.251 OA
BRANCH  29  31
ATOM     31  O   UNL     1      10.015   5.274  23.682  0.00  0.00    -0.465 OA
BRANCH  31  33
ATOM     32  C   UNL     1      12.095   6.266  24.452  0.00  0.00    +0.048 C 
ATOM     33  C   UNL     1      10.579   6.366  24.431  0.00  0.00    +0.229 C 
ENDBRANCH  31  33
ENDBRANCH  29  31
ENDBRANCH  28  29
BRANCH  28  34
ATOM     34  C   UNL     1      10.260   2.759  23.655  0.00  0.00    +0.019 C 
BRANCH  34  35
ATOM     35  C   UNL     1      10.014   2.135  22.278  0.00  0.00    +0.036 C 
BRANCH  35  36
ATOM     36  C   UNL     1       9.949   0.626  22.419  0.00  0.00    -0.047 A 
ATOM     37  C   UNL     1      10.569  -0.020  23.498  0.00  0.00    +0.003 A 
ATOM     38  C   UNL     1      10.446  -1.402  23.667  0.00  0.00    +0.000 A 
ATOM     39  C   UNL     1       9.697  -2.152  22.761  0.00  0.00    +0.000 A 
ATOM     40  C   UNL     1       9.068  -1.520  21.691  0.00  0.00    +0.000 A 
ATOM     41  C   UNL     1       9.190  -0.138  21.521  0.00  0.00    +0.003 A 
ENDBRANCH  35  36
ENDBRANCH  34  35
ENDBRANCH  28  34
ENDBRANCH  27  28
ENDBRANCH  22  27
ENDBRANCH   1  22
TORSDOF 13
ENDMDL
MODEL 7
REMARK VINA RESULT:      -6.3      2.128      7.714
REMARK  Name = 
REMARK  14 active torsions:
REMARK  status: ('A' for Active; 'I' for Inactive)
REMARK    1  A    between atoms: C_1  and  C_2
REMARK    2  A    between atoms: C_2  and  O_3
REMARK    3  A    between atoms: O_3  and  C_4
REMARK    4  A    between atoms: C_4  and  C_6
REMARK    5  A    between atoms: C_6  and  C_8
REMARK    6  A    between atoms: C_6  and  C_16
REMARK    7  A    between atoms: C_8  and  C_9
REMARK    8  A    between atoms: C_9  and  C_10
REMARK    9  A    between atoms: C_16  and  C_17
REMARK   10  A    between atoms: C_17  and  C_22
REMARK   11  A    between atoms: N_24  and  C_25
REMARK   12  A    between atoms: N_35  and  C_36
REMARK   13  A    between atoms: C_36  and  C_37
REMARK   14  A    between atoms: C_37  and  O_38
REMARK                            x       y       z     vdW  Elec       q    Type
REMARK                         _______ _______ _______ _____ _____    ______ ____
ROOT
ATOM      1  C   UNL     1       5.809   0.949  25.529  0.00  0.00    +0.220 C 
ATOM      2  N   UNL     1       6.694  -0.107  25.434  0.00  0.00    -0.304 N 
ATOM      3  H   UNL     1       7.670   0.019  25.686  0.00  0.00    +0.149 HD
ATOM      4  O   UNL     1       4.593   0.781  25.427  0.00  0.00    -0.275 OA
ENDROOT
BRANCH   2   5
ATOM      5  C   UNL     1       6.232  -1.497  25.275  0.00  0.00    +0.160 C 
ATOM      6  C   UNL     1       7.326  -2.463  25.797  0.00  0.00    +0.241 C 
ATOM      7  O   UNL     1       8.197  -2.035  26.573  0.00  0.00    -0.273 OA
ATOM      8  N   UNL     1       7.223  -3.833  25.627  0.00  0.00    -0.259 N 
ATOM      9  C   UNL     1       7.125  -4.464  24.353  0.00  0.00    +0.040 A 
ATOM     10  C   UNL     1       6.186  -4.076  23.390  0.00  0.00    -0.026 A 
ATOM     11  C   UNL     1       6.219  -4.648  22.106  0.00  0.00    +0.005 A 
ATOM     12  C   UNL     1       7.159  -5.619  21.783  0.00  0.00    +0.000 A 
ATOM     13  C   UNL     1       8.053  -6.056  22.755  0.00  0.00    +0.002 A 
ATOM     14  C   UNL     1       5.115  -3.074  23.695  0.00  0.00    +0.039 C 
ATOM     15  C   UNL     1       8.028  -5.493  24.036  0.00  0.00    +0.024 A 
ATOM     16  C   UNL     1       5.752  -1.712  23.850  0.00  0.00    +0.036 C 
BRANCH   8  17
ATOM     17  C   UNL     1       7.057  -4.689  26.814  0.00  0.00    +0.234 C 
BRANCH  17  18
ATOM     18  C   UNL     1       5.772  -5.471  27.074  0.00  0.00    +0.323 C 
ATOM     19  O   UNL     1       5.717  -6.689  26.938  0.00  0.00    -0.249 OA
BRANCH  18  20
ATOM     20  O   UNL     1       4.658  -4.752  27.307  0.00  0.00    -0.480 OA
ATOM     21  H   UNL     1       4.260  -4.344  26.500  0.00  0.00    +0.295 HD
ENDBRANCH  18  20
ENDBRANCH  17  18
ENDBRANCH   8  17
ENDBRANCH   2   5
BRANCH   1  22
ATOM     22  C   UNL     1       6.442   2.331  25.788  0.00  0.00    +0.048 C 
ATOM     23  C   UNL     1       5.390   3.425  26.107  0.00  0.00    +0.016 C 
ATOM     24  C   UNL     1       5.242   3.538  27.619  0.00  0.00    +0.001 C 
ATOM     25  C   UNL     1       6.143   2.466  28.194  0.00  0.00    +0.001 C 
ATOM     26  C   UNL     1       7.220   2.265  27.127  0.00  0.00    +0.016 C 
BRANCH  22  27
ATOM     27  C   UNL     1       7.338   2.723  24.568  0.00  0.00    +0.030 C 
BRANCH  27  28
ATOM     28  C   UNL     1       8.783   3.256  24.861  0.00  0.00    +0.099 C 
BRANCH  28  29
ATOM     29  C   UNL     1       8.746   4.778  24.886  0.00  0.00    +0.310 C 
ATOM     30  O   UNL     1       8.282   5.436  25.808  0.00  0.00    -0.251 OA
BRANCH  29  31
ATOM     31  O   UNL     1       9.246   5.299  23.729  0.00  0.00    -0.465 OA
BRANCH  31  33
ATOM     32  C   UNL     1       7.644   6.276  22.186  0.00  0.00    +0.048 C 
ATOM     33  C   UNL     1       8.651   6.535  23.293  0.00  0.00    +0.229 C 
ENDBRANCH  31  33
ENDBRANCH  29  31
ENDBRANCH  28  29
BRANCH  28  34
ATOM     34  C   UNL     1       9.819   2.822  23.808  0.00  0.00    +0.019 C 
BRANCH  34  35
ATOM     35  C   UNL     1      10.678   1.596  24.133  0.00  0.00    +0.036 C 
BRANCH  35  36
ATOM     36  C   UNL     1      10.191   0.415  23.314  0.00  0.00    -0.047 A 
ATOM     37  C   UNL     1      10.084  -0.859  23.889  0.00  0.00    +0.003 A 
ATOM     38  C   UNL     1       9.565  -1.929  23.155  0.00  0.00    +0.000 A 
ATOM     39  C   UNL     1       9.145  -1.736  21.840  0.00  0.00    +0.000 A 
ATOM     40  C   UNL     1       9.238  -0.472  21.262  0.00  0.00    +0.000 A 
ATOM     41  C   UNL     1       9.756   0.599  21.994  0.00  0.00    +0.003 A 
ENDBRANCH  35  36
ENDBRANCH  34  35
ENDBRANCH  28  34
ENDBRANCH  27  28
ENDBRANCH  22  27
ENDBRANCH   1  22
TORSDOF 13
ENDMDL
MODEL 8
REMARK VINA RESULT:      -6.2      2.096      7.986
REMARK  Name = 
REMARK  14 active torsions:
REMARK  status: ('A' for Active; 'I' for Inactive)
REMARK    1  A    between atoms: C_1  and  C_2
REMARK    2  A    between atoms: C_2  and  O_3
REMARK    3  A    between atoms: O_3  and  C_4
REMARK    4  A    between atoms: C_4  and  C_6
REMARK    5  A    between atoms: C_6  and  C_8
REMARK    6  A    between atoms: C_6  and  C_16
REMARK    7  A    between atoms: C_8  and  C_9
REMARK    8  A    between atoms: C_9  and  C_10
REMARK    9  A    between atoms: C_16  and  C_17
REMARK   10  A    between atoms: C_17  and  C_22
REMARK   11  A    between atoms: N_24  and  C_25
REMARK   12  A    between atoms: N_35  and  C_36
REMARK   13  A    between atoms: C_36  and  C_37
REMARK   14  A    between atoms: C_37  and  O_38
REMARK                            x       y       z     vdW  Elec       q    Type
REMARK                         _______ _______ _______ _____ _____    ______ ____
ROOT
ATOM      1  C   UNL     1       7.632   0.688  23.677  0.00  0.00    +0.220 C 
ATOM      2  N   UNL     1       7.841  -0.104  24.789  0.00  0.00    -0.304 N 
ATOM      3  H   UNL     1       8.248   0.293  25.631  0.00  0.00    +0.149 HD
ATOM      4  O   UNL     1       6.962   0.294  22.722  0.00  0.00    -0.275 OA
ENDROOT
BRANCH   2   5
ATOM      5  C   UNL     1       7.220  -1.433  24.925  0.00  0.00    +0.160 C 
ATOM      6  C   UNL     1       8.320  -2.522  24.845  0.00  0.00    +0.241 C 
ATOM      7  O   UNL     1       9.504  -2.209  25.058  0.00  0.00    -0.273 OA
ATOM      8  N   UNL     1       8.003  -3.869  24.789  0.00  0.00    -0.259 N 
ATOM      9  C   UNL     1       7.207  -4.448  23.760  0.00  0.00    +0.040 A 
ATOM     10  C   UNL     1       5.954  -3.937  23.398  0.00  0.00    -0.026 A 
ATOM     11  C   UNL     1       5.270  -4.471  22.291  0.00  0.00    +0.005 A 
ATOM     12  C   UNL     1       5.809  -5.525  21.563  0.00  0.00    +0.000 A 
ATOM     13  C   UNL     1       7.022  -6.080  21.956  0.00  0.00    +0.002 A 
ATOM     14  C   UNL     1       5.298  -2.839  24.177  0.00  0.00    +0.039 C 
ATOM     15  C   UNL     1       7.711  -5.555  23.056  0.00  0.00    +0.024 A 
ATOM     16  C   UNL     1       6.063  -1.555  23.949  0.00  0.00    +0.036 C 
BRANCH   8  17
ATOM     17  C   UNL     1       8.376  -4.737  25.919  0.00  0.00    +0.234 C 
BRANCH  17  18
ATOM     18  C   UNL     1       7.422  -5.007  27.080  0.00  0.00    +0.323 C 
ATOM     19  O   UNL     1       6.557  -4.201  27.407  0.00  0.00    -0.249 OA
BRANCH  18  20
ATOM     20  O   UNL     1       7.671  -6.097  27.830  0.00  0.00    -0.480 OA
ATOM     21  H   UNL     1       8.393  -6.674  27.484  0.00  0.00    +0.295 HD
ENDBRANCH  18  20
ENDBRANCH  17  18
ENDBRANCH   8  17
ENDBRANCH   2   5
BRANCH   1  22
ATOM     22  C   UNL     1       8.272   2.091  23.725  0.00  0.00    +0.048 C 
ATOM     23  C   UNL     1       9.686   2.085  24.362  0.00  0.00    +0.016 C 
ATOM     24  C   UNL     1      10.723   1.975  23.252  0.00  0.00    +0.001 C 
ATOM     25  C   UNL     1       9.930   1.837  21.970  0.00  0.00    +0.001 C 
ATOM     26  C   UNL     1       8.598   2.525  22.274  0.00  0.00    +0.016 C 
BRANCH  22  27
ATOM     27  C   UNL     1       7.305   3.072  24.466  0.00  0.00    +0.030 C 
BRANCH  27  28
ATOM     28  C   UNL     1       7.750   3.624  25.864  0.00  0.00    +0.099 C 
BRANCH  28  29
ATOM     29  C   UNL     1       6.950   2.911  26.947  0.00  0.00    +0.310 C 
ATOM     30  O   UNL     1       7.044   1.715  27.192  0.00  0.00    -0.251 OA
BRANCH  29  31
ATOM     31  O   UNL     1       6.086   3.768  27.561  0.00  0.00    -0.465 OA
BRANCH  31  33
ATOM     32  C   UNL     1       4.525   2.981  29.249  0.00  0.00    +0.048 C 
ATOM     33  C   UNL     1       4.754   3.265  27.774  0.00  0.00    +0.229 C 
ENDBRANCH  31  33
ENDBRANCH  29  31
ENDBRANCH  28  29
BRANCH  28  34
ATOM     34  C   UNL     1       7.524   5.138  26.024  0.00  0.00    +0.019 C 
BRANCH  34  35
ATOM     35  C   UNL     1       7.858   6.029  24.823  0.00  0.00    +0.036 C 
BRANCH  35  36
ATOM     36  C   UNL     1       9.358   6.245  24.765  0.00  0.00    -0.047 A 
ATOM     37  C   UNL     1      10.017   6.973  25.766  0.00  0.00    +0.003 A 
ATOM     38  C   UNL     1      11.408   7.108  25.749  0.00  0.00    +0.000 A 
ATOM     39  C   UNL     1      12.155   6.511  24.735  0.00  0.00    +0.000 A 
ATOM     40  C   UNL     1      11.513   5.777  23.741  0.00  0.00    +0.000 A 
ATOM     41  C   UNL     1      10.122   5.641  23.756  0.00  0.00    +0.003 A 
ENDBRANCH  35  36
ENDBRANCH  34  35
ENDBRANCH  28  34
ENDBRANCH  27  28
ENDBRANCH  22  27
ENDBRANCH   1  22
TORSDOF 13
ENDMDL
MODEL 9
REMARK VINA RESULT:      -6.0      2.359      7.512
REMARK  Name = 
REMARK  14 active torsions:
REMARK  status: ('A' for Active; 'I' for Inactive)
REMARK    1  A    between atoms: C_1  and  C_2
REMARK    2  A    between atoms: C_2  and  O_3
REMARK    3  A    between atoms: O_3  and  C_4
REMARK    4  A    between atoms: C_4  and  C_6
REMARK    5  A    between atoms: C_6  and  C_8
REMARK    6  A    between atoms: C_6  and  C_16
REMARK    7  A    between atoms: C_8  and  C_9
REMARK    8  A    between atoms: C_9  and  C_10
REMARK    9  A    between atoms: C_16  and  C_17
REMARK   10  A    between atoms: C_17  and  C_22
REMARK   11  A    between atoms: N_24  and  C_25
REMARK   12  A    between atoms: N_35  and  C_36
REMARK   13  A    between atoms: C_36  and  C_37
REMARK   14  A    between atoms: C_37  and  O_38
REMARK                            x       y       z     vdW  Elec       q    Type
REMARK                         _______ _______ _______ _____ _____    ______ ____
ROOT
ATOM      1  C   UNL     1       6.948   0.047  25.310  0.00  0.00    +0.220 C 
ATOM      2  N   UNL     1       7.960  -0.614  24.642  0.00  0.00    -0.304 N 
ATOM      3  H   UNL     1       8.733  -0.093  24.239  0.00  0.00    +0.149 HD
ATOM      4  O   UNL     1       6.111  -0.561  25.977  0.00  0.00    -0.275 OA
ENDROOT
BRANCH   2   5
ATOM      5  C   UNL     1       8.135  -2.074  24.746  0.00  0.00    +0.160 C 
ATOM      6  C   UNL     1       7.082  -2.780  23.855  0.00  0.00    +0.241 C 
ATOM      7  O   UNL     1       6.529  -2.143  22.941  0.00  0.00    -0.273 OA
ATOM      8  N   UNL     1       6.917  -4.155  23.881  0.00  0.00    -0.259 N 
ATOM      9  C   UNL     1       6.569  -4.884  25.053  0.00  0.00    +0.040 A 
ATOM     10  C   UNL     1       7.265  -4.748  26.261  0.00  0.00    -0.026 A 
ATOM     11  C   UNL     1       6.799  -5.397  27.418  0.00  0.00    +0.005 A 
ATOM     12  C   UNL     1       5.665  -6.200  27.376  0.00  0.00    +0.000 A 
ATOM     13  C   UNL     1       5.006  -6.391  26.166  0.00  0.00    +0.002 A 
ATOM     14  C   UNL     1       8.523  -3.942  26.355  0.00  0.00    +0.039 C 
ATOM     15  C   UNL     1       5.462  -5.749  25.009  0.00  0.00    +0.024 A 
ATOM     16  C   UNL     1       8.176  -2.478  26.209  0.00  0.00    +0.036 C 
BRANCH   8  17
ATOM     17  C   UNL     1       7.256  -4.936  22.679  0.00  0.00    +0.234 C 
BRANCH  17  18
ATOM     18  C   UNL     1       6.261  -5.139  21.539  0.00  0.00    +0.323 C 
ATOM     19  O   UNL     1       6.059  -6.244  21.045  0.00  0.00    -0.249 OA
BRANCH  18  20
ATOM     20  O   UNL     1       5.730  -4.030  20.991  0.00  0.00    -0.480 OA
ATOM     21  H   UNL     1       5.399  -3.370  21.646  0.00  0.00    +0.295 HD
ENDBRANCH  18  20
ENDBRANCH  17  18
ENDBRANCH   8  17
ENDBRANCH   2   5
BRANCH   1  22
ATOM     22  C   UNL     1       6.953   1.584  25.178  0.00  0.00    +0.048 C 
ATOM     23  C   UNL     1       6.172   2.084  23.935  0.00  0.00    +0.016 C 
ATOM     24  C   UNL     1       4.747   2.422  24.355  0.00  0.00    +0.001 C 
ATOM     25  C   UNL     1       4.659   2.052  25.820  0.00  0.00    +0.001 C 
ATOM     26  C   UNL     1       6.097   2.173  26.327  0.00  0.00    +0.016 C 
BRANCH  22  27
ATOM     27  C   UNL     1       8.432   2.095  25.180  0.00  0.00    +0.030 C 
BRANCH  27  28
ATOM     28  C   UNL     1       8.977   2.763  23.871  0.00  0.00    +0.099 C 
BRANCH  28  29
ATOM     29  C   UNL     1      10.212   1.999  23.411  0.00  0.00    +0.310 C 
ATOM     30  O   UNL     1      11.097   1.612  24.164  0.00  0.00    -0.251 OA
BRANCH  29  31
ATOM     31  O   UNL     1      10.223   1.856  22.055  0.00  0.00    -0.465 OA
BRANCH  31  33
ATOM     32  C   UNL     1       9.435  -0.365  21.464  0.00  0.00    +0.048 C 
ATOM     33  C   UNL     1       9.119   1.120  21.497  0.00  0.00    +0.229 C 
ENDBRANCH  31  33
ENDBRANCH  29  31
ENDBRANCH  28  29
BRANCH  28  34
ATOM     34  C   UNL     1       9.373   4.239  24.057  0.00  0.00    +0.019 C 
BRANCH  34  35
ATOM     35  C   UNL     1       8.681   5.015  25.182  0.00  0.00    +0.036 C 
BRANCH  35  36
ATOM     36  C   UNL     1       7.319   5.480  24.702  0.00  0.00    -0.047 A 
ATOM     37  C   UNL     1       7.050   5.615  23.332  0.00  0.00    +0.003 A 
ATOM     38  C   UNL     1       5.773   5.972  22.890  0.00  0.00    +0.000 A 
ATOM     39  C   UNL     1       4.751   6.194  23.811  0.00  0.00    +0.000 A 
ATOM     40  C   UNL     1       5.005   6.054  25.174  0.00  0.00    +0.000 A 
ATOM     41  C   UNL     1       6.280   5.696  25.618  0.00  0.00    +0.003 A 
ENDBRANCH  35  36
ENDBRANCH  34  35
ENDBRANCH  28  34
ENDBRANCH  27  28
ENDBRANCH  22  27
ENDBRANCH   1  22
TORSDOF 13
ENDMDL
