MODEL 1
REMARK VINA RESULT:      -6.8      0.000      0.000
REMARK  Name = 
REMARK  6 active torsions:
REMARK  status: ('A' for Active; 'I' for Inactive)
REMARK    1  A    between atoms: C_1  and  C_2
REMARK    2  A    between atoms: C_2  and  C_4
REMARK    3  A    between atoms: C_4  and  C_5
REMARK    4  A    between atoms: C_5  and  C_6
REMARK    5  A    between atoms: N_9  and  C_19
REMARK    6  A    between atoms: N_10  and  C_13
REMARK                            x       y       z     vdW  Elec       q    Type
REMARK                         _______ _______ _______ _____ _____    ______ ____
ROOT
ATOM      1  C   UNL     1       9.841  -1.442  24.967  0.00  0.00    +0.165 C 
ATOM      2  C   UNL     1       9.586  -2.390  23.827  0.00  0.00    +0.249 C 
ATOM      3  O   UNL     1      10.256  -2.450  22.806  0.00  0.00    -0.273 OA
ATOM      4  N   UNL     1       8.454  -3.153  24.182  0.00  0.00    -0.180 N 
ATOM      5  N   UNL     1       7.872  -2.645  25.374  0.00  0.00    -0.180 N 
ATOM      6  C   UNL     1       8.566  -1.484  25.771  0.00  0.00    +0.249 C 
ATOM      7  O   UNL     1       8.310  -0.705  26.677  0.00  0.00    -0.273 OA
ENDROOT
BRANCH   4   8
ATOM      8  C   UNL     1       7.731  -3.854  23.177  0.00  0.00    +0.057 A 
ATOM      9  C   UNL     1       6.854  -3.201  22.302  0.00  0.00    +0.025 A 
ATOM     10  C   UNL     1       6.083  -3.936  21.395  0.00  0.00    +0.002 A 
ATOM     11  C   UNL     1       6.166  -5.328  21.370  0.00  0.00    +0.000 A 
ATOM     12  C   UNL     1       7.039  -5.986  22.231  0.00  0.00    +0.002 A 
ATOM     13  C   UNL     1       7.831  -5.252  23.118  0.00  0.00    +0.025 A 
ENDBRANCH   4   8
BRANCH   5  14
ATOM     14  C   UNL     1       7.153  -3.456  26.325  0.00  0.00    +0.057 A 
ATOM     15  C   UNL     1       5.876  -3.103  26.787  0.00  0.00    +0.025 A 
ATOM     16  C   UNL     1       5.170  -3.908  27.693  0.00  0.00    +0.002 A 
ATOM     17  C   UNL     1       5.713  -5.107  28.134  0.00  0.00    +0.000 A 
ATOM     18  C   UNL     1       6.966  -5.492  27.684  0.00  0.00    +0.002 A 
ATOM     19  C   UNL     1       7.680  -4.669  26.804  0.00  0.00    +0.025 A 
ENDBRANCH   5  14
BRANCH   1  20
ATOM     20  C   UNL     1      10.279  -0.034  24.559  0.00  0.00    +0.030 C 
BRANCH  20  21
ATOM     21  C   UNL     1       9.198   0.711  23.762  0.00  0.00    +0.075 C 
BRANCH  21  23
ATOM     22  C   UNL     1       9.116   0.393  21.217  0.00  0.00    +0.086 C 
ATOM     23  C   UNL     1       9.660   1.169  22.392  0.00  0.00    +0.130 C 
ATOM     24  O   UNL     1      10.428   2.116  22.231  0.00  0.00    -0.298 OA
ENDBRANCH  21  23
ENDBRANCH  20  21
ENDBRANCH   1  20
TORSDOF 5
ENDMDL
MODEL 2
REMARK VINA RESULT:      -6.7      0.756      4.270
REMARK  Name = 
REMARK  6 active torsions:
REMARK  status: ('A' for Active; 'I' for Inactive)
REMARK    1  A    between atoms: C_1  and  C_2
REMARK    2  A    between atoms: C_2  and  C_4
REMARK    3  A    between atoms: C_4  and  C_5
REMARK    4  A    between atoms: C_5  and  C_6
REMARK    5  A    between atoms: N_9  and  C_19
REMARK    6  A    between atoms: N_10  and  C_13
REMARK                            x       y       z     vdW  Elec       q    Type
REMARK                         _______ _______ _______ _____ _____    ______ ____
ROOT
ATOM      1  C   UNL     1       9.004  -0.857  24.409  0.00  0.00    +0.165 C 
ATOM      2  C   UNL     1       8.181  -1.348  25.570  0.00  0.00    +0.249 C 
ATOM      3  O   UNL     1       8.019  -0.739  26.617  0.00  0.00    -0.273 OA
ATOM      4  N   UNL     1       7.669  -2.608  25.196  0.00  0.00    -0.180 N 
ATOM      5  N   UNL     1       8.243  -3.028  23.966  0.00  0.00    -0.180 N 
ATOM      6  C   UNL     1       9.208  -2.084  23.558  0.00  0.00    +0.249 C 
ATOM      7  O   UNL     1       9.987  -2.136  22.618  0.00  0.00    -0.273 OA
ENDROOT
BRANCH   4   8
ATOM      8  C   UNL     1       7.183  -3.497  26.194  0.00  0.00    +0.057 A 
ATOM      9  C   UNL     1       7.922  -4.609  26.621  0.00  0.00    +0.025 A 
ATOM     10  C   UNL     1       7.368  -5.518  27.530  0.00  0.00    +0.002 A 
ATOM     11  C   UNL     1       6.069  -5.336  28.001  0.00  0.00    +0.000 A 
ATOM     12  C   UNL     1       5.329  -4.232  27.589  0.00  0.00    +0.002 A 
ATOM     13  C   UNL     1       5.890  -3.307  26.703  0.00  0.00    +0.025 A 
ENDBRANCH   4   8
BRANCH   5  14
ATOM     14  C   UNL     1       7.570  -3.877  23.015  0.00  0.00    +0.057 A 
ATOM     15  C   UNL     1       7.767  -5.266  22.988  0.00  0.00    +0.025 A 
ATOM     16  C   UNL     1       7.092  -6.090  22.077  0.00  0.00    +0.002 A 
ATOM     17  C   UNL     1       6.171  -5.548  21.190  0.00  0.00    +0.000 A 
ATOM     18  C   UNL     1       5.941  -4.180  21.202  0.00  0.00    +0.002 A 
ATOM     19  C   UNL     1       6.643  -3.357  22.092  0.00  0.00    +0.025 A 
ENDBRANCH   5  14
BRANCH   1  20
ATOM     20  C   UNL     1      10.299  -0.134  24.788  0.00  0.00    +0.030 C 
BRANCH  20  21
ATOM     21  C   UNL     1      10.249   1.367  24.467  0.00  0.00    +0.075 C 
BRANCH  21  23
ATOM     22  C   UNL     1       9.973   1.454  21.918  0.00  0.00    +0.086 C 
ATOM     23  C   UNL     1       9.371   1.707  23.278  0.00  0.00    +0.130 C 
ATOM     24  O   UNL     1       8.232   2.156  23.399  0.00  0.00    -0.298 OA
ENDBRANCH  21  23
ENDBRANCH  20  21
ENDBRANCH   1  20
TORSDOF 5
ENDMDL
MODEL 3
REMARK VINA RESULT:      -6.2      2.274      6.387
REMARK  Name = 
REMARK  6 active torsions:
REMARK  status: ('A' for Active; 'I' for Inactive)
REMARK    1  A    between atoms: C_1  and  C_2
REMARK    2  A    between atoms: C_2  and  C_4
REMARK    3  A    between atoms: C_4  and  C_5
REMARK    4  A    between atoms: C_5  and  C_6
REMARK    5  A    between atoms: N_9  and  C_19
REMARK    6  A    between atoms: N_10  and  C_13
REMARK                            x       y       z     vdW  Elec       q    Type
REMARK                         _______ _______ _______ _____ _____    ______ ____
ROOT
ATOM      1  C   UNL     1       8.683  -3.644  24.443  0.00  0.00    +0.165 C 
ATOM      2  C   UNL     1       8.127  -3.059  25.712  0.00  0.00    +0.249 C 
ATOM      3  O   UNL     1       7.809  -3.708  26.698  0.00  0.00    -0.273 OA
ATOM      4  N   UNL     1       8.056  -1.664  25.516  0.00  0.00    -0.180 N 
ATOM      5  N   UNL     1       8.358  -1.340  24.166  0.00  0.00    -0.180 N 
ATOM      6  C   UNL     1       8.547  -2.531  23.435  0.00  0.00    +0.249 C 
ATOM      7  O   UNL     1       8.718  -2.679  22.234  0.00  0.00    -0.273 OA
ENDROOT
BRANCH   4   8
ATOM      8  C   UNL     1       7.227  -0.874  26.359  0.00  0.00    +0.057 A 
ATOM      9  C   UNL     1       5.844  -0.774  26.158  0.00  0.00    +0.025 A 
ATOM     10  C   UNL     1       5.076   0.093  26.944  0.00  0.00    +0.002 A 
ATOM     11  C   UNL     1       5.685   0.881  27.919  0.00  0.00    +0.000 A 
ATOM     12  C   UNL     1       7.057   0.785  28.132  0.00  0.00    +0.002 A 
ATOM     13  C   UNL     1       7.821  -0.101  27.368  0.00  0.00    +0.025 A 
ENDBRANCH   4   8
BRANCH   5  14
ATOM     14  C   UNL     1       8.963  -0.098  23.754  0.00  0.00    +0.057 A 
ATOM     15  C   UNL     1      10.099   0.423  24.393  0.00  0.00    +0.025 A 
ATOM     16  C   UNL     1      10.698   1.618  23.972  0.00  0.00    +0.002 A 
ATOM     17  C   UNL     1      10.196   2.307  22.876  0.00  0.00    +0.000 A 
ATOM     18  C   UNL     1       9.085   1.809  22.213  0.00  0.00    +0.002 A 
ATOM     19  C   UNL     1       8.470   0.632  22.657  0.00  0.00    +0.025 A 
ENDBRANCH   5  14
BRANCH   1  20
ATOM     20  C   UNL     1       8.054  -4.967  24.004  0.00  0.00    +0.030 C 
BRANCH  20  21
ATOM     21  C   UNL     1       6.525  -4.879  23.878  0.00  0.00    +0.075 C 
BRANCH  21  23
ATOM     22  C   UNL     1       6.965  -5.810  21.528  0.00  0.00    +0.086 C 
ATOM     23  C   UNL     1       6.017  -5.104  22.467  0.00  0.00    +0.130 C 
ATOM     24  O   UNL     1       4.901  -4.744  22.095  0.00  0.00    -0.298 OA
ENDBRANCH  21  23
ENDBRANCH  20  21
ENDBRANCH   1  20
TORSDOF 5
ENDMDL
MODEL 4
REMARK VINA RESULT:      -6.2      2.389      4.696
REMARK  Name = 
REMARK  6 active torsions:
REMARK  status: ('A' for Active; 'I' for Inactive)
REMARK    1  A    between atoms: C_1  and  C_2
REMARK    2  A    between atoms: C_2  and  C_4
REMARK    3  A    between atoms: C_4  and  C_5
REMARK    4  A    between atoms: C_5  and  C_6
REMARK    5  A    between atoms: N_9  and  C_19
REMARK    6  A    between atoms: N_10  and  C_13
REMARK                            x       y       z     vdW  Elec       q    Type
REMARK                         _______ _______ _______ _____ _____    ______ ____
ROOT
ATOM      1  C   UNL     1       8.684   0.606  22.087  0.00  0.00    +0.165 C 
ATOM      2  C   UNL     1       7.650   0.838  23.155  0.00  0.00    +0.249 C 
ATOM      3  O   UNL     1       7.133   1.918  23.402  0.00  0.00    -0.273 OA
ATOM      4  N   UNL     1       7.427  -0.408  23.777  0.00  0.00    -0.180 N 
ATOM      5  N   UNL     1       8.362  -1.368  23.306  0.00  0.00    -0.180 N 
ATOM      6  C   UNL     1       9.270  -0.740  22.428  0.00  0.00    +0.249 C 
ATOM      7  O   UNL     1      10.273  -1.197  21.901  0.00  0.00    -0.273 OA
ENDROOT
BRANCH   4   8
ATOM      8  C   UNL     1       6.811  -0.457  25.059  0.00  0.00    +0.057 A 
ATOM      9  C   UNL     1       5.481  -0.865  25.228  0.00  0.00    +0.025 A 
ATOM     10  C   UNL     1       4.878  -0.802  26.489  0.00  0.00    +0.002 A 
ATOM     11  C   UNL     1       5.590  -0.313  27.584  0.00  0.00    +0.000 A 
ATOM     12  C   UNL     1       6.913   0.089  27.428  0.00  0.00    +0.002 A 
ATOM     13  C   UNL     1       7.526   0.000  26.175  0.00  0.00    +0.025 A 
ENDBRANCH   4   8
BRANCH   5  14
ATOM     14  C   UNL     1       8.088  -2.781  23.223  0.00  0.00    +0.057 A 
ATOM     15  C   UNL     1       8.567  -3.689  24.180  0.00  0.00    +0.025 A 
ATOM     16  C   UNL     1       8.277  -5.059  24.108  0.00  0.00    +0.002 A 
ATOM     17  C   UNL     1       7.468  -5.552  23.093  0.00  0.00    +0.000 A 
ATOM     18  C   UNL     1       6.966  -4.678  22.141  0.00  0.00    +0.002 A 
ATOM     19  C   UNL     1       7.285  -3.316  22.199  0.00  0.00    +0.025 A 
ENDBRANCH   5  14
BRANCH   1  20
ATOM     20  C   UNL     1       9.722   1.720  21.932  0.00  0.00    +0.030 C 
BRANCH  20  21
ATOM     21  C   UNL     1      10.488   1.997  23.235  0.00  0.00    +0.075 C 
BRANCH  21  23
ATOM     22  C   UNL     1       9.565   4.286  23.936  0.00  0.00    +0.086 C 
ATOM     23  C   UNL     1      10.751   3.470  23.483  0.00  0.00    +0.130 C 
ATOM     24  O   UNL     1      11.859   3.982  23.335  0.00  0.00    -0.298 OA
ENDBRANCH  21  23
ENDBRANCH  20  21
ENDBRANCH   1  20
TORSDOF 5
ENDMDL
MODEL 5
REMARK VINA RESULT:      -5.9      3.383      7.244
REMARK  Name = 
REMARK  6 active torsions:
REMARK  status: ('A' for Active; 'I' for Inactive)
REMARK    1  A    between atoms: C_1  and  C_2
REMARK    2  A    between atoms: C_2  and  C_4
REMARK    3  A    between atoms: C_4  and  C_5
REMARK    4  A    between atoms: C_5  and  C_6
REMARK    5  A    between atoms: N_9  and  C_19
REMARK    6  A    between atoms: N_10  and  C_13
REMARK                            x       y       z     vdW  Elec       q    Type
REMARK                         _______ _______ _______ _____ _____    ______ ____
ROOT
ATOM      1  C   UNL     1      10.272   0.488  23.912  0.00  0.00    +0.165 C 
ATOM      2  C   UNL     1       9.330   0.501  25.085  0.00  0.00    +0.249 C 
ATOM      3  O   UNL     1       9.331  -0.323  25.989  0.00  0.00    -0.273 OA
ATOM      4  N   UNL     1       8.487   1.618  24.913  0.00  0.00    -0.180 N 
ATOM      5  N   UNL     1       8.706   2.209  23.640  0.00  0.00    -0.180 N 
ATOM      6  C   UNL     1       9.639   1.432  22.922  0.00  0.00    +0.249 C 
ATOM      7  O   UNL     1      10.008   1.548  21.763  0.00  0.00    -0.273 OA
ENDROOT
BRANCH   4   8
ATOM      8  C   UNL     1       7.258   1.691  25.625  0.00  0.00    +0.057 A 
ATOM      9  C   UNL     1       7.116   2.467  26.784  0.00  0.00    +0.025 A 
ATOM     10  C   UNL     1       5.923   2.433  27.515  0.00  0.00    +0.002 A 
ATOM     11  C   UNL     1       4.873   1.611  27.108  0.00  0.00    +0.000 A 
ATOM     12  C   UNL     1       5.001   0.842  25.955  0.00  0.00    +0.002 A 
ATOM     13  C   UNL     1       6.181   0.896  25.208  0.00  0.00    +0.025 A 
ENDBRANCH   4   8
BRANCH   5  14
ATOM     14  C   UNL     1       8.522   3.612  23.364  0.00  0.00    +0.057 A 
ATOM     15  C   UNL     1       9.401   4.588  23.858  0.00  0.00    +0.025 A 
ATOM     16  C   UNL     1       9.232   5.949  23.566  0.00  0.00    +0.002 A 
ATOM     17  C   UNL     1       8.197   6.365  22.740  0.00  0.00    +0.000 A 
ATOM     18  C   UNL     1       7.321   5.424  22.222  0.00  0.00    +0.002 A 
ATOM     19  C   UNL     1       7.475   4.069  22.543  0.00  0.00    +0.025 A 
ENDBRANCH   5  14
BRANCH   1  20
ATOM     20  C   UNL     1      10.586  -0.897  23.343  0.00  0.00    +0.030 C 
BRANCH  20  21
ATOM     21  C   UNL     1       9.324  -1.652  22.898  0.00  0.00    +0.075 C 
BRANCH  21  23
ATOM     22  C   UNL     1       7.526  -3.009  24.126  0.00  0.00    +0.086 C 
ATOM     23  C   UNL     1       8.985  -2.840  23.777  0.00  0.00    +0.130 C 
ATOM     24  O   UNL     1       9.834  -3.631  24.184  0.00  0.00    -0.298 OA
ENDBRANCH  21  23
ENDBRANCH  20  21
ENDBRANCH   1  20
TORSDOF 5
ENDMDL
MODEL 6
REMARK VINA RESULT:      -5.8      1.861      2.479
REMARK  Name = 
REMARK  6 active torsions:
REMARK  status: ('A' for Active; 'I' for Inactive)
REMARK    1  A    between atoms: C_1  and  C_2
REMARK    2  A    between atoms: C_2  and  C_4
REMARK    3  A    between atoms: C_4  and  C_5
REMARK    4  A    between atoms: C_5  and  C_6
REMARK    5  A    between atoms: N_9  and  C_19
REMARK    6  A    between atoms: N_10  and  C_13
REMARK                            x       y       z     vdW  Elec       q    Type
REMARK                         _______ _______ _______ _____ _____    ______ ____
ROOT
ATOM      1  C   UNL     1       7.264  -0.241  24.203  0.00  0.00    +0.165 C 
ATOM      2  C   UNL     1       7.736  -1.491  23.511  0.00  0.00    +0.249 C 
ATOM      3  O   UNL     1       8.715  -1.557  22.781  0.00  0.00    -0.273 OA
ATOM      4  N   UNL     1       6.837  -2.516  23.872  0.00  0.00    -0.180 N 
ATOM      5  N   UNL     1       5.739  -1.976  24.594  0.00  0.00    -0.180 N 
ATOM      6  C   UNL     1       5.860  -0.572  24.641  0.00  0.00    +0.249 C 
ATOM      7  O   UNL     1       5.073   0.255  25.076  0.00  0.00    -0.273 OA
ENDROOT
BRANCH   4   8
ATOM      8  C   UNL     1       6.773  -3.706  23.095  0.00  0.00    +0.057 A 
ATOM      9  C   UNL     1       7.537  -4.838  23.406  0.00  0.00    +0.025 A 
ATOM     10  C   UNL     1       7.525  -5.953  22.559  0.00  0.00    +0.002 A 
ATOM     11  C   UNL     1       6.768  -5.937  21.388  0.00  0.00    +0.000 A 
ATOM     12  C   UNL     1       6.001  -4.819  21.074  0.00  0.00    +0.002 A 
ATOM     13  C   UNL     1       5.989  -3.716  21.932  0.00  0.00    +0.025 A 
ENDBRANCH   4   8
BRANCH   5  14
ATOM     14  C   UNL     1       5.003  -2.704  25.598  0.00  0.00    +0.057 A 
ATOM     15  C   UNL     1       5.462  -2.819  26.919  0.00  0.00    +0.025 A 
ATOM     16  C   UNL     1       4.730  -3.507  27.897  0.00  0.00    +0.002 A 
ATOM     17  C   UNL     1       3.498  -4.067  27.587  0.00  0.00    +0.000 A 
ATOM     18  C   UNL     1       3.009  -3.956  26.294  0.00  0.00    +0.002 A 
ATOM     19  C   UNL     1       3.759  -3.296  25.313  0.00  0.00    +0.025 A 
ENDBRANCH   5  14
BRANCH   1  20
ATOM     20  C   UNL     1       7.376   1.043  23.378  0.00  0.00    +0.030 C 
BRANCH  20  21
ATOM     21  C   UNL     1       8.401   2.028  23.960  0.00  0.00    +0.075 C 
BRANCH  21  23
ATOM     22  C   UNL     1      10.020   1.709  21.996  0.00  0.00    +0.086 C 
ATOM     23  C   UNL     1       9.821   1.776  23.490  0.00  0.00    +0.130 C 
ATOM     24  O   UNL     1      10.765   1.638  24.267  0.00  0.00    -0.298 OA
ENDBRANCH  21  23
ENDBRANCH  20  21
ENDBRANCH   1  20
TORSDOF 5
ENDMDL
MODEL 7
REMARK VINA RESULT:      -5.8      2.582      5.682
REMARK  Name = 
REMARK  6 active torsions:
REMARK  status: ('A' for Active; 'I' for Inactive)
REMARK    1  A    between atoms: C_1  and  C_2
REMARK    2  A    between atoms: C_2  and  C_4
REMARK    3  A    between atoms: C_4  and  C_5
REMARK    4  A    between atoms: C_5  and  C_6
REMARK    5  A    between atoms: N_9  and  C_19
REMARK    6  A    between atoms: N_10  and  C_13
REMARK                            x       y       z     vdW  Elec       q    Type
REMARK                         _______ _______ _______ _____ _____    ______ ____
ROOT
ATOM      1  C   UNL     1       6.990  -3.392  23.799  0.00  0.00    +0.165 C 
ATOM      2  C   UNL     1       7.808  -2.300  23.166  0.00  0.00    +0.249 C 
ATOM      3  O   UNL     1       8.336  -2.373  22.066  0.00  0.00    -0.273 OA
ATOM      4  N   UNL     1       7.830  -1.229  24.084  0.00  0.00    -0.180 N 
ATOM      5  N   UNL     1       7.241  -1.623  25.315  0.00  0.00    -0.180 N 
ATOM      6  C   UNL     1       6.900  -2.990  25.249  0.00  0.00    +0.249 C 
ATOM      7  O   UNL     1       6.471  -3.720  26.130  0.00  0.00    -0.273 OA
ENDROOT
BRANCH   4   8
ATOM      8  C   UNL     1       8.822  -0.216  23.963  0.00  0.00    +0.057 A 
ATOM      9  C   UNL     1      10.078  -0.329  24.574  0.00  0.00    +0.025 A 
ATOM     10  C   UNL     1      10.989   0.732  24.518  0.00  0.00    +0.002 A 
ATOM     11  C   UNL     1      10.645   1.919  23.873  0.00  0.00    +0.000 A 
ATOM     12  C   UNL     1       9.402   2.039  23.257  0.00  0.00    +0.002 A 
ATOM     13  C   UNL     1       8.502   0.970  23.287  0.00  0.00    +0.025 A 
ENDBRANCH   4   8
BRANCH   5  14
ATOM     14  C   UNL     1       6.556  -0.717  26.203  0.00  0.00    +0.057 A 
ATOM     15  C   UNL     1       5.187  -0.440  26.072  0.00  0.00    +0.025 A 
ATOM     16  C   UNL     1       4.521   0.423  26.954  0.00  0.00    +0.002 A 
ATOM     17  C   UNL     1       5.203   1.004  28.014  0.00  0.00    +0.000 A 
ATOM     18  C   UNL     1       6.553   0.737  28.181  0.00  0.00    +0.002 A 
ATOM     19  C   UNL     1       7.221  -0.100  27.279  0.00  0.00    +0.025 A 
ENDBRANCH   5  14
BRANCH   1  20
ATOM     20  C   UNL     1       7.513  -4.813  23.574  0.00  0.00    +0.030 C 
BRANCH  20  21
ATOM     21  C   UNL     1       6.600  -5.637  22.653  0.00  0.00    +0.075 C 
BRANCH  21  23
ATOM     22  C   UNL     1       4.879  -6.454  24.371  0.00  0.00    +0.086 C 
ATOM     23  C   UNL     1       5.154  -5.676  23.107  0.00  0.00    +0.130 C 
ATOM     24  O   UNL     1       4.249  -5.109  22.497  0.00  0.00    -0.298 OA
ENDBRANCH  21  23
ENDBRANCH  20  21
ENDBRANCH   1  20
TORSDOF 5
ENDMDL
MODEL 8
REMARK VINA RESULT:      -5.7      1.881      4.449
REMARK  Name = 
REMARK  6 active torsions:
REMARK  status: ('A' for Active; 'I' for Inactive)
REMARK    1  A    between atoms: C_1  and  C_2
REMARK    2  A    between atoms: C_2  and  C_4
REMARK    3  A    between atoms: C_4  and  C_5
REMARK    4  A    between atoms: C_5  and  C_6
REMARK    5  A    between atoms: N_9  and  C_19
REMARK    6  A    between atoms: N_10  and  C_13
REMARK                            x       y       z     vdW  Elec       q    Type
REMARK                         _______ _______ _______ _____ _____    ______ ____
ROOT
ATOM      1  C   UNL     1       6.998  -0.185  24.178  0.00  0.00    +0.165 C 
ATOM      2  C   UNL     1       5.752  -0.641  24.887  0.00  0.00    +0.249 C 
ATOM      3  O   UNL     1       4.997   0.091  25.510  0.00  0.00    -0.273 OA
ATOM      4  N   UNL     1       5.659  -2.033  24.684  0.00  0.00    -0.180 N 
ATOM      5  N   UNL     1       6.836  -2.519  24.053  0.00  0.00    -0.180 N 
ATOM      6  C   UNL     1       7.757  -1.460  23.911  0.00  0.00    +0.249 C 
ATOM      7  O   UNL     1       8.912  -1.492  23.516  0.00  0.00    -0.273 OA
ENDROOT
BRANCH   4   8
ATOM      8  C   UNL     1       4.828  -2.817  25.532  0.00  0.00    +0.057 A 
ATOM      9  C   UNL     1       5.223  -3.184  26.825  0.00  0.00    +0.025 A 
ATOM     10  C   UNL     1       4.424  -4.040  27.592  0.00  0.00    +0.002 A 
ATOM     11  C   UNL     1       3.239  -4.553  27.066  0.00  0.00    +0.000 A 
ATOM     12  C   UNL     1       2.835  -4.189  25.784  0.00  0.00    +0.002 A 
ATOM     13  C   UNL     1       3.616  -3.312  25.028  0.00  0.00    +0.025 A 
ENDBRANCH   4   8
BRANCH   5  14
ATOM     14  C   UNL     1       6.864  -3.664  23.178  0.00  0.00    +0.057 A 
ATOM     15  C   UNL     1       7.623  -4.807  23.472  0.00  0.00    +0.025 A 
ATOM     16  C   UNL     1       7.627  -5.927  22.629  0.00  0.00    +0.002 A 
ATOM     17  C   UNL     1       6.840  -5.947  21.486  0.00  0.00    +0.000 A 
ATOM     18  C   UNL     1       6.065  -4.840  21.175  0.00  0.00    +0.002 A 
ATOM     19  C   UNL     1       6.090  -3.710  22.003  0.00  0.00    +0.025 A 
ENDBRANCH   5  14
BRANCH   1  20
ATOM     20  C   UNL     1       7.810   0.886  24.909  0.00  0.00    +0.030 C 
BRANCH  20  21
ATOM     21  C   UNL     1       8.339   1.973  23.961  0.00  0.00    +0.075 C 
BRANCH  21  23
ATOM     22  C   UNL     1       9.963   1.683  21.997  0.00  0.00    +0.086 C 
ATOM     23  C   UNL     1       9.761   1.732  23.492  0.00  0.00    +0.130 C 
ATOM     24  O   UNL     1      10.703   1.588  24.269  0.00  0.00    -0.298 OA
ENDBRANCH  21  23
ENDBRANCH  20  21
ENDBRANCH   1  20
TORSDOF 5
ENDMDL
MODEL 9
REMARK VINA RESULT:      -5.7      2.425      6.547
REMARK  Name = 
REMARK  6 active torsions:
REMARK  status: ('A' for Active; 'I' for Inactive)
REMARK    1  A    between atoms: C_1  and  C_2
REMARK    2  A    between atoms: C_2  and  C_4
REMARK    3  A    between atoms: C_4  and  C_5
REMARK    4  A    between atoms: C_5  and  C_6
REMARK    5  A    between atoms: N_9  and  C_19
REMARK    6  A    between atoms: N_10  and  C_13
REMARK                            x       y       z     vdW  Elec       q    Type
REMARK                         _______ _______ _______ _____ _____    ______ ____
ROOT
ATOM      1  C   UNL     1       8.526  -3.743  24.343  0.00  0.00    +0.165 C 
ATOM      2  C   UNL     1       8.253  -3.008  25.627  0.00  0.00    +0.249 C 
ATOM      3  O   UNL     1       8.338  -3.499  26.743  0.00  0.00    -0.273 OA
ATOM      4  N   UNL     1       7.893  -1.692  25.269  0.00  0.00    -0.180 N 
ATOM      5  N   UNL     1       7.747  -1.587  23.860  0.00  0.00    -0.180 N 
ATOM      6  C   UNL     1       7.927  -2.859  23.279  0.00  0.00    +0.249 C 
ATOM      7  O   UNL     1       7.780  -3.202  22.116  0.00  0.00    -0.273 OA
ENDROOT
BRANCH   4   8
ATOM      8  C   UNL     1       7.208  -0.868  26.206  0.00  0.00    +0.057 A 
ATOM      9  C   UNL     1       7.890  -0.003  27.071  0.00  0.00    +0.025 A 
ATOM     10  C   UNL     1       7.190   0.715  28.048  0.00  0.00    +0.002 A 
ATOM     11  C   UNL     1       5.811   0.558  28.182  0.00  0.00    +0.000 A 
ATOM     12  C   UNL     1       5.124  -0.294  27.322  0.00  0.00    +0.002 A 
ATOM     13  C   UNL     1       5.816  -0.990  26.328  0.00  0.00    +0.025 A 
ENDBRANCH   4   8
BRANCH   5  14
ATOM     14  C   UNL     1       7.992  -0.376  23.116  0.00  0.00    +0.057 A 
ATOM     15  C   UNL     1       6.977   0.557  22.859  0.00  0.00    +0.025 A 
ATOM     16  C   UNL     1       7.226   1.745  22.156  0.00  0.00    +0.002 A 
ATOM     17  C   UNL     1       8.510   2.045  21.721  0.00  0.00    +0.000 A 
ATOM     18  C   UNL     1       9.539   1.150  21.973  0.00  0.00    +0.002 A 
ATOM     19  C   UNL     1       9.278  -0.049  22.648  0.00  0.00    +0.025 A 
ENDBRANCH   5  14
BRANCH   1  20
ATOM     20  C   UNL     1       8.035  -5.191  24.304  0.00  0.00    +0.030 C 
BRANCH  20  21
ATOM     21  C   UNL     1       6.505  -5.292  24.215  0.00  0.00    +0.075 C 
BRANCH  21  23
ATOM     22  C   UNL     1       4.697  -4.508  25.858  0.00  0.00    +0.086 C 
ATOM     23  C   UNL     1       5.828  -5.463  25.561  0.00  0.00    +0.130 C 
ATOM     24  O   UNL     1       6.164  -6.326  26.370  0.00  0.00    -0.298 OA
ENDBRANCH  21  23
ENDBRANCH  20  21
ENDBRANCH   1  20
TORSDOF 5
ENDMDL
