MODEL 1
REMARK VINA RESULT:      -6.8      0.000      0.000
REMARK  Name = 
REMARK  6 active torsions:
REMARK  status: ('A' for Active; 'I' for Inactive)
REMARK    1  A    between atoms: O_1  and  C_2
REMARK    2  A    between atoms: C_2  and  C_4
REMARK    3  A    between atoms: C_9  and  O_10
REMARK    4  A    between atoms: O_10  and  C_11
REMARK    5  A    between atoms: C_11  and  C_13
REMARK    6  A    between atoms: C_18  and  O_19
REMARK                            x       y       z     vdW  Elec       q    Type
REMARK                         _______ _______ _______ _____ _____    ______ ____
ROOT
ATOM      1  O   UNL     1       8.678  -2.394  24.232  0.00  0.00    -0.421 OA
ENDROOT
BRANCH   1   3
ATOM      2  C   UNL     1       7.867  -4.641  23.860  0.00  0.00    +0.101 A 
ATOM      3  C   UNL     1       7.817  -3.276  23.554  0.00  0.00    +0.146 A 
ATOM      4  C   UNL     1       7.043  -2.820  22.478  0.00  0.00    +0.047 A 
ATOM      5  C   UNL     1       6.291  -3.721  21.725  0.00  0.00    +0.004 A 
ATOM      6  C   UNL     1       6.329  -5.080  22.026  0.00  0.00    +0.001 A 
ATOM      7  C   UNL     1       7.117  -5.540  23.084  0.00  0.00    +0.018 A 
BRANCH   2   8
ATOM      8  C   UNL     1       8.706  -5.223  24.941  0.00  0.00    +0.340 C 
ATOM      9  O   UNL     1       8.228  -5.656  25.977  0.00  0.00    -0.245 OA
BRANCH   8  10
ATOM     10  O   UNL     1      10.034  -5.154  24.721  0.00  0.00    -0.477 OA
ATOM     11  H   UNL     1      10.429  -5.982  24.385  0.00  0.00    +0.295 HD
ENDBRANCH   8  10
ENDBRANCH   2   8
ENDBRANCH   1   3
BRANCH   1  12
ATOM     12  C   UNL     1       9.802  -1.963  23.550  0.00  0.00    +0.348 C 
ATOM     13  O   UNL     1      10.754  -2.670  23.254  0.00  0.00    -0.244 OA
BRANCH  12  14
ATOM     14  C   UNL     1       9.777  -0.484  23.406  0.00  0.00    +0.101 A 
ATOM     15  C   UNL     1       9.884   0.403  24.484  0.00  0.00    +0.131 A 
ATOM     16  C   UNL     1      10.033   1.772  24.257  0.00  0.00    +0.046 A 
ATOM     17  C   UNL     1      10.058   2.264  22.951  0.00  0.00    +0.004 A 
ATOM     18  C   UNL     1       9.902   1.395  21.872  0.00  0.00    +0.001 A 
ATOM     19  C   UNL     1       9.756   0.026  22.097  0.00  0.00    +0.018 A 
BRANCH  15  20
ATOM     20  O   UNL     1       9.837  -0.057  25.768  0.00  0.00    -0.506 OA
ATOM     21  H   UNL     1       8.941   0.053  26.130  0.00  0.00    +0.292 HD
ENDBRANCH  15  20
ENDBRANCH  12  14
ENDBRANCH   1  12
TORSDOF 6
ENDMDL
MODEL 2
REMARK VINA RESULT:      -6.6      0.867      1.651
REMARK  Name = 
REMARK  6 active torsions:
REMARK  status: ('A' for Active; 'I' for Inactive)
REMARK    1  A    between atoms: O_1  and  C_2
REMARK    2  A    between atoms: C_2  and  C_4
REMARK    3  A    between atoms: C_9  and  O_10
REMARK    4  A    between atoms: O_10  and  C_11
REMARK    5  A    between atoms: C_11  and  C_13
REMARK    6  A    between atoms: C_18  and  O_19
REMARK                            x       y       z     vdW  Elec       q    Type
REMARK                         _______ _______ _______ _____ _____    ______ ____
ROOT
ATOM      1  O   UNL     1       8.721  -2.397  24.560  0.00  0.00    -0.421 OA
ENDROOT
BRANCH   1   3
ATOM      2  C   UNL     1       7.485  -4.449  24.230  0.00  0.00    +0.101 A 
ATOM      3  C   UNL     1       7.624  -3.076  23.996  0.00  0.00    +0.146 A 
ATOM      4  C   UNL     1       6.783  -2.425  23.083  0.00  0.00    +0.047 A 
ATOM      5  C   UNL     1       5.779  -3.136  22.428  0.00  0.00    +0.004 A 
ATOM      6  C   UNL     1       5.628  -4.500  22.660  0.00  0.00    +0.001 A 
ATOM      7  C   UNL     1       6.479  -5.156  23.552  0.00  0.00    +0.018 A 
BRANCH   2   8
ATOM      8  C   UNL     1       8.369  -5.236  25.132  0.00  0.00    +0.340 C 
ATOM      9  O   UNL     1       8.007  -5.614  26.234  0.00  0.00    -0.245 OA
BRANCH   8  10
ATOM     10  O   UNL     1       9.622  -5.419  24.671  0.00  0.00    -0.477 OA
ATOM     11  H   UNL     1       9.672  -5.906  23.826  0.00  0.00    +0.295 HD
ENDBRANCH   8  10
ENDBRANCH   2   8
ENDBRANCH   1   3
BRANCH   1  12
ATOM     12  C   UNL     1       9.810  -2.170  23.738  0.00  0.00    +0.348 C 
ATOM     13  O   UNL     1      10.632  -3.015  23.416  0.00  0.00    -0.244 OA
BRANCH  12  14
ATOM     14  C   UNL     1       9.951  -0.715  23.466  0.00  0.00    +0.101 A 
ATOM     15  C   UNL     1       9.852  -0.150  22.189  0.00  0.00    +0.131 A 
ATOM     16  C   UNL     1       9.816   1.237  22.033  0.00  0.00    +0.046 A 
ATOM     17  C   UNL     1       9.897   2.066  23.153  0.00  0.00    +0.004 A 
ATOM     18  C   UNL     1      10.046   1.515  24.424  0.00  0.00    +0.001 A 
ATOM     19  C   UNL     1      10.079   0.129  24.583  0.00  0.00    +0.018 A 
BRANCH  15  20
ATOM     20  O   UNL     1       9.797  -0.945  21.081  0.00  0.00    -0.506 OA
ATOM     21  H   UNL     1       9.815  -1.882  21.341  0.00  0.00    +0.292 HD
ENDBRANCH  15  20
ENDBRANCH  12  14
ENDBRANCH   1  12
TORSDOF 6
ENDMDL
MODEL 3
REMARK VINA RESULT:      -6.2      1.629      3.113
REMARK  Name = 
REMARK  6 active torsions:
REMARK  status: ('A' for Active; 'I' for Inactive)
REMARK    1  A    between atoms: O_1  and  C_2
REMARK    2  A    between atoms: C_2  and  C_4
REMARK    3  A    between atoms: C_9  and  O_10
REMARK    4  A    between atoms: O_10  and  C_11
REMARK    5  A    between atoms: C_11  and  C_13
REMARK    6  A    between atoms: C_18  and  O_19
REMARK                            x       y       z     vdW  Elec       q    Type
REMARK                         _______ _______ _______ _____ _____    ______ ____
ROOT
ATOM      1  O   UNL     1       8.786  -1.984  24.984  0.00  0.00    -0.421 OA
ENDROOT
BRANCH   1   3
ATOM      2  C   UNL     1       6.993  -3.457  24.305  0.00  0.00    +0.101 A 
ATOM      3  C   UNL     1       8.047  -3.166  25.179  0.00  0.00    +0.146 A 
ATOM      4  C   UNL     1       8.256  -3.949  26.323  0.00  0.00    +0.047 A 
ATOM      5  C   UNL     1       7.433  -5.046  26.579  0.00  0.00    +0.004 A 
ATOM      6  C   UNL     1       6.387  -5.347  25.711  0.00  0.00    +0.001 A 
ATOM      7  C   UNL     1       6.163  -4.554  24.583  0.00  0.00    +0.018 A 
BRANCH   2   8
ATOM      8  C   UNL     1       6.658  -2.647  23.103  0.00  0.00    +0.340 C 
ATOM      9  O   UNL     1       6.966  -2.994  21.975  0.00  0.00    -0.245 OA
BRANCH   8  10
ATOM     10  O   UNL     1       6.068  -1.464  23.369  0.00  0.00    -0.477 OA
ATOM     11  H   UNL     1       5.282  -1.276  22.821  0.00  0.00    +0.295 HD
ENDBRANCH   8  10
ENDBRANCH   2   8
ENDBRANCH   1   3
BRANCH   1  12
ATOM     12  C   UNL     1       9.758  -2.005  24.001  0.00  0.00    +0.348 C 
ATOM     13  O   UNL     1      10.437  -2.978  23.708  0.00  0.00    -0.244 OA
BRANCH  12  14
ATOM     14  C   UNL     1      10.000  -0.629  23.491  0.00  0.00    +0.101 A 
ATOM     15  C   UNL     1       9.750  -0.234  22.171  0.00  0.00    +0.131 A 
ATOM     16  C   UNL     1       9.830   1.112  21.811  0.00  0.00    +0.046 A 
ATOM     17  C   UNL     1      10.177   2.069  22.766  0.00  0.00    +0.004 A 
ATOM     18  C   UNL     1      10.476   1.681  24.071  0.00  0.00    +0.001 A 
ATOM     19  C   UNL     1      10.394   0.336  24.433  0.00  0.00    +0.018 A 
BRANCH  15  20
ATOM     20  O   UNL     1       9.434  -1.160  21.219  0.00  0.00    -0.506 OA
ATOM     21  H   UNL     1       8.471  -1.184  21.084  0.00  0.00    +0.292 HD
ENDBRANCH  15  20
ENDBRANCH  12  14
ENDBRANCH   1  12
TORSDOF 6
ENDMDL
MODEL 4
REMARK VINA RESULT:      -6.0      1.852      2.824
REMARK  Name = 
REMARK  6 active torsions:
REMARK  status: ('A' for Active; 'I' for Inactive)
REMARK    1  A    between atoms: O_1  and  C_2
REMARK    2  A    between atoms: C_2  and  C_4
REMARK    3  A    between atoms: C_9  and  O_10
REMARK    4  A    between atoms: O_10  and  C_11
REMARK    5  A    between atoms: C_11  and  C_13
REMARK    6  A    between atoms: C_18  and  O_19
REMARK                            x       y       z     vdW  Elec       q    Type
REMARK                         _______ _______ _______ _____ _____    ______ ____
ROOT
ATOM      1  O   UNL     1       8.140  -4.159  23.411  0.00  0.00    -0.421 OA
ENDROOT
BRANCH   1   3
ATOM      2  C   UNL     1       7.431  -5.151  25.500  0.00  0.00    +0.101 A 
ATOM      3  C   UNL     1       7.111  -4.668  24.225  0.00  0.00    +0.146 A 
ATOM      4  C   UNL     1       5.820  -4.842  23.706  0.00  0.00    +0.047 A 
ATOM      5  C   UNL     1       4.837  -5.467  24.471  0.00  0.00    +0.004 A 
ATOM      6  C   UNL     1       5.144  -5.943  25.743  0.00  0.00    +0.001 A 
ATOM      7  C   UNL     1       6.436  -5.793  26.253  0.00  0.00    +0.018 A 
BRANCH   2   8
ATOM      8  C   UNL     1       8.787  -5.068  26.106  0.00  0.00    +0.340 C 
ATOM      9  O   UNL     1       9.054  -4.286  27.004  0.00  0.00    -0.245 OA
BRANCH   8  10
ATOM     10  O   UNL     1       9.711  -5.862  25.528  0.00  0.00    -0.477 OA
ATOM     11  H   UNL     1      10.090  -5.501  24.704  0.00  0.00    +0.295 HD
ENDBRANCH   8  10
ENDBRANCH   2   8
ENDBRANCH   1   3
BRANCH   1  12
ATOM     12  C   UNL     1       7.951  -2.900  22.872  0.00  0.00    +0.348 C 
ATOM     13  O   UNL     1       7.267  -2.656  21.889  0.00  0.00    -0.244 OA
BRANCH  12  14
ATOM     14  C   UNL     1       8.854  -1.920  23.530  0.00  0.00    +0.101 A 
ATOM     15  C   UNL     1       9.894  -1.256  22.869  0.00  0.00    +0.131 A 
ATOM     16  C   UNL     1      10.584  -0.221  23.502  0.00  0.00    +0.046 A 
ATOM     17  C   UNL     1      10.250   0.144  24.807  0.00  0.00    +0.004 A 
ATOM     18  C   UNL     1       9.250  -0.544  25.493  0.00  0.00    +0.001 A 
ATOM     19  C   UNL     1       8.557  -1.577  24.860  0.00  0.00    +0.018 A 
BRANCH  15  20
ATOM     20  O   UNL     1      10.252  -1.615  21.601  0.00  0.00    -0.506 OA
ATOM     21  H   UNL     1      11.180  -1.377  21.435  0.00  0.00    +0.292 HD
ENDBRANCH  15  20
ENDBRANCH  12  14
ENDBRANCH   1  12
TORSDOF 6
ENDMDL
MODEL 5
REMARK VINA RESULT:      -6.0      1.966      5.832
REMARK  Name = 
REMARK  6 active torsions:
REMARK  status: ('A' for Active; 'I' for Inactive)
REMARK    1  A    between atoms: O_1  and  C_2
REMARK    2  A    between atoms: C_2  and  C_4
REMARK    3  A    between atoms: C_9  and  O_10
REMARK    4  A    between atoms: O_10  and  C_11
REMARK    5  A    between atoms: C_11  and  C_13
REMARK    6  A    between atoms: C_18  and  O_19
REMARK                            x       y       z     vdW  Elec       q    Type
REMARK                         _______ _______ _______ _____ _____    ______ ____
ROOT
ATOM      1  O   UNL     1       8.207  -2.623  23.669  0.00  0.00    -0.421 OA
ENDROOT
BRANCH   1   3
ATOM      2  C   UNL     1       9.051  -0.389  23.290  0.00  0.00    +0.101 A 
ATOM      3  C   UNL     1       8.320  -1.283  24.082  0.00  0.00    +0.146 A 
ATOM      4  C   UNL     1       7.853  -0.890  25.344  0.00  0.00    +0.047 A 
ATOM      5  C   UNL     1       8.083   0.406  25.804  0.00  0.00    +0.004 A 
ATOM      6  C   UNL     1       8.802   1.304  25.019  0.00  0.00    +0.001 A 
ATOM      7  C   UNL     1       9.289   0.908  23.771  0.00  0.00    +0.018 A 
BRANCH   2   8
ATOM      8  C   UNL     1       9.639  -0.736  21.968  0.00  0.00    +0.340 C 
ATOM      9  O   UNL     1       9.298  -0.180  20.936  0.00  0.00    -0.245 OA
BRANCH   8  10
ATOM     10  O   UNL     1      10.509  -1.765  21.992  0.00  0.00    -0.477 OA
ATOM     11  H   UNL     1      10.285  -2.493  21.381  0.00  0.00    +0.295 HD
ENDBRANCH   8  10
ENDBRANCH   2   8
ENDBRANCH   1   3
BRANCH   1  12
ATOM     12  C   UNL     1       8.910  -3.567  24.397  0.00  0.00    +0.348 C 
ATOM     13  O   UNL     1      10.112  -3.767  24.306  0.00  0.00    -0.244 OA
BRANCH  12  14
ATOM     14  C   UNL     1       7.969  -4.435  25.152  0.00  0.00    +0.101 A 
ATOM     15  C   UNL     1       8.211  -4.898  26.451  0.00  0.00    +0.131 A 
ATOM     16  C   UNL     1       7.208  -5.558  27.163  0.00  0.00    +0.046 A 
ATOM     17  C   UNL     1       5.962  -5.774  26.573  0.00  0.00    +0.004 A 
ATOM     18  C   UNL     1       5.726  -5.362  25.262  0.00  0.00    +0.001 A 
ATOM     19  C   UNL     1       6.727  -4.699  24.550  0.00  0.00    +0.018 A 
BRANCH  15  20
ATOM     20  O   UNL     1       9.432  -4.717  27.036  0.00  0.00    -0.506 OA
ATOM     21  H   UNL     1       9.753  -3.814  26.867  0.00  0.00    +0.292 HD
ENDBRANCH  15  20
ENDBRANCH  12  14
ENDBRANCH   1  12
TORSDOF 6
ENDMDL
MODEL 6
REMARK VINA RESULT:      -5.9      2.567      3.220
REMARK  Name = 
REMARK  6 active torsions:
REMARK  status: ('A' for Active; 'I' for Inactive)
REMARK    1  A    between atoms: O_1  and  C_2
REMARK    2  A    between atoms: C_2  and  C_4
REMARK    3  A    between atoms: C_9  and  O_10
REMARK    4  A    between atoms: O_10  and  C_11
REMARK    5  A    between atoms: C_11  and  C_13
REMARK    6  A    between atoms: C_18  and  O_19
REMARK                            x       y       z     vdW  Elec       q    Type
REMARK                         _______ _______ _______ _____ _____    ______ ____
ROOT
ATOM      1  O   UNL     1       6.607  -2.782  22.168  0.00  0.00    -0.421 OA
ENDROOT
BRANCH   1   3
ATOM      2  C   UNL     1       5.550  -4.929  22.514  0.00  0.00    +0.101 A 
ATOM      3  C   UNL     1       5.729  -3.598  22.906  0.00  0.00    +0.146 A 
ATOM      4  C   UNL     1       4.925  -3.042  23.911  0.00  0.00    +0.047 A 
ATOM      5  C   UNL     1       3.964  -3.823  24.550  0.00  0.00    +0.004 A 
ATOM      6  C   UNL     1       3.784  -5.151  24.172  0.00  0.00    +0.001 A 
ATOM      7  C   UNL     1       4.568  -5.701  23.155  0.00  0.00    +0.018 A 
BRANCH   2   8
ATOM      8  C   UNL     1       6.312  -5.585  21.418  0.00  0.00    +0.340 C 
ATOM      9  O   UNL     1       5.792  -5.902  20.360  0.00  0.00    -0.245 OA
BRANCH   8  10
ATOM     10  O   UNL     1       7.593  -5.877  21.719  0.00  0.00    -0.477 OA
ATOM     11  H   UNL     1       8.209  -5.125  21.624  0.00  0.00    +0.295 HD
ENDBRANCH   8  10
ENDBRANCH   2   8
ENDBRANCH   1   3
BRANCH   1  12
ATOM     12  C   UNL     1       7.850  -2.534  22.721  0.00  0.00    +0.348 C 
ATOM     13  O   UNL     1       8.482  -3.325  23.405  0.00  0.00    -0.244 OA
BRANCH  12  14
ATOM     14  C   UNL     1       8.217  -1.106  22.535  0.00  0.00    +0.101 A 
ATOM     15  C   UNL     1       9.403  -0.681  21.923  0.00  0.00    +0.131 A 
ATOM     16  C   UNL     1       9.597   0.668  21.622  0.00  0.00    +0.046 A 
ATOM     17  C   UNL     1       8.613   1.603  21.948  0.00  0.00    +0.004 A 
ATOM     18  C   UNL     1       7.451   1.198  22.602  0.00  0.00    +0.001 A 
ATOM     19  C   UNL     1       7.254  -0.150  22.900  0.00  0.00    +0.018 A 
BRANCH  15  20
ATOM     20  O   UNL     1      10.386  -1.578  21.619  0.00  0.00    -0.506 OA
ATOM     21  H   UNL     1      11.207  -1.345  22.086  0.00  0.00    +0.292 HD
ENDBRANCH  15  20
ENDBRANCH  12  14
ENDBRANCH   1  12
TORSDOF 6
ENDMDL
MODEL 7
REMARK VINA RESULT:      -5.8      1.533      5.574
REMARK  Name = 
REMARK  6 active torsions:
REMARK  status: ('A' for Active; 'I' for Inactive)
REMARK    1  A    between atoms: O_1  and  C_2
REMARK    2  A    between atoms: C_2  and  C_4
REMARK    3  A    between atoms: C_9  and  O_10
REMARK    4  A    between atoms: O_10  and  C_11
REMARK    5  A    between atoms: C_11  and  C_13
REMARK    6  A    between atoms: C_18  and  O_19
REMARK                            x       y       z     vdW  Elec       q    Type
REMARK                         _______ _______ _______ _____ _____    ______ ____
ROOT
ATOM      1  O   UNL     1       7.204  -0.742  22.649  0.00  0.00    -0.421 OA
ENDROOT
BRANCH   1   3
ATOM      2  C   UNL     1       9.530  -0.338  23.173  0.00  0.00    +0.101 A 
ATOM      3  C   UNL     1       8.195   0.083  23.211  0.00  0.00    +0.146 A 
ATOM      4  C   UNL     1       7.834   1.224  23.943  0.00  0.00    +0.047 A 
ATOM      5  C   UNL     1       8.809   1.965  24.609  0.00  0.00    +0.004 A 
ATOM      6  C   UNL     1      10.140   1.558  24.570  0.00  0.00    +0.001 A 
ATOM      7  C   UNL     1      10.499   0.408  23.861  0.00  0.00    +0.018 A 
BRANCH   2   8
ATOM      8  C   UNL     1       9.996  -1.568  22.477  0.00  0.00    +0.340 C 
ATOM      9  O   UNL     1      10.634  -2.438  23.046  0.00  0.00    -0.245 OA
BRANCH   8  10
ATOM     10  O   UNL     1       9.732  -1.600  21.155  0.00  0.00    -0.477 OA
ATOM     11  H   UNL     1       8.819  -1.345  20.922  0.00  0.00    +0.295 HD
ENDBRANCH   8  10
ENDBRANCH   2   8
ENDBRANCH   1   3
BRANCH   1  12
ATOM     12  C   UNL     1       6.577  -1.639  23.495  0.00  0.00    +0.348 C 
ATOM     13  O   UNL     1       6.042  -1.345  24.553  0.00  0.00    -0.244 OA
BRANCH  12  14
ATOM     14  C   UNL     1       6.822  -3.031  23.036  0.00  0.00    +0.101 A 
ATOM     15  C   UNL     1       7.594  -3.958  23.747  0.00  0.00    +0.131 A 
ATOM     16  C   UNL     1       7.633  -5.296  23.348  0.00  0.00    +0.046 A 
ATOM     17  C   UNL     1       6.914  -5.709  22.225  0.00  0.00    +0.004 A 
ATOM     18  C   UNL     1       6.183  -4.785  21.482  0.00  0.00    +0.001 A 
ATOM     19  C   UNL     1       6.140  -3.448  21.881  0.00  0.00    +0.018 A 
BRANCH  15  20
ATOM     20  O   UNL     1       8.323  -3.567  24.833  0.00  0.00    -0.506 OA
ATOM     21  H   UNL     1       7.947  -2.755  25.213  0.00  0.00    +0.292 HD
ENDBRANCH  15  20
ENDBRANCH  12  14
ENDBRANCH   1  12
TORSDOF 6
ENDMDL
MODEL 8
REMARK VINA RESULT:      -5.7      2.490      3.722
REMARK  Name = 
REMARK  6 active torsions:
REMARK  status: ('A' for Active; 'I' for Inactive)
REMARK    1  A    between atoms: O_1  and  C_2
REMARK    2  A    between atoms: C_2  and  C_4
REMARK    3  A    between atoms: C_9  and  O_10
REMARK    4  A    between atoms: O_10  and  C_11
REMARK    5  A    between atoms: C_11  and  C_13
REMARK    6  A    between atoms: C_18  and  O_19
REMARK                            x       y       z     vdW  Elec       q    Type
REMARK                         _______ _______ _______ _____ _____    ______ ____
ROOT
ATOM      1  O   UNL     1       7.037  -3.736  24.192  0.00  0.00    -0.421 OA
ENDROOT
BRANCH   1   3
ATOM      2  C   UNL     1       5.606  -5.583  23.572  0.00  0.00    +0.101 A 
ATOM      3  C   UNL     1       6.296  -4.874  24.562  0.00  0.00    +0.146 A 
ATOM      4  C   UNL     1       6.118  -5.192  25.915  0.00  0.00    +0.047 A 
ATOM      5  C   UNL     1       5.276  -6.241  26.282  0.00  0.00    +0.004 A 
ATOM      6  C   UNL     1       4.591  -6.958  25.305  0.00  0.00    +0.001 A 
ATOM      7  C   UNL     1       4.749  -6.627  23.956  0.00  0.00    +0.018 A 
BRANCH   2   8
ATOM      8  C   UNL     1       5.684  -5.277  22.118  0.00  0.00    +0.340 C 
ATOM      9  O   UNL     1       6.125  -6.074  21.306  0.00  0.00    -0.245 OA
BRANCH   8  10
ATOM     10  O   UNL     1       5.310  -4.025  21.787  0.00  0.00    -0.477 OA
ATOM     11  H   UNL     1       5.937  -3.331  22.068  0.00  0.00    +0.295 HD
ENDBRANCH   8  10
ENDBRANCH   2   8
ENDBRANCH   1   3
BRANCH   1  12
ATOM     12  C   UNL     1       8.415  -3.836  24.253  0.00  0.00    +0.348 C 
ATOM     13  O   UNL     1       9.045  -4.879  24.170  0.00  0.00    -0.244 OA
BRANCH  12  14
ATOM     14  C   UNL     1       9.007  -2.526  24.633  0.00  0.00    +0.101 A 
ATOM     15  C   UNL     1       9.911  -1.820  23.830  0.00  0.00    +0.131 A 
ATOM     16  C   UNL     1      10.285  -0.518  24.168  0.00  0.00    +0.046 A 
ATOM     17  C   UNL     1       9.770   0.079  25.320  0.00  0.00    +0.004 A 
ATOM     18  C   UNL     1       8.907  -0.633  26.152  0.00  0.00    +0.001 A 
ATOM     19  C   UNL     1       8.530  -1.934  25.815  0.00  0.00    +0.018 A 
BRANCH  15  20
ATOM     20  O   UNL     1      10.444  -2.396  22.713  0.00  0.00    -0.506 OA
ATOM     21  H   UNL     1      11.140  -1.826  22.343  0.00  0.00    +0.292 HD
ENDBRANCH  15  20
ENDBRANCH  12  14
ENDBRANCH   1  12
TORSDOF 6
ENDMDL
MODEL 9
REMARK VINA RESULT:      -5.7      1.619      2.580
REMARK  Name = 
REMARK  6 active torsions:
REMARK  status: ('A' for Active; 'I' for Inactive)
REMARK    1  A    between atoms: O_1  and  C_2
REMARK    2  A    between atoms: C_2  and  C_4
REMARK    3  A    between atoms: C_9  and  O_10
REMARK    4  A    between atoms: O_10  and  C_11
REMARK    5  A    between atoms: C_11  and  C_13
REMARK    6  A    between atoms: C_18  and  O_19
REMARK                            x       y       z     vdW  Elec       q    Type
REMARK                         _______ _______ _______ _____ _____    ______ ____
ROOT
ATOM      1  O   UNL     1       8.096  -1.969  24.081  0.00  0.00    -0.421 OA
ENDROOT
BRANCH   1   3
ATOM      2  C   UNL     1       6.922  -4.071  24.297  0.00  0.00    +0.101 A 
ATOM      3  C   UNL     1       7.892  -3.180  24.769  0.00  0.00    +0.146 A 
ATOM      4  C   UNL     1       8.529  -3.411  25.996  0.00  0.00    +0.047 A 
ATOM      5  C   UNL     1       8.225  -4.552  26.738  0.00  0.00    +0.004 A 
ATOM      6  C   UNL     1       7.266  -5.449  26.272  0.00  0.00    +0.001 A 
ATOM      7  C   UNL     1       6.613  -5.208  25.062  0.00  0.00    +0.018 A 
BRANCH   2   8
ATOM      8  C   UNL     1       6.150  -3.876  23.040  0.00  0.00    +0.340 C 
ATOM      9  O   UNL     1       4.934  -3.968  23.000  0.00  0.00    -0.245 OA
BRANCH   8  10
ATOM     10  O   UNL     1       6.905  -3.674  21.942  0.00  0.00    -0.477 OA
ATOM     11  H   UNL     1       6.701  -2.850  21.460  0.00  0.00    +0.295 HD
ENDBRANCH   8  10
ENDBRANCH   2   8
ENDBRANCH   1   3
BRANCH   1  12
ATOM     12  C   UNL     1       9.355  -1.750  23.552  0.00  0.00    +0.348 C 
ATOM     13  O   UNL     1      10.201  -2.615  23.379  0.00  0.00    -0.244 OA
BRANCH  12  14
ATOM     14  C   UNL     1       9.606  -0.292  23.413  0.00  0.00    +0.101 A 
ATOM     15  C   UNL     1       9.939   0.545  24.486  0.00  0.00    +0.131 A 
ATOM     16  C   UNL     1      10.334   1.864  24.254  0.00  0.00    +0.046 A 
ATOM     17  C   UNL     1      10.382   2.358  22.950  0.00  0.00    +0.004 A 
ATOM     18  C   UNL     1      10.005   1.549  21.879  0.00  0.00    +0.001 A 
ATOM     19  C   UNL     1       9.612   0.229  22.109  0.00  0.00    +0.018 A 
BRANCH  15  20
ATOM     20  O   UNL     1       9.874   0.086  25.770  0.00  0.00    -0.506 OA
ATOM     21  H   UNL     1      10.567   0.504  26.309  0.00  0.00    +0.292 HD
ENDBRANCH  15  20
ENDBRANCH  12  14
ENDBRANCH   1  12
TORSDOF 6
ENDMDL
