MODEL 1
REMARK VINA RESULT:      -6.4      0.000      0.000
REMARK  Name = 
REMARK  7 active torsions:
REMARK  status: ('A' for Active; 'I' for Inactive)
REMARK    1  A    between atoms: C_1  and  S_2
REMARK    2  A    between atoms: S_2  and  C_3
REMARK    3  A    between atoms: C_3  and  C_4
REMARK    4  A    between atoms: C_7  and  C_15
REMARK    5  A    between atoms: C_9  and  O_11
REMARK    6  A    between atoms: C_12  and  O_14
REMARK    7  A    between atoms: C_23  and  N_25
REMARK                            x       y       z     vdW  Elec       q    Type
REMARK                         _______ _______ _______ _____ _____    ______ ____
ROOT
ATOM      1  C   UNL     1       8.968  -0.736  24.452  0.00  0.00    +0.015 A 
ATOM      2  C   UNL     1       9.173   0.125  23.351  0.00  0.00    +0.094 A 
ATOM      3  N   UNL     1       8.637  -0.019  22.074  0.00  0.00    -0.238 NA
ATOM      4  C   UNL     1       8.910   0.979  21.297  0.00  0.00    +0.183 C 
ATOM      5  N   UNL     1       9.728   2.112  21.590  0.00  0.00    -0.315 N 
ATOM      6  H   UNL     1       9.787   2.870  20.933  0.00  0.00    +0.149 HD
ATOM      7  C   UNL     1      10.417   2.249  22.846  0.00  0.00    +0.187 C 
ATOM      8  C   UNL     1       9.974   1.166  23.718  0.00  0.00    +0.077 A 
ATOM      9  N   UNL     1      10.306   0.979  25.032  0.00  0.00    -0.360 N 
ATOM     10  H   UNL     1      10.884   1.587  25.603  0.00  0.00    +0.165 HD
ATOM     11  C   UNL     1       9.694  -0.163  25.488  0.00  0.00    +0.090 A 
ENDROOT
BRANCH   1  15
ATOM     12  C   UNL     1       7.648  -3.970  25.566  0.00  0.00    +0.095 C 
ATOM     13  C   UNL     1       8.405  -4.390  24.297  0.00  0.00    +0.162 C 
ATOM     14  C   UNL     1       8.619  -3.079  23.520  0.00  0.00    +0.166 C 
ATOM     15  C   UNL     1       8.114  -1.973  24.469  0.00  0.00    +0.119 C 
ATOM     16  N   UNL     1       8.079  -2.577  25.810  0.00  0.00    -0.301 NA
ATOM     17  H   UNL     1       9.020  -2.596  26.204  0.00  0.00    +0.123 HD
BRANCH  13  18
ATOM     18  O   UNL     1       7.669  -5.347  23.542  0.00  0.00    -0.388 OA
ATOM     19  H   UNL     1       8.163  -5.447  22.700  0.00  0.00    +0.210 HD
ENDBRANCH  13  18
BRANCH  14  20
ATOM     20  O   UNL     1       7.890  -3.108  22.285  0.00  0.00    -0.387 OA
ATOM     21  H   UNL     1       7.097  -3.655  22.462  0.00  0.00    +0.210 HD
ENDBRANCH  14  20
BRANCH  12  22
ATOM     22  C   UNL     1       7.938  -4.923  26.740  0.00  0.00    +0.090 C 
BRANCH  22  24
ATOM     23  C   UNL     1       5.491  -6.170  26.281  0.00  0.00    +0.084 C 
ATOM     24  S   UNL     1       6.450  -5.481  27.653  0.00  0.00    -0.163 S 
ENDBRANCH  22  24
ENDBRANCH  12  22
ENDBRANCH   1  15
BRANCH   7  25
ATOM     25  N   UNL     1      10.011   3.541  23.316  0.00  0.00    -0.308 NA
ATOM     26  H   UNL     1       9.023   3.683  23.127  0.00  0.00    +0.120 HD
ATOM     27  H   UNL     1      10.101   3.590  24.328  0.00  0.00    +0.120 HD
ENDBRANCH   7  25
TORSDOF 6
ENDMDL
MODEL 2
REMARK VINA RESULT:      -6.3      2.027      2.372
REMARK  Name = 
REMARK  7 active torsions:
REMARK  status: ('A' for Active; 'I' for Inactive)
REMARK    1  A    between atoms: C_1  and  S_2
REMARK    2  A    between atoms: S_2  and  C_3
REMARK    3  A    between atoms: C_3  and  C_4
REMARK    4  A    between atoms: C_7  and  C_15
REMARK    5  A    between atoms: C_9  and  O_11
REMARK    6  A    between atoms: C_12  and  O_14
REMARK    7  A    between atoms: C_23  and  N_25
REMARK                            x       y       z     vdW  Elec       q    Type
REMARK                         _______ _______ _______ _____ _____    ______ ____
ROOT
ATOM      1  C   UNL     1       9.453  -0.841  23.867  0.00  0.00    +0.015 A 
ATOM      2  C   UNL     1       9.326   0.425  23.252  0.00  0.00    +0.094 A 
ATOM      3  N   UNL     1       8.937   0.673  21.939  0.00  0.00    -0.238 NA
ATOM      4  C   UNL     1       8.807   1.935  21.682  0.00  0.00    +0.183 C 
ATOM      5  N   UNL     1       9.084   3.033  22.551  0.00  0.00    -0.315 N 
ATOM      6  H   UNL     1       8.852   3.969  22.265  0.00  0.00    +0.149 HD
ATOM      7  C   UNL     1       9.617   2.842  23.874  0.00  0.00    +0.187 C 
ATOM      8  C   UNL     1       9.624   1.409  24.149  0.00  0.00    +0.077 A 
ATOM      9  N   UNL     1       9.960   0.798  25.326  0.00  0.00    -0.360 N 
ATOM     10  H   UNL     1      10.221   1.256  26.192  0.00  0.00    +0.165 HD
ATOM     11  C   UNL     1       9.849  -0.562  25.169  0.00  0.00    +0.090 A 
ENDROOT
BRANCH   1  15
ATOM     12  C   UNL     1       7.550  -3.562  22.314  0.00  0.00    +0.095 C 
ATOM     13  C   UNL     1       7.851  -4.172  23.691  0.00  0.00    +0.162 C 
ATOM     14  C   UNL     1       9.001  -3.316  24.253  0.00  0.00    +0.166 C 
ATOM     15  C   UNL     1       9.174  -2.174  23.230  0.00  0.00    +0.119 C 
ATOM     16  N   UNL     1       7.930  -2.140  22.447  0.00  0.00    -0.301 NA
ATOM     17  H   UNL     1       7.202  -1.662  22.978  0.00  0.00    +0.123 HD
BRANCH  13  18
ATOM     18  O   UNL     1       8.207  -5.547  23.588  0.00  0.00    -0.388 OA
ATOM     19  H   UNL     1       7.962  -5.809  22.675  0.00  0.00    +0.210 HD
ENDBRANCH  13  18
BRANCH  14  20
ATOM     20  O   UNL     1      10.189  -4.107  24.389  0.00  0.00    -0.387 OA
ATOM     21  H   UNL     1      10.122  -4.531  25.270  0.00  0.00    +0.210 HD
ENDBRANCH  14  20
BRANCH  12  22
ATOM     22  C   UNL     1       6.080  -3.776  21.909  0.00  0.00    +0.090 C 
BRANCH  22  24
ATOM     23  C   UNL     1       4.296  -5.572  23.068  0.00  0.00    +0.084 C 
ATOM     24  S   UNL     1       4.910  -3.888  23.316  0.00  0.00    -0.163 S 
ENDBRANCH  22  24
ENDBRANCH  12  22
ENDBRANCH   1  15
BRANCH   7  25
ATOM     25  N   UNL     1       8.706   3.564  24.714  0.00  0.00    -0.308 NA
ATOM     26  H   UNL     1       8.210   2.918  25.321  0.00  0.00    +0.120 HD
ATOM     27  H   UNL     1       9.220   4.180  25.339  0.00  0.00    +0.120 HD
ENDBRANCH   7  25
TORSDOF 6
ENDMDL
MODEL 3
REMARK VINA RESULT:      -6.3      2.265      2.677
REMARK  Name = 
REMARK  7 active torsions:
REMARK  status: ('A' for Active; 'I' for Inactive)
REMARK    1  A    between atoms: C_1  and  S_2
REMARK    2  A    between atoms: S_2  and  C_3
REMARK    3  A    between atoms: C_3  and  C_4
REMARK    4  A    between atoms: C_7  and  C_15
REMARK    5  A    between atoms: C_9  and  O_11
REMARK    6  A    between atoms: C_12  and  O_14
REMARK    7  A    between atoms: C_23  and  N_25
REMARK                            x       y       z     vdW  Elec       q    Type
REMARK                         _______ _______ _______ _____ _____    ______ ____
ROOT
ATOM      1  C   UNL     1       9.160  -1.839  24.963  0.00  0.00    +0.015 A 
ATOM      2  C   UNL     1       9.458  -1.071  23.816  0.00  0.00    +0.094 A 
ATOM      3  N   UNL     1       9.571  -1.540  22.510  0.00  0.00    -0.238 NA
ATOM      4  C   UNL     1       9.746  -0.592  21.647  0.00  0.00    +0.183 C 
ATOM      5  N   UNL     1       9.903   0.803  21.907  0.00  0.00    -0.315 N 
ATOM      6  H   UNL     1       9.939   1.454  21.141  0.00  0.00    +0.149 HD
ATOM      7  C   UNL     1       9.930   1.330  23.246  0.00  0.00    +0.187 C 
ATOM      8  C   UNL     1       9.604   0.241  24.161  0.00  0.00    +0.077 A 
ATOM      9  N   UNL     1       9.426   0.328  25.514  0.00  0.00    -0.360 N 
ATOM     10  H   UNL     1       9.460   1.172  26.076  0.00  0.00    +0.165 HD
ATOM     11  C   UNL     1       9.146  -0.923  26.007  0.00  0.00    +0.090 A 
ENDROOT
BRANCH   1  15
ATOM     12  C   UNL     1       7.315  -4.989  24.627  0.00  0.00    +0.095 C 
ATOM     13  C   UNL     1       7.395  -4.864  26.156  0.00  0.00    +0.162 C 
ATOM     14  C   UNL     1       8.510  -3.834  26.405  0.00  0.00    +0.166 C 
ATOM     15  C   UNL     1       8.886  -3.317  25.001  0.00  0.00    +0.119 C 
ATOM     16  N   UNL     1       7.761  -3.673  24.125  0.00  0.00    -0.301 NA
ATOM     17  H   UNL     1       7.000  -3.006  24.253  0.00  0.00    +0.123 HD
BRANCH  13  18
ATOM     18  O   UNL     1       7.676  -6.119  26.770  0.00  0.00    -0.388 OA
ATOM     19  H   UNL     1       8.382  -6.522  26.220  0.00  0.00    +0.210 HD
ENDBRANCH  13  18
BRANCH  14  20
ATOM     20  O   UNL     1       9.619  -4.453  27.071  0.00  0.00    -0.387 OA
ATOM     21  H   UNL     1       9.995  -3.761  27.654  0.00  0.00    +0.210 HD
ENDBRANCH  14  20
BRANCH  12  22
ATOM     22  C   UNL     1       5.901  -5.385  24.164  0.00  0.00    +0.090 C 
BRANCH  22  24
ATOM     23  C   UNL     1       6.094  -5.639  21.398  0.00  0.00    +0.084 C 
ATOM     24  S   UNL     1       5.340  -4.550  22.632  0.00  0.00    -0.163 S 
ENDBRANCH  22  24
ENDBRANCH  12  22
ENDBRANCH   1  15
BRANCH   7  25
ATOM     25  N   UNL     1       8.928   2.356  23.226  0.00  0.00    -0.308 NA
ATOM     26  H   UNL     1       9.307   3.217  23.612  0.00  0.00    +0.120 HD
ATOM     27  H   UNL     1       8.676   2.580  22.267  0.00  0.00    +0.120 HD
ENDBRANCH   7  25
TORSDOF 6
ENDMDL
MODEL 4
REMARK VINA RESULT:      -6.2      2.027      2.414
REMARK  Name = 
REMARK  7 active torsions:
REMARK  status: ('A' for Active; 'I' for Inactive)
REMARK    1  A    between atoms: C_1  and  S_2
REMARK    2  A    between atoms: S_2  and  C_3
REMARK    3  A    between atoms: C_3  and  C_4
REMARK    4  A    between atoms: C_7  and  C_15
REMARK    5  A    between atoms: C_9  and  O_11
REMARK    6  A    between atoms: C_12  and  O_14
REMARK    7  A    between atoms: C_23  and  N_25
REMARK                            x       y       z     vdW  Elec       q    Type
REMARK                         _______ _______ _______ _____ _____    ______ ____
ROOT
ATOM      1  C   UNL     1       9.259  -1.003  24.447  0.00  0.00    +0.015 A 
ATOM      2  C   UNL     1       9.402  -0.152  23.327  0.00  0.00    +0.094 A 
ATOM      3  N   UNL     1       9.104  -0.466  22.004  0.00  0.00    -0.238 NA
ATOM      4  C   UNL     1       9.233   0.544  21.206  0.00  0.00    +0.183 C 
ATOM      5  N   UNL     1       9.701   1.854  21.528  0.00  0.00    -0.315 N 
ATOM      6  H   UNL     1       9.666   2.582  20.835  0.00  0.00    +0.149 HD
ATOM      7  C   UNL     1      10.151   2.198  22.851  0.00  0.00    +0.187 C 
ATOM      8  C   UNL     1       9.865   1.067  23.727  0.00  0.00    +0.077 A 
ATOM      9  N   UNL     1      10.043   1.009  25.082  0.00  0.00    -0.360 N 
ATOM     10  H   UNL     1      10.368   1.760  25.682  0.00  0.00    +0.165 HD
ATOM     11  C   UNL     1       9.670  -0.234  25.528  0.00  0.00    +0.090 A 
ENDROOT
BRANCH   1  15
ATOM     12  C   UNL     1       6.981  -3.806  23.818  0.00  0.00    +0.095 C 
ATOM     13  C   UNL     1       6.851  -3.666  25.342  0.00  0.00    +0.162 C 
ATOM     14  C   UNL     1       8.074  -2.832  25.762  0.00  0.00    +0.166 C 
ATOM     15  C   UNL     1       8.738  -2.414  24.434  0.00  0.00    +0.119 C 
ATOM     16  N   UNL     1       7.713  -2.593  23.396  0.00  0.00    -0.301 NA
ATOM     17  H   UNL     1       7.064  -1.806  23.412  0.00  0.00    +0.123 HD
BRANCH  13  18
ATOM     18  O   UNL     1       6.822  -4.937  25.984  0.00  0.00    -0.388 OA
ATOM     19  H   UNL     1       7.349  -5.530  25.406  0.00  0.00    +0.210 HD
ENDBRANCH  13  18
BRANCH  14  20
ATOM     20  O   UNL     1       8.951  -3.614  26.584  0.00  0.00    -0.387 OA
ATOM     21  H   UNL     1       9.034  -3.118  27.425  0.00  0.00    +0.210 HD
ENDBRANCH  14  20
BRANCH  12  22
ATOM     22  C   UNL     1       5.607  -3.968  23.144  0.00  0.00    +0.090 C 
BRANCH  22  24
ATOM     23  C   UNL     1       6.873  -6.077  21.841  0.00  0.00    +0.084 C 
ATOM     24  S   UNL     1       5.253  -5.659  22.531  0.00  0.00    -0.163 S 
ENDBRANCH  22  24
ENDBRANCH  12  22
ENDBRANCH   1  15
BRANCH   7  25
ATOM     25  N   UNL     1       9.379   3.362  23.179  0.00  0.00    -0.308 NA
ATOM     26  H   UNL     1       8.893   3.699  22.352  0.00  0.00    +0.120 HD
ATOM     27  H   UNL     1       8.647   3.121  23.842  0.00  0.00    +0.120 HD
ENDBRANCH   7  25
TORSDOF 6
ENDMDL
MODEL 5
REMARK VINA RESULT:      -6.2      1.923      2.282
REMARK  Name = 
REMARK  7 active torsions:
REMARK  status: ('A' for Active; 'I' for Inactive)
REMARK    1  A    between atoms: C_1  and  S_2
REMARK    2  A    between atoms: S_2  and  C_3
REMARK    3  A    between atoms: C_3  and  C_4
REMARK    4  A    between atoms: C_7  and  C_15
REMARK    5  A    between atoms: C_9  and  O_11
REMARK    6  A    between atoms: C_12  and  O_14
REMARK    7  A    between atoms: C_23  and  N_25
REMARK                            x       y       z     vdW  Elec       q    Type
REMARK                         _______ _______ _______ _____ _____    ______ ____
ROOT
ATOM      1  C   UNL     1       7.510  -1.040  23.415  0.00  0.00    +0.015 A 
ATOM      2  C   UNL     1       8.157   0.082  22.851  0.00  0.00    +0.094 A 
ATOM      3  N   UNL     1       9.384   0.088  22.195  0.00  0.00    -0.238 NA
ATOM      4  C   UNL     1       9.678   1.242  21.687  0.00  0.00    +0.183 C 
ATOM      5  N   UNL     1       8.937   2.457  21.800  0.00  0.00    -0.315 N 
ATOM      6  H   UNL     1       9.223   3.268  21.279  0.00  0.00    +0.149 HD
ATOM      7  C   UNL     1       7.730   2.543  22.579  0.00  0.00    +0.187 C 
ATOM      8  C   UNL     1       7.385   1.195  23.018  0.00  0.00    +0.077 A 
ATOM      9  N   UNL     1       6.262   0.812  23.699  0.00  0.00    -0.360 N 
ATOM     10  H   UNL     1       5.486   1.407  23.968  0.00  0.00    +0.165 HD
ATOM     11  C   UNL     1       6.323  -0.539  23.935  0.00  0.00    +0.090 A 
ENDROOT
BRANCH   1  15
ATOM     12  C   UNL     1       7.780  -4.584  24.316  0.00  0.00    +0.095 C 
ATOM     13  C   UNL     1       9.066  -4.028  24.946  0.00  0.00    +0.162 C 
ATOM     14  C   UNL     1       9.276  -2.665  24.263  0.00  0.00    +0.166 C 
ATOM     15  C   UNL     1       8.012  -2.458  23.404  0.00  0.00    +0.119 C 
ATOM     16  N   UNL     1       7.003  -3.383  23.940  0.00  0.00    -0.301 NA
ATOM     17  H   UNL     1       6.590  -2.991  24.787  0.00  0.00    +0.123 HD
BRANCH  13  18
ATOM     18  O   UNL     1      10.169  -4.906  24.743  0.00  0.00    -0.388 OA
ATOM     19  H   UNL     1      10.963  -4.383  24.987  0.00  0.00    +0.210 HD
ENDBRANCH  13  18
BRANCH  14  20
ATOM     20  O   UNL     1      10.472  -2.686  23.472  0.00  0.00    -0.387 OA
ATOM     21  H   UNL     1      10.188  -2.459  22.562  0.00  0.00    +0.210 HD
ENDBRANCH  14  20
BRANCH  12  22
ATOM     22  C   UNL     1       7.037  -5.526  25.281  0.00  0.00    +0.090 C 
BRANCH  22  24
ATOM     23  C   UNL     1       5.953  -4.099  27.411  0.00  0.00    +0.084 C 
ATOM     24  S   UNL     1       7.347  -5.197  27.057  0.00  0.00    -0.163 S 
ENDBRANCH  22  24
ENDBRANCH  12  22
ENDBRANCH   1  15
BRANCH   7  25
ATOM     25  N   UNL     1       6.773   3.089  21.661  0.00  0.00    -0.308 NA
ATOM     26  H   UNL     1       6.577   4.057  21.900  0.00  0.00    +0.120 HD
ATOM     27  H   UNL     1       7.165   3.118  20.723  0.00  0.00    +0.120 HD
ENDBRANCH   7  25
TORSDOF 6
ENDMDL
MODEL 6
REMARK VINA RESULT:      -6.2      2.312      2.781
REMARK  Name = 
REMARK  7 active torsions:
REMARK  status: ('A' for Active; 'I' for Inactive)
REMARK    1  A    between atoms: C_1  and  S_2
REMARK    2  A    between atoms: S_2  and  C_3
REMARK    3  A    between atoms: C_3  and  C_4
REMARK    4  A    between atoms: C_7  and  C_15
REMARK    5  A    between atoms: C_9  and  O_11
REMARK    6  A    between atoms: C_12  and  O_14
REMARK    7  A    between atoms: C_23  and  N_25
REMARK                            x       y       z     vdW  Elec       q    Type
REMARK                         _______ _______ _______ _____ _____    ______ ____
ROOT
ATOM      1  C   UNL     1       7.570  -1.207  22.933  0.00  0.00    +0.015 A 
ATOM      2  C   UNL     1       8.268  -0.030  22.582  0.00  0.00    +0.094 A 
ATOM      3  N   UNL     1       9.526   0.043  21.991  0.00  0.00    -0.238 NA
ATOM      4  C   UNL     1       9.870   1.252  21.685  0.00  0.00    +0.183 C 
ATOM      5  N   UNL     1       9.152   2.456  21.954  0.00  0.00    -0.315 N 
ATOM      6  H   UNL     1       9.481   3.330  21.581  0.00  0.00    +0.149 HD
ATOM      7  C   UNL     1       7.910   2.455  22.682  0.00  0.00    +0.187 C 
ATOM      8  C   UNL     1       7.514   1.065  22.887  0.00  0.00    +0.077 A 
ATOM      9  N   UNL     1       6.351   0.615  23.448  0.00  0.00    -0.360 N 
ATOM     10  H   UNL     1       5.576   1.183  23.773  0.00  0.00    +0.165 HD
ATOM     11  C   UNL     1       6.370  -0.758  23.471  0.00  0.00    +0.090 A 
ENDROOT
BRANCH   1  15
ATOM     12  C   UNL     1       7.404  -4.849  22.548  0.00  0.00    +0.095 C 
ATOM     13  C   UNL     1       8.052  -4.736  23.937  0.00  0.00    +0.162 C 
ATOM     14  C   UNL     1       8.567  -3.287  24.009  0.00  0.00    +0.166 C 
ATOM     15  C   UNL     1       8.040  -2.620  22.722  0.00  0.00    +0.119 C 
ATOM     16  N   UNL     1       6.947  -3.477  22.240  0.00  0.00    -0.301 NA
ATOM     17  H   UNL     1       6.101  -3.293  22.779  0.00  0.00    +0.123 HD
BRANCH  13  18
ATOM     18  O   UNL     1       9.099  -5.687  24.104  0.00  0.00    -0.388 OA
ATOM     19  H   UNL     1       8.667  -6.480  24.489  0.00  0.00    +0.210 HD
ENDBRANCH  13  18
BRANCH  14  20
ATOM     20  O   UNL     1      10.000  -3.273  24.079  0.00  0.00    -0.387 OA
ATOM     21  H   UNL     1      10.289  -4.138  23.721  0.00  0.00    +0.210 HD
ENDBRANCH  14  20
BRANCH  12  22
ATOM     22  C   UNL     1       6.276  -5.897  22.534  0.00  0.00    +0.090 C 
BRANCH  22  24
ATOM     23  C   UNL     1       3.788  -4.982  23.385  0.00  0.00    +0.084 C 
ATOM     24  S   UNL     1       5.214  -5.894  24.027  0.00  0.00    -0.163 S 
ENDBRANCH  22  24
ENDBRANCH  12  22
ENDBRANCH   1  15
BRANCH   7  25
ATOM     25  N   UNL     1       7.011   3.166  21.819  0.00  0.00    -0.308 NA
ATOM     26  H   UNL     1       7.539   3.699  21.134  0.00  0.00    +0.120 HD
ATOM     27  H   UNL     1       6.454   2.510  21.278  0.00  0.00    +0.120 HD
ENDBRANCH   7  25
TORSDOF 6
ENDMDL
MODEL 7
REMARK VINA RESULT:      -6.1      3.172      6.649
REMARK  Name = 
REMARK  7 active torsions:
REMARK  status: ('A' for Active; 'I' for Inactive)
REMARK    1  A    between atoms: C_1  and  S_2
REMARK    2  A    between atoms: S_2  and  C_3
REMARK    3  A    between atoms: C_3  and  C_4
REMARK    4  A    between atoms: C_7  and  C_15
REMARK    5  A    between atoms: C_9  and  O_11
REMARK    6  A    between atoms: C_12  and  O_14
REMARK    7  A    between atoms: C_23  and  N_25
REMARK                            x       y       z     vdW  Elec       q    Type
REMARK                         _______ _______ _______ _____ _____    ______ ____
ROOT
ATOM      1  C   UNL     1       8.002  -2.118  24.678  0.00  0.00    +0.015 A 
ATOM      2  C   UNL     1       8.502  -3.405  24.979  0.00  0.00    +0.094 A 
ATOM      3  N   UNL     1       9.766  -3.897  24.665  0.00  0.00    -0.238 NA
ATOM      4  C   UNL     1       9.985  -5.073  25.160  0.00  0.00    +0.183 C 
ATOM      5  N   UNL     1       9.073  -5.895  25.889  0.00  0.00    -0.315 N 
ATOM      6  H   UNL     1       9.394  -6.753  26.303  0.00  0.00    +0.149 HD
ATOM      7  C   UNL     1       7.711  -5.495  26.126  0.00  0.00    +0.187 C 
ATOM      8  C   UNL     1       7.562  -4.121  25.660  0.00  0.00    +0.077 A 
ATOM      9  N   UNL     1       6.457  -3.324  25.784  0.00  0.00    -0.360 N 
ATOM     10  H   UNL     1       5.589  -3.563  26.252  0.00  0.00    +0.165 HD
ATOM     11  C   UNL     1       6.717  -2.108  25.203  0.00  0.00    +0.090 A 
ENDROOT
BRANCH   1  15
ATOM     12  C   UNL     1       8.789   1.255  23.478  0.00  0.00    +0.095 C 
ATOM     13  C   UNL     1       8.349   0.581  22.170  0.00  0.00    +0.162 C 
ATOM     14  C   UNL     1       8.421  -0.928  22.467  0.00  0.00    +0.166 C 
ATOM     15  C   UNL     1       8.744  -1.015  23.973  0.00  0.00    +0.119 C 
ATOM     16  N   UNL     1       8.402   0.299  24.537  0.00  0.00    -0.301 NA
ATOM     17  H   UNL     1       7.394   0.364  24.674  0.00  0.00    +0.123 HD
BRANCH  13  18
ATOM     18  O   UNL     1       9.188   0.954  21.081  0.00  0.00    -0.388 OA
ATOM     19  H   UNL     1       9.930   1.452  21.486  0.00  0.00    +0.210 HD
ENDBRANCH  13  18
BRANCH  14  20
ATOM     20  O   UNL     1       9.433  -1.545  21.659  0.00  0.00    -0.387 OA
ATOM     21  H   UNL     1      10.083  -1.917  22.292  0.00  0.00    +0.210 HD
ENDBRANCH  14  20
BRANCH  12  22
ATOM     22  C   UNL     1       8.154   2.649  23.638  0.00  0.00    +0.090 C 
BRANCH  22  24
ATOM     23  C   UNL     1      10.884   3.148  23.407  0.00  0.00    +0.084 C 
ATOM     24  S   UNL     1       9.358   4.015  23.848  0.00  0.00    -0.163 S 
ENDBRANCH  22  24
ENDBRANCH  12  22
ENDBRANCH   1  15
BRANCH   7  25
ATOM     25  N   UNL     1       7.566  -5.617  27.548  0.00  0.00    -0.308 NA
ATOM     26  H   UNL     1       8.449  -5.901  27.963  0.00  0.00    +0.120 HD
ATOM     27  H   UNL     1       7.355  -4.711  27.957  0.00  0.00    +0.120 HD
ENDBRANCH   7  25
TORSDOF 6
ENDMDL
MODEL 8
REMARK VINA RESULT:      -6.0      2.454      3.112
REMARK  Name = 
REMARK  7 active torsions:
REMARK  status: ('A' for Active; 'I' for Inactive)
REMARK    1  A    between atoms: C_1  and  S_2
REMARK    2  A    between atoms: S_2  and  C_3
REMARK    3  A    between atoms: C_3  and  C_4
REMARK    4  A    between atoms: C_7  and  C_15
REMARK    5  A    between atoms: C_9  and  O_11
REMARK    6  A    between atoms: C_12  and  O_14
REMARK    7  A    between atoms: C_23  and  N_25
REMARK                            x       y       z     vdW  Elec       q    Type
REMARK                         _______ _______ _______ _____ _____    ______ ____
ROOT
ATOM      1  C   UNL     1       8.718  -0.211  22.162  0.00  0.00    +0.015 A 
ATOM      2  C   UNL     1       7.806   0.720  22.708  0.00  0.00    +0.094 A 
ATOM      3  N   UNL     1       6.684   0.427  23.479  0.00  0.00    -0.238 NA
ATOM      4  C   UNL     1       6.094   1.486  23.931  0.00  0.00    +0.183 C 
ATOM      5  N   UNL     1       6.424   2.849  23.663  0.00  0.00    -0.315 N 
ATOM      6  H   UNL     1       5.946   3.586  24.151  0.00  0.00    +0.149 HD
ATOM      7  C   UNL     1       7.490   3.211  22.766  0.00  0.00    +0.187 C 
ATOM      8  C   UNL     1       8.192   1.989  22.390  0.00  0.00    +0.077 A 
ATOM      9  N   UNL     1       9.325   1.890  21.630  0.00  0.00    -0.360 N 
ATOM     10  H   UNL     1       9.864   2.659  21.246  0.00  0.00    +0.165 HD
ATOM     11  C   UNL     1       9.657   0.565  21.496  0.00  0.00    +0.090 A 
ENDROOT
BRANCH   1  15
ATOM     12  C   UNL     1       7.378  -3.526  22.971  0.00  0.00    +0.095 C 
ATOM     13  C   UNL     1       8.389  -3.339  24.112  0.00  0.00    +0.162 C 
ATOM     14  C   UNL     1       9.310  -2.203  23.633  0.00  0.00    +0.166 C 
ATOM     15  C   UNL     1       8.669  -1.706  22.321  0.00  0.00    +0.119 C 
ATOM     16  N   UNL     1       7.282  -2.194  22.339  0.00  0.00    -0.301 NA
ATOM     17  H   UNL     1       6.713  -1.595  22.937  0.00  0.00    +0.123 HD
BRANCH  13  18
ATOM     18  O   UNL     1       9.109  -4.539  24.375  0.00  0.00    -0.388 OA
ATOM     19  H   UNL     1      10.003  -4.391  23.997  0.00  0.00    +0.210 HD
ENDBRANCH  13  18
BRANCH  14  20
ATOM     20  O   UNL     1      10.642  -2.694  23.433  0.00  0.00    -0.387 OA
ATOM     21  H   UNL     1      11.074  -2.047  22.837  0.00  0.00    +0.210 HD
ENDBRANCH  14  20
BRANCH  12  22
ATOM     22  C   UNL     1       6.032  -4.065  23.490  0.00  0.00    +0.090 C 
BRANCH  22  24
ATOM     23  C   UNL     1       6.854  -5.987  21.652  0.00  0.00    +0.084 C 
ATOM     24  S   UNL     1       5.661  -5.792  22.999  0.00  0.00    -0.163 S 
ENDBRANCH  22  24
ENDBRANCH  12  22
ENDBRANCH   1  15
BRANCH   7  25
ATOM     25  N   UNL     1       8.302   4.100  23.546  0.00  0.00    -0.308 NA
ATOM     26  H   UNL     1       9.032   3.575  24.019  0.00  0.00    +0.120 HD
ATOM     27  H   UNL     1       8.790   4.751  22.937  0.00  0.00    +0.120 HD
ENDBRANCH   7  25
TORSDOF 6
ENDMDL
MODEL 9
REMARK VINA RESULT:      -5.9      2.275      3.138
REMARK  Name = 
REMARK  7 active torsions:
REMARK  status: ('A' for Active; 'I' for Inactive)
REMARK    1  A    between atoms: C_1  and  S_2
REMARK    2  A    between atoms: S_2  and  C_3
REMARK    3  A    between atoms: C_3  and  C_4
REMARK    4  A    between atoms: C_7  and  C_15
REMARK    5  A    between atoms: C_9  and  O_11
REMARK    6  A    between atoms: C_12  and  O_14
REMARK    7  A    between atoms: C_23  and  N_25
REMARK                            x       y       z     vdW  Elec       q    Type
REMARK                         _______ _______ _______ _____ _____    ______ ____
ROOT
ATOM      1  C   UNL     1       9.035  -2.638  24.368  0.00  0.00    +0.015 A 
ATOM      2  C   UNL     1       8.426  -1.387  24.615  0.00  0.00    +0.094 A 
ATOM      3  N   UNL     1       7.264  -1.161  25.346  0.00  0.00    -0.238 NA
ATOM      4  C   UNL     1       7.000   0.098  25.496  0.00  0.00    +0.183 C 
ATOM      5  N   UNL     1       7.709   1.207  24.946  0.00  0.00    -0.315 N 
ATOM      6  H   UNL     1       7.459   2.144  25.214  0.00  0.00    +0.149 HD
ATOM      7  C   UNL     1       8.839   1.031  24.072  0.00  0.00    +0.187 C 
ATOM      8  C   UNL     1       9.162  -0.391  24.042  0.00  0.00    +0.077 A 
ATOM      9  N   UNL     1      10.224  -0.981  23.413  0.00  0.00    -0.360 N 
ATOM     10  H   UNL     1      10.963  -0.510  22.903  0.00  0.00    +0.165 HD
ATOM     11  C   UNL     1      10.162  -2.338  23.613  0.00  0.00    +0.090 A 
ENDROOT
BRANCH   1  15
ATOM     12  C   UNL     1       6.721  -5.228  25.539  0.00  0.00    +0.095 C 
ATOM     13  C   UNL     1       7.469  -4.902  26.841  0.00  0.00    +0.162 C 
ATOM     14  C   UNL     1       8.740  -4.165  26.384  0.00  0.00    +0.166 C 
ATOM     15  C   UNL     1       8.558  -3.975  24.863  0.00  0.00    +0.119 C 
ATOM     16  N   UNL     1       7.123  -4.158  24.603  0.00  0.00    -0.301 NA
ATOM     17  H   UNL     1       6.616  -3.308  24.850  0.00  0.00    +0.123 HD
BRANCH  13  18
ATOM     18  O   UNL     1       7.770  -6.081  27.580  0.00  0.00    -0.388 OA
ATOM     19  H   UNL     1       8.158  -5.764  28.424  0.00  0.00    +0.210 HD
ENDBRANCH  13  18
BRANCH  14  20
ATOM     20  O   UNL     1       9.905  -4.940  26.698  0.00  0.00    -0.387 OA
ATOM     21  H   UNL     1       9.658  -5.870  26.513  0.00  0.00    +0.210 HD
ENDBRANCH  14  20
BRANCH  12  22
ATOM     22  C   UNL     1       5.200  -5.314  25.767  0.00  0.00    +0.090 C 
BRANCH  22  24
ATOM     23  C   UNL     1       3.442  -5.250  23.610  0.00  0.00    +0.084 C 
ATOM     24  S   UNL     1       4.214  -4.117  24.790  0.00  0.00    -0.163 S 
ENDBRANCH  22  24
ENDBRANCH  12  22
ENDBRANCH   1  15
BRANCH   7  25
ATOM     25  N   UNL     1       9.867   1.821  24.684  0.00  0.00    -0.308 NA
ATOM     26  H   UNL     1      10.310   2.413  23.987  0.00  0.00    +0.120 HD
ATOM     27  H   UNL     1       9.460   2.462  25.361  0.00  0.00    +0.120 HD
ENDBRANCH   7  25
TORSDOF 6
ENDMDL
