MODEL 1
REMARK VINA RESULT:      -7.3      0.000      0.000
REMARK  Name = 
REMARK  12 active torsions:
REMARK  status: ('A' for Active; 'I' for Inactive)
REMARK    1  A    between atoms: O_1  and  C_2
REMARK    2  A    between atoms: C_4  and  O_6
REMARK    3  A    between atoms: C_7  and  N_28
REMARK    4  A    between atoms: C_10  and  C_12
REMARK    5  A    between atoms: C_12  and  O_13
REMARK    6  A    between atoms: O_13  and  P_14
REMARK    7  A    between atoms: P_14  and  O_15
REMARK    8  A    between atoms: P_14  and  O_17
REMARK    9  A    between atoms: O_17  and  P_18
REMARK   10  A    between atoms: P_18  and  O_19
REMARK   11  A    between atoms: P_18  and  O_21
REMARK   12  A    between atoms: O_21  and  C_22
REMARK                            x       y       z     vdW  Elec       q    Type
REMARK                         _______ _______ _______ _____ _____    ______ ____
ROOT
ATOM      1  C   UNL     1       8.278  -0.778  23.153  0.00  0.00    +0.178 C 
ATOM      2  C   UNL     1       9.713  -1.166  23.523  0.00  0.00    +0.178 C 
ATOM      3  O   UNL     1      10.091  -0.375  24.673  0.00  0.00    -0.346 OA
ATOM      4  C   UNL     1       9.021   0.551  24.989  0.00  0.00    +0.255 C 
ATOM      5  C   UNL     1       7.741  -0.058  24.380  0.00  0.00    +0.195 C 
ENDROOT
BRANCH   4   6
ATOM      6  N   UNL     1       9.363   1.900  24.497  0.00  0.00    -0.271 N 
ATOM      7  C   UNL     1       8.554   2.956  24.916  0.00  0.00    +0.331 A 
ATOM      8  O   UNL     1       7.558   2.824  25.614  0.00  0.00    -0.246 OA
ATOM      9  N   UNL     1       8.937   4.202  24.495  0.00  0.00    -0.275 N 
ATOM     10  H   UNL     1       8.367   4.975  24.801  0.00  0.00    +0.173 HD
ATOM     11  C   UNL     1      10.097   4.520  23.845  0.00  0.00    +0.254 A 
ATOM     12  O   UNL     1      10.447   5.663  23.602  0.00  0.00    -0.268 OA
ATOM     13  C   UNL     1      10.930   3.367  23.456  0.00  0.00    +0.088 A 
ATOM     14  C   UNL     1      10.536   2.140  23.800  0.00  0.00    +0.098 A 
ENDBRANCH   4   6
BRANCH   1  15
ATOM     15  O   UNL     1       8.296   0.123  22.032  0.00  0.00    -0.386 OA
ATOM     16  H   UNL     1       9.223   0.330  21.814  0.00  0.00    +0.210 HD
ENDBRANCH   1  15
BRANCH   5  17
ATOM     17  O   UNL     1       7.143  -0.978  25.298  0.00  0.00    -0.385 OA
ATOM     18  H   UNL     1       7.655  -1.805  25.276  0.00  0.00    +0.210 HD
ENDBRANCH   5  17
BRANCH   2  19
ATOM     19  C   UNL     1       9.944  -2.656  23.808  0.00  0.00    +0.206 C 
BRANCH  19  20
ATOM     20  O   UNL     1       9.381  -3.012  25.045  0.00  0.00    -0.284 OA
BRANCH  20  21
ATOM     21  P   UNL     1       8.849  -4.541  25.319  0.00  0.00    +0.484 P 
ATOM     22  O   UNL     1       8.487  -4.975  23.893  0.00  0.00    -0.227 OA
BRANCH  21  23
ATOM     23  O   UNL     1      10.437  -5.120  24.954  0.00  0.00    -0.302 OA
ATOM     24  H   UNL     1      10.608  -4.665  24.102  0.00  0.00    +0.222 HD
ENDBRANCH  21  23
BRANCH  21  25
ATOM     25  O   UNL     1       7.260  -3.962  25.684  0.00  0.00    -0.176 OA
BRANCH  25  26
ATOM     26  P   UNL     1       6.881  -5.182  26.825  0.00  0.00    +0.539 P 
ATOM     27  O   UNL     1       6.384  -4.625  28.131  0.00  0.00    -0.215 OA
BRANCH  26  28
ATOM     28  O   UNL     1       8.250  -6.019  26.942  0.00  0.00    -0.293 OA
ATOM     29  H   UNL     1       8.365  -6.458  27.801  0.00  0.00    +0.223 HD
ENDBRANCH  26  28
BRANCH  26  30
ATOM     30  O   UNL     1       5.913  -6.317  26.213  0.00  0.00    -0.404 OA
BRANCH  30  31
ATOM     31  C   UNL     1       4.983  -6.015  25.211  0.00  0.00    +0.132 A 
ATOM     32  C   UNL     1       5.089  -6.254  23.843  0.00  0.00    +0.046 A 
ATOM     33  C   UNL     1       4.054  -5.825  22.981  0.00  0.00    +0.004 A 
ATOM     34  C   UNL     1       2.934  -5.174  23.500  0.00  0.00    +0.000 A 
ATOM     35  C   UNL     1       2.855  -4.938  24.873  0.00  0.00    +0.004 A 
ATOM     36  C   UNL     1       3.872  -5.360  25.714  0.00  0.00    +0.046 A 
ENDBRANCH  30  31
ENDBRANCH  26  30
ENDBRANCH  25  26
ENDBRANCH  21  25
ENDBRANCH  20  21
ENDBRANCH  19  20
ENDBRANCH   2  19
TORSDOF 12
ENDMDL
MODEL 2
REMARK VINA RESULT:      -7.2      3.703      9.319
REMARK  Name = 
REMARK  12 active torsions:
REMARK  status: ('A' for Active; 'I' for Inactive)
REMARK    1  A    between atoms: O_1  and  C_2
REMARK    2  A    between atoms: C_4  and  O_6
REMARK    3  A    between atoms: C_7  and  N_28
REMARK    4  A    between atoms: C_10  and  C_12
REMARK    5  A    between atoms: C_12  and  O_13
REMARK    6  A    between atoms: O_13  and  P_14
REMARK    7  A    between atoms: P_14  and  O_15
REMARK    8  A    between atoms: P_14  and  O_17
REMARK    9  A    between atoms: O_17  and  P_18
REMARK   10  A    between atoms: P_18  and  O_19
REMARK   11  A    between atoms: P_18  and  O_21
REMARK   12  A    between atoms: O_21  and  C_22
REMARK                            x       y       z     vdW  Elec       q    Type
REMARK                         _______ _______ _______ _____ _____    ______ ____
ROOT
ATOM      1  C   UNL     1       8.022  -1.983  22.665  0.00  0.00    +0.178 C 
ATOM      2  C   UNL     1       7.570  -0.886  23.635  0.00  0.00    +0.178 C 
ATOM      3  O   UNL     1       8.309  -1.066  24.865  0.00  0.00    -0.346 OA
ATOM      4  C   UNL     1       9.125  -2.260  24.762  0.00  0.00    +0.255 C 
ATOM      5  C   UNL     1       9.323  -2.509  23.252  0.00  0.00    +0.195 C 
ENDROOT
BRANCH   4   6
ATOM      6  N   UNL     1       8.486  -3.369  25.497  0.00  0.00    -0.271 N 
ATOM      7  C   UNL     1       9.160  -4.590  25.521  0.00  0.00    +0.331 A 
ATOM      8  O   UNL     1      10.210  -4.809  24.931  0.00  0.00    -0.246 OA
ATOM      9  N   UNL     1       8.573  -5.579  26.265  0.00  0.00    -0.275 N 
ATOM     10  H   UNL     1       9.057  -6.463  26.301  0.00  0.00    +0.173 HD
ATOM     11  C   UNL     1       7.494  -5.441  27.093  0.00  0.00    +0.254 A 
ATOM     12  O   UNL     1       7.086  -6.325  27.829  0.00  0.00    -0.268 OA
ATOM     13  C   UNL     1       6.841  -4.120  27.053  0.00  0.00    +0.088 A 
ATOM     14  C   UNL     1       7.362  -3.165  26.280  0.00  0.00    +0.098 A 
ENDBRANCH   4   6
BRANCH   1  15
ATOM     15  O   UNL     1       7.043  -3.035  22.638  0.00  0.00    -0.386 OA
ATOM     16  H   UNL     1       6.334  -2.818  23.271  0.00  0.00    +0.210 HD
ENDBRANCH   1  15
BRANCH   5  17
ATOM     17  O   UNL     1      10.445  -1.765  22.769  0.00  0.00    -0.385 OA
ATOM     18  H   UNL     1      11.257  -2.217  23.055  0.00  0.00    +0.210 HD
ENDBRANCH   5  17
BRANCH   2  19
ATOM     19  C   UNL     1       7.730   0.554  23.129  0.00  0.00    +0.206 C 
BRANCH  19  20
ATOM     20  O   UNL     1       8.993   1.060  23.479  0.00  0.00    -0.284 OA
BRANCH  20  21
ATOM     21  P   UNL     1       9.494   2.525  22.932  0.00  0.00    +0.484 P 
ATOM     22  O   UNL     1      10.972   2.490  23.343  0.00  0.00    -0.227 OA
BRANCH  21  23
ATOM     23  O   UNL     1      10.016   1.759  21.471  0.00  0.00    -0.302 OA
ATOM     24  H   UNL     1      10.614   2.447  21.106  0.00  0.00    +0.222 HD
ENDBRANCH  21  23
BRANCH  21  25
ATOM     25  O   UNL     1       8.973   3.290  24.394  0.00  0.00    -0.176 OA
BRANCH  25  26
ATOM     26  P   UNL     1       7.984   4.466  23.637  0.00  0.00    +0.539 P 
ATOM     27  O   UNL     1       6.705   4.722  24.386  0.00  0.00    -0.215 OA
BRANCH  26  28
ATOM     28  O   UNL     1       7.775   3.878  22.154  0.00  0.00    -0.293 OA
ATOM     29  H   UNL     1       6.850   3.665  21.947  0.00  0.00    +0.223 HD
ENDBRANCH  26  28
BRANCH  26  30
ATOM     30  O   UNL     1       8.792   5.818  23.289  0.00  0.00    -0.404 OA
BRANCH  30  31
ATOM     31  C   UNL     1       9.977   6.148  23.959  0.00  0.00    +0.132 A 
ATOM     32  C   UNL     1      11.287   5.909  23.553  0.00  0.00    +0.046 A 
ATOM     33  C   UNL     1      12.355   6.278  24.402  0.00  0.00    +0.004 A 
ATOM     34  C   UNL     1      12.096   6.882  25.634  0.00  0.00    +0.000 A 
ATOM     35  C   UNL     1      10.775   7.104  26.022  0.00  0.00    +0.004 A 
ATOM     36  C   UNL     1       9.730   6.740  25.187  0.00  0.00    +0.046 A 
ENDBRANCH  30  31
ENDBRANCH  26  30
ENDBRANCH  25  26
ENDBRANCH  21  25
ENDBRANCH  20  21
ENDBRANCH  19  20
ENDBRANCH   2  19
TORSDOF 12
ENDMDL
MODEL 3
REMARK VINA RESULT:      -7.2      1.880      2.566
REMARK  Name = 
REMARK  12 active torsions:
REMARK  status: ('A' for Active; 'I' for Inactive)
REMARK    1  A    between atoms: O_1  and  C_2
REMARK    2  A    between atoms: C_4  and  O_6
REMARK    3  A    between atoms: C_7  and  N_28
REMARK    4  A    between atoms: C_10  and  C_12
REMARK    5  A    between atoms: C_12  and  O_13
REMARK    6  A    between atoms: O_13  and  P_14
REMARK    7  A    between atoms: P_14  and  O_15
REMARK    8  A    between atoms: P_14  and  O_17
REMARK    9  A    between atoms: O_17  and  P_18
REMARK   10  A    between atoms: P_18  and  O_19
REMARK   11  A    between atoms: P_18  and  O_21
REMARK   12  A    between atoms: O_21  and  C_22
REMARK                            x       y       z     vdW  Elec       q    Type
REMARK                         _______ _______ _______ _____ _____    ______ ____
ROOT
ATOM      1  C   UNL     1       9.806  -0.881  25.290  0.00  0.00    +0.178 C 
ATOM      2  C   UNL     1       8.360  -1.135  25.730  0.00  0.00    +0.178 C 
ATOM      3  O   UNL     1       7.533  -1.077  24.546  0.00  0.00    -0.346 OA
ATOM      4  C   UNL     1       8.352  -0.711  23.407  0.00  0.00    +0.255 C 
ATOM      5  C   UNL     1       9.798  -1.095  23.784  0.00  0.00    +0.195 C 
ENDROOT
BRANCH   4   6
ATOM      6  N   UNL     1       8.151   0.715  23.084  0.00  0.00    -0.271 N 
ATOM      7  C   UNL     1       8.689   1.179  21.884  0.00  0.00    +0.331 A 
ATOM      8  O   UNL     1       9.357   0.495  21.119  0.00  0.00    -0.246 OA
ATOM      9  N   UNL     1       8.430   2.490  21.582  0.00  0.00    -0.275 N 
ATOM     10  H   UNL     1       8.803   2.834  20.711  0.00  0.00    +0.173 HD
ATOM     11  C   UNL     1       7.583   3.326  22.254  0.00  0.00    +0.254 A 
ATOM     12  O   UNL     1       7.292   4.448  21.873  0.00  0.00    -0.268 OA
ATOM     13  C   UNL     1       7.015   2.772  23.498  0.00  0.00    +0.088 A 
ATOM     14  C   UNL     1       7.314   1.518  23.841  0.00  0.00    +0.098 A 
ENDBRANCH   4   6
BRANCH   1  15
ATOM     15  O   UNL     1      10.167   0.480  25.583  0.00  0.00    -0.386 OA
ATOM     16  H   UNL     1      10.908   0.476  26.216  0.00  0.00    +0.210 HD
ENDBRANCH   1  15
BRANCH   5  17
ATOM     17  O   UNL     1      10.050  -2.464  23.456  0.00  0.00    -0.385 OA
ATOM     18  H   UNL     1      10.952  -2.531  23.101  0.00  0.00    +0.210 HD
ENDBRANCH   5  17
BRANCH   2  19
ATOM     19  C   UNL     1       8.118  -2.451  26.481  0.00  0.00    +0.206 C 
BRANCH  19  20
ATOM     20  O   UNL     1       8.899  -3.482  25.930  0.00  0.00    -0.284 OA
BRANCH  20  21
ATOM     21  P   UNL     1       8.206  -4.872  25.400  0.00  0.00    +0.484 P 
ATOM     22  O   UNL     1       7.938  -4.514  23.933  0.00  0.00    -0.227 OA
BRANCH  21  23
ATOM     23  O   UNL     1       9.762  -5.395  24.854  0.00  0.00    -0.302 OA
ATOM     24  H   UNL     1       9.905  -4.788  24.096  0.00  0.00    +0.222 HD
ENDBRANCH  21  23
BRANCH  21  25
ATOM     25  O   UNL     1       6.650  -4.349  25.946  0.00  0.00    -0.176 OA
BRANCH  25  26
ATOM     26  P   UNL     1       6.567  -5.406  27.291  0.00  0.00    +0.539 P 
ATOM     27  O   UNL     1       6.046  -4.734  28.531  0.00  0.00    -0.215 OA
BRANCH  26  28
ATOM     28  O   UNL     1       8.071  -5.961  27.422  0.00  0.00    -0.293 OA
ATOM     29  H   UNL     1       8.121  -6.884  27.719  0.00  0.00    +0.223 HD
ENDBRANCH  26  28
BRANCH  26  30
ATOM     30  O   UNL     1       5.794  -6.780  26.946  0.00  0.00    -0.404 OA
BRANCH  30  31
ATOM     31  C   UNL     1       4.656  -6.787  26.130  0.00  0.00    +0.132 A 
ATOM     32  C   UNL     1       4.598  -6.870  24.741  0.00  0.00    +0.046 A 
ATOM     33  C   UNL     1       3.342  -6.811  24.094  0.00  0.00    +0.004 A 
ATOM     34  C   UNL     1       2.173  -6.676  24.843  0.00  0.00    +0.000 A 
ATOM     35  C   UNL     1       2.257  -6.586  26.233  0.00  0.00    +0.004 A 
ATOM     36  C   UNL     1       3.490  -6.644  26.863  0.00  0.00    +0.046 A 
ENDBRANCH  30  31
ENDBRANCH  26  30
ENDBRANCH  25  26
ENDBRANCH  21  25
ENDBRANCH  20  21
ENDBRANCH  19  20
ENDBRANCH   2  19
TORSDOF 12
ENDMDL
MODEL 4
REMARK VINA RESULT:      -7.1      3.194      9.036
REMARK  Name = 
REMARK  12 active torsions:
REMARK  status: ('A' for Active; 'I' for Inactive)
REMARK    1  A    between atoms: O_1  and  C_2
REMARK    2  A    between atoms: C_4  and  O_6
REMARK    3  A    between atoms: C_7  and  N_28
REMARK    4  A    between atoms: C_10  and  C_12
REMARK    5  A    between atoms: C_12  and  O_13
REMARK    6  A    between atoms: O_13  and  P_14
REMARK    7  A    between atoms: P_14  and  O_15
REMARK    8  A    between atoms: P_14  and  O_17
REMARK    9  A    between atoms: O_17  and  P_18
REMARK   10  A    between atoms: P_18  and  O_19
REMARK   11  A    between atoms: P_18  and  O_21
REMARK   12  A    between atoms: O_21  and  C_22
REMARK                            x       y       z     vdW  Elec       q    Type
REMARK                         _______ _______ _______ _____ _____    ______ ____
ROOT
ATOM      1  C   UNL     1       9.016  -4.068  24.539  0.00  0.00    +0.178 C 
ATOM      2  C   UNL     1       8.277  -3.359  23.399  0.00  0.00    +0.178 C 
ATOM      3  O   UNL     1       6.937  -3.077  23.864  0.00  0.00    -0.346 OA
ATOM      4  C   UNL     1       6.759  -3.648  25.185  0.00  0.00    +0.255 C 
ATOM      5  C   UNL     1       8.176  -3.795  25.777  0.00  0.00    +0.195 C 
ENDROOT
BRANCH   4   6
ATOM      6  N   UNL     1       5.990  -4.904  25.089  0.00  0.00    -0.271 N 
ATOM      7  C   UNL     1       5.595  -5.503  26.285  0.00  0.00    +0.331 A 
ATOM      8  O   UNL     1       5.892  -5.083  27.396  0.00  0.00    -0.246 OA
ATOM      9  N   UNL     1       4.829  -6.631  26.161  0.00  0.00    -0.275 N 
ATOM     10  H   UNL     1       4.527  -7.067  27.018  0.00  0.00    +0.173 HD
ATOM     11  C   UNL     1       4.296  -7.128  25.004  0.00  0.00    +0.254 A 
ATOM     12  O   UNL     1       3.518  -8.067  24.964  0.00  0.00    -0.268 OA
ATOM     13  C   UNL     1       4.719  -6.436  23.773  0.00  0.00    +0.088 A 
ATOM     14  C   UNL     1       5.523  -5.375  23.873  0.00  0.00    +0.098 A 
ENDBRANCH   4   6
BRANCH   1  15
ATOM     15  O   UNL     1       9.053  -5.483  24.281  0.00  0.00    -0.386 OA
ATOM     16  H   UNL     1       9.222  -5.948  25.121  0.00  0.00    +0.210 HD
ENDBRANCH   1  15
BRANCH   5  17
ATOM     17  O   UNL     1       8.577  -2.580  26.415  0.00  0.00    -0.385 OA
ATOM     18  H   UNL     1       8.808  -1.935  25.724  0.00  0.00    +0.210 HD
ENDBRANCH   5  17
BRANCH   2  19
ATOM     19  C   UNL     1       8.937  -2.075  22.880  0.00  0.00    +0.206 C 
BRANCH  19  20
ATOM     20  O   UNL     1       9.490  -1.342  23.944  0.00  0.00    -0.284 OA
BRANCH  20  21
ATOM     21  P   UNL     1       8.995   0.191  24.258  0.00  0.00    +0.484 P 
ATOM     22  O   UNL     1       7.669  -0.082  24.980  0.00  0.00    -0.227 OA
BRANCH  21  23
ATOM     23  O   UNL     1       9.724   0.066  25.822  0.00  0.00    -0.302 OA
ATOM     24  H   UNL     1      10.295   0.864  25.824  0.00  0.00    +0.222 HD
ENDBRANCH  21  23
BRANCH  21  25
ATOM     25  O   UNL     1       8.266   0.316  22.694  0.00  0.00    -0.176 OA
BRANCH  25  26
ATOM     26  P   UNL     1       8.559   1.991  22.492  0.00  0.00    +0.539 P 
ATOM     27  O   UNL     1       7.345   2.744  22.021  0.00  0.00    -0.215 OA
BRANCH  26  28
ATOM     28  O   UNL     1       9.800   2.031  21.469  0.00  0.00    -0.293 OA
ATOM     29  H   UNL     1       9.858   1.247  20.897  0.00  0.00    +0.223 HD
ENDBRANCH  26  28
BRANCH  26  30
ATOM     30  O   UNL     1       9.249   2.655  23.790  0.00  0.00    -0.404 OA
BRANCH  30  31
ATOM     31  C   UNL     1      10.169   3.705  23.667  0.00  0.00    +0.132 A 
ATOM     32  C   UNL     1      11.531   3.622  23.392  0.00  0.00    +0.046 A 
ATOM     33  C   UNL     1      12.306   4.805  23.358  0.00  0.00    +0.004 A 
ATOM     34  C   UNL     1      11.706   6.043  23.594  0.00  0.00    +0.000 A 
ATOM     35  C   UNL     1      10.340   6.099  23.876  0.00  0.00    +0.004 A 
ATOM     36  C   UNL     1       9.585   4.937  23.909  0.00  0.00    +0.046 A 
ENDBRANCH  30  31
ENDBRANCH  26  30
ENDBRANCH  25  26
ENDBRANCH  21  25
ENDBRANCH  20  21
ENDBRANCH  19  20
ENDBRANCH   2  19
TORSDOF 12
ENDMDL
MODEL 5
REMARK VINA RESULT:      -7.1      2.005      3.175
REMARK  Name = 
REMARK  12 active torsions:
REMARK  status: ('A' for Active; 'I' for Inactive)
REMARK    1  A    between atoms: O_1  and  C_2
REMARK    2  A    between atoms: C_4  and  O_6
REMARK    3  A    between atoms: C_7  and  N_28
REMARK    4  A    between atoms: C_10  and  C_12
REMARK    5  A    between atoms: C_12  and  O_13
REMARK    6  A    between atoms: O_13  and  P_14
REMARK    7  A    between atoms: P_14  and  O_15
REMARK    8  A    between atoms: P_14  and  O_17
REMARK    9  A    between atoms: O_17  and  P_18
REMARK   10  A    between atoms: P_18  and  O_19
REMARK   11  A    between atoms: P_18  and  O_21
REMARK   12  A    between atoms: O_21  and  C_22
REMARK                            x       y       z     vdW  Elec       q    Type
REMARK                         _______ _______ _______ _____ _____    ______ ____
ROOT
ATOM      1  C   UNL     1       9.436  -0.904  25.378  0.00  0.00    +0.178 C 
ATOM      2  C   UNL     1       7.960  -1.298  25.497  0.00  0.00    +0.178 C 
ATOM      3  O   UNL     1       7.378  -1.193  24.177  0.00  0.00    -0.346 OA
ATOM      4  C   UNL     1       8.369  -0.668  23.258  0.00  0.00    +0.255 C 
ATOM      5  C   UNL     1       9.741  -0.981  23.890  0.00  0.00    +0.195 C 
ENDROOT
BRANCH   4   6
ATOM      6  N   UNL     1       8.112   0.764  23.007  0.00  0.00    -0.271 N 
ATOM      7  C   UNL     1       8.928   1.404  22.075  0.00  0.00    +0.331 A 
ATOM      8  O   UNL     1       9.868   0.871  21.501  0.00  0.00    -0.246 OA
ATOM      9  N   UNL     1       8.622   2.715  21.818  0.00  0.00    -0.275 N 
ATOM     10  H   UNL     1       9.197   3.186  21.137  0.00  0.00    +0.173 HD
ATOM     11  C   UNL     1       7.522   3.395  22.261  0.00  0.00    +0.254 A 
ATOM     12  O   UNL     1       7.232   4.524  21.902  0.00  0.00    -0.268 OA
ATOM     13  C   UNL     1       6.676   2.657  23.217  0.00  0.00    +0.088 A 
ATOM     14  C   UNL     1       7.000   1.401  23.532  0.00  0.00    +0.098 A 
ENDBRANCH   4   6
BRANCH   1  15
ATOM     15  O   UNL     1       9.612   0.447  25.838  0.00  0.00    -0.386 OA
ATOM     16  H   UNL     1       8.736   0.827  26.035  0.00  0.00    +0.210 HD
ENDBRANCH   1  15
BRANCH   5  17
ATOM     17  O   UNL     1      10.171  -2.294  23.520  0.00  0.00    -0.385 OA
ATOM     18  H   UNL     1      10.208  -2.340  22.549  0.00  0.00    +0.210 HD
ENDBRANCH   5  17
BRANCH   2  19
ATOM     19  C   UNL     1       7.691  -2.690  26.084  0.00  0.00    +0.206 C 
BRANCH  19  20
ATOM     20  O   UNL     1       8.728  -3.575  25.742  0.00  0.00    -0.284 OA
BRANCH  20  21
ATOM     21  P   UNL     1       8.397  -5.056  25.113  0.00  0.00    +0.484 P 
ATOM     22  O   UNL     1       9.798  -5.683  25.115  0.00  0.00    -0.227 OA
BRANCH  21  23
ATOM     23  O   UNL     1       8.262  -5.668  26.725  0.00  0.00    -0.302 OA
ATOM     24  H   UNL     1       7.682  -4.990  27.132  0.00  0.00    +0.222 HD
ENDBRANCH  21  23
BRANCH  21  25
ATOM     25  O   UNL     1       8.534  -4.443  23.501  0.00  0.00    -0.176 OA
BRANCH  25  26
ATOM     26  P   UNL     1       6.948  -4.869  23.013  0.00  0.00    +0.539 P 
ATOM     27  O   UNL     1       6.931  -5.945  21.962  0.00  0.00    -0.215 OA
BRANCH  26  28
ATOM     28  O   UNL     1       6.317  -3.469  22.535  0.00  0.00    -0.293 OA
ATOM     29  H   UNL     1       6.009  -3.475  21.614  0.00  0.00    +0.223 HD
ENDBRANCH  26  28
BRANCH  26  30
ATOM     30  O   UNL     1       5.986  -5.195  24.265  0.00  0.00    -0.404 OA
BRANCH  30  31
ATOM     31  C   UNL     1       4.766  -5.862  24.090  0.00  0.00    +0.132 A 
ATOM     32  C   UNL     1       3.773  -5.598  23.151  0.00  0.00    +0.046 A 
ATOM     33  C   UNL     1       2.581  -6.359  23.169  0.00  0.00    +0.004 A 
ATOM     34  C   UNL     1       2.408  -7.369  24.117  0.00  0.00    +0.000 A 
ATOM     35  C   UNL     1       3.415  -7.608  25.053  0.00  0.00    +0.004 A 
ATOM     36  C   UNL     1       4.581  -6.859  25.032  0.00  0.00    +0.046 A 
ENDBRANCH  30  31
ENDBRANCH  26  30
ENDBRANCH  25  26
ENDBRANCH  21  25
ENDBRANCH  20  21
ENDBRANCH  19  20
ENDBRANCH   2  19
TORSDOF 12
ENDMDL
MODEL 6
REMARK VINA RESULT:      -6.9      3.629      8.418
REMARK  Name = 
REMARK  12 active torsions:
REMARK  status: ('A' for Active; 'I' for Inactive)
REMARK    1  A    between atoms: O_1  and  C_2
REMARK    2  A    between atoms: C_4  and  O_6
REMARK    3  A    between atoms: C_7  and  N_28
REMARK    4  A    between atoms: C_10  and  C_12
REMARK    5  A    between atoms: C_12  and  O_13
REMARK    6  A    between atoms: O_13  and  P_14
REMARK    7  A    between atoms: P_14  and  O_15
REMARK    8  A    between atoms: P_14  and  O_17
REMARK    9  A    between atoms: O_17  and  P_18
REMARK   10  A    between atoms: P_18  and  O_19
REMARK   11  A    between atoms: P_18  and  O_21
REMARK   12  A    between atoms: O_21  and  C_22
REMARK                            x       y       z     vdW  Elec       q    Type
REMARK                         _______ _______ _______ _____ _____    ______ ____
ROOT
ATOM      1  C   UNL     1       5.901  -2.010  24.371  0.00  0.00    +0.178 C 
ATOM      2  C   UNL     1       6.897  -2.473  25.439  0.00  0.00    +0.178 C 
ATOM      3  O   UNL     1       7.422  -3.752  25.014  0.00  0.00    -0.346 OA
ATOM      4  C   UNL     1       6.748  -4.164  23.798  0.00  0.00    +0.255 C 
ATOM      5  C   UNL     1       6.205  -2.872  23.155  0.00  0.00    +0.195 C 
ENDROOT
BRANCH   4   6
ATOM      6  N   UNL     1       5.726  -5.181  24.112  0.00  0.00    -0.271 N 
ATOM      7  C   UNL     1       5.063  -5.772  23.036  0.00  0.00    +0.331 A 
ATOM      8  O   UNL     1       5.237  -5.461  21.865  0.00  0.00    -0.246 OA
ATOM      9  N   UNL     1       4.167  -6.757  23.358  0.00  0.00    -0.275 N 
ATOM     10  H   UNL     1       3.689  -7.200  22.588  0.00  0.00    +0.173 HD
ATOM     11  C   UNL     1       3.977  -7.312  24.592  0.00  0.00    +0.254 A 
ATOM     12  O   UNL     1       3.255  -8.272  24.802  0.00  0.00    -0.268 OA
ATOM     13  C   UNL     1       4.729  -6.670  25.687  0.00  0.00    +0.088 A 
ATOM     14  C   UNL     1       5.556  -5.663  25.399  0.00  0.00    +0.098 A 
ENDBRANCH   4   6
BRANCH   1  15
ATOM     15  O   UNL     1       4.559  -2.265  24.822  0.00  0.00    -0.386 OA
ATOM     16  H   UNL     1       4.024  -2.554  24.060  0.00  0.00    +0.210 HD
ENDBRANCH   1  15
BRANCH   5  17
ATOM     17  O   UNL     1       7.206  -2.267  22.332  0.00  0.00    -0.385 OA
ATOM     18  H   UNL     1       6.937  -2.367  21.403  0.00  0.00    +0.210 HD
ENDBRANCH   5  17
BRANCH   2  19
ATOM     19  C   UNL     1       8.049  -1.502  25.736  0.00  0.00    +0.206 C 
BRANCH  19  20
ATOM     20  O   UNL     1       8.161  -0.546  24.712  0.00  0.00    -0.284 OA
BRANCH  20  21
ATOM     21  P   UNL     1       9.566  -0.360  23.883  0.00  0.00    +0.484 P 
ATOM     22  O   UNL     1      10.551  -0.149  25.039  0.00  0.00    -0.227 OA
BRANCH  21  23
ATOM     23  O   UNL     1       9.873  -2.049  24.100  0.00  0.00    -0.302 OA
ATOM     24  H   UNL     1       9.674  -2.390  23.202  0.00  0.00    +0.222 HD
ENDBRANCH  21  23
BRANCH  21  25
ATOM     25  O   UNL     1       9.258   1.328  23.666  0.00  0.00    -0.176 OA
BRANCH  25  26
ATOM     26  P   UNL     1       9.163   1.275  21.956  0.00  0.00    +0.539 P 
ATOM     27  O   UNL     1       9.363  -0.109  21.403  0.00  0.00    -0.215 OA
BRANCH  26  28
ATOM     28  O   UNL     1      10.276   2.340  21.490  0.00  0.00    -0.293 OA
ATOM     29  H   UNL     1      10.588   2.203  20.580  0.00  0.00    +0.223 HD
ENDBRANCH  26  28
BRANCH  26  30
ATOM     30  O   UNL     1       7.835   1.996  21.391  0.00  0.00    -0.404 OA
BRANCH  30  31
ATOM     31  C   UNL     1       6.993   2.730  22.235  0.00  0.00    +0.132 A 
ATOM     32  C   UNL     1       5.971   2.254  23.052  0.00  0.00    +0.046 A 
ATOM     33  C   UNL     1       5.194   3.170  23.798  0.00  0.00    +0.004 A 
ATOM     34  C   UNL     1       5.454   4.539  23.718  0.00  0.00    +0.000 A 
ATOM     35  C   UNL     1       6.478   4.993  22.885  0.00  0.00    +0.004 A 
ATOM     36  C   UNL     1       7.237   4.091  22.156  0.00  0.00    +0.046 A 
ENDBRANCH  30  31
ENDBRANCH  26  30
ENDBRANCH  25  26
ENDBRANCH  21  25
ENDBRANCH  20  21
ENDBRANCH  19  20
ENDBRANCH   2  19
TORSDOF 12
ENDMDL
MODEL 7
REMARK VINA RESULT:      -6.8      3.514      9.086
REMARK  Name = 
REMARK  12 active torsions:
REMARK  status: ('A' for Active; 'I' for Inactive)
REMARK    1  A    between atoms: O_1  and  C_2
REMARK    2  A    between atoms: C_4  and  O_6
REMARK    3  A    between atoms: C_7  and  N_28
REMARK    4  A    between atoms: C_10  and  C_12
REMARK    5  A    between atoms: C_12  and  O_13
REMARK    6  A    between atoms: O_13  and  P_14
REMARK    7  A    between atoms: P_14  and  O_15
REMARK    8  A    between atoms: P_14  and  O_17
REMARK    9  A    between atoms: O_17  and  P_18
REMARK   10  A    between atoms: P_18  and  O_19
REMARK   11  A    between atoms: P_18  and  O_21
REMARK   12  A    between atoms: O_21  and  C_22
REMARK                            x       y       z     vdW  Elec       q    Type
REMARK                         _______ _______ _______ _____ _____    ______ ____
ROOT
ATOM      1  C   UNL     1       7.448  -4.733  22.967  0.00  0.00    +0.178 C 
ATOM      2  C   UNL     1       6.445  -3.592  22.769  0.00  0.00    +0.178 C 
ATOM      3  O   UNL     1       5.622  -3.530  23.956  0.00  0.00    -0.346 OA
ATOM      4  C   UNL     1       5.981  -4.619  24.844  0.00  0.00    +0.255 C 
ATOM      5  C   UNL     1       7.420  -5.022  24.460  0.00  0.00    +0.195 C 
ENDROOT
BRANCH   4   6
ATOM      6  N   UNL     1       4.983  -5.701  24.739  0.00  0.00    -0.271 N 
ATOM      7  C   UNL     1       4.938  -6.631  25.778  0.00  0.00    +0.331 A 
ATOM      8  O   UNL     1       5.705  -6.634  26.732  0.00  0.00    -0.246 OA
ATOM      9  N   UNL     1       3.959  -7.583  25.683  0.00  0.00    -0.275 N 
ATOM     10  H   UNL     1       3.909  -8.255  26.434  0.00  0.00    +0.173 HD
ATOM     11  C   UNL     1       2.945  -7.618  24.766  0.00  0.00    +0.254 A 
ATOM     12  O   UNL     1       2.026  -8.420  24.800  0.00  0.00    -0.268 OA
ATOM     13  C   UNL     1       3.022  -6.591  23.711  0.00  0.00    +0.088 A 
ATOM     14  C   UNL     1       4.012  -5.696  23.751  0.00  0.00    +0.098 A 
ENDBRANCH   4   6
BRANCH   1  15
ATOM     15  O   UNL     1       7.006  -5.894  22.242  0.00  0.00    -0.386 OA
ATOM     16  H   UNL     1       7.669  -6.599  22.347  0.00  0.00    +0.210 HD
ENDBRANCH   1  15
BRANCH   5  17
ATOM     17  O   UNL     1       8.367  -4.210  25.160  0.00  0.00    -0.385 OA
ATOM     18  H   UNL     1       8.424  -4.530  26.076  0.00  0.00    +0.210 HD
ENDBRANCH   5  17
BRANCH   2  19
ATOM     19  C   UNL     1       7.058  -2.215  22.479  0.00  0.00    +0.206 C 
BRANCH  19  20
ATOM     20  O   UNL     1       8.457  -2.309  22.386  0.00  0.00    -0.284 OA
BRANCH  20  21
ATOM     21  P   UNL     1       9.428  -1.310  23.253  0.00  0.00    +0.484 P 
ATOM     22  O   UNL     1       8.793  -1.433  24.644  0.00  0.00    -0.227 OA
BRANCH  21  23
ATOM     23  O   UNL     1      10.375  -2.685  23.706  0.00  0.00    -0.302 OA
ATOM     24  H   UNL     1       9.748  -3.413  23.510  0.00  0.00    +0.222 HD
ENDBRANCH  21  23
BRANCH  21  25
ATOM     25  O   UNL     1       8.481   0.065  22.800  0.00  0.00    -0.176 OA
BRANCH  25  26
ATOM     26  P   UNL     1       9.709   1.227  23.073  0.00  0.00    +0.539 P 
ATOM     27  O   UNL     1      10.273   1.790  21.797  0.00  0.00    -0.215 OA
BRANCH  26  28
ATOM     28  O   UNL     1      10.778   0.433  23.975  0.00  0.00    -0.293 OA
ATOM     29  H   UNL     1      11.414   1.013  24.425  0.00  0.00    +0.223 HD
ENDBRANCH  26  28
BRANCH  26  30
ATOM     30  O   UNL     1       9.255   2.368  24.119  0.00  0.00    -0.404 OA
BRANCH  30  31
ATOM     31  C   UNL     1       9.035   3.687  23.705  0.00  0.00    +0.132 A 
ATOM     32  C   UNL     1       9.832   4.804  23.942  0.00  0.00    +0.046 A 
ATOM     33  C   UNL     1       9.409   6.071  23.479  0.00  0.00    +0.004 A 
ATOM     34  C   UNL     1       8.204   6.197  22.786  0.00  0.00    +0.000 A 
ATOM     35  C   UNL     1       7.418   5.065  22.569  0.00  0.00    +0.004 A 
ATOM     36  C   UNL     1       7.837   3.825  23.025  0.00  0.00    +0.046 A 
ENDBRANCH  30  31
ENDBRANCH  26  30
ENDBRANCH  25  26
ENDBRANCH  21  25
ENDBRANCH  20  21
ENDBRANCH  19  20
ENDBRANCH   2  19
TORSDOF 12
ENDMDL
MODEL 8
REMARK VINA RESULT:      -6.8      1.765      2.421
REMARK  Name = 
REMARK  12 active torsions:
REMARK  status: ('A' for Active; 'I' for Inactive)
REMARK    1  A    between atoms: O_1  and  C_2
REMARK    2  A    between atoms: C_4  and  O_6
REMARK    3  A    between atoms: C_7  and  N_28
REMARK    4  A    between atoms: C_10  and  C_12
REMARK    5  A    between atoms: C_12  and  O_13
REMARK    6  A    between atoms: O_13  and  P_14
REMARK    7  A    between atoms: P_14  and  O_15
REMARK    8  A    between atoms: P_14  and  O_17
REMARK    9  A    between atoms: O_17  and  P_18
REMARK   10  A    between atoms: P_18  and  O_19
REMARK   11  A    between atoms: P_18  and  O_21
REMARK   12  A    between atoms: O_21  and  C_22
REMARK                            x       y       z     vdW  Elec       q    Type
REMARK                         _______ _______ _______ _____ _____    ______ ____
ROOT
ATOM      1  C   UNL     1       8.765   0.198  22.083  0.00  0.00    +0.178 C 
ATOM      2  C   UNL     1      10.051  -0.366  22.698  0.00  0.00    +0.178 C 
ATOM      3  O   UNL     1      10.214   0.252  23.996  0.00  0.00    -0.346 OA
ATOM      4  C   UNL     1       9.166   1.235  24.193  0.00  0.00    +0.255 C 
ATOM      5  C   UNL     1       8.017   0.824  23.249  0.00  0.00    +0.195 C 
ENDROOT
BRANCH   4   6
ATOM      6  N   UNL     1       9.702   2.591  23.966  0.00  0.00    -0.271 N 
ATOM      7  C   UNL     1       8.937   3.664  24.424  0.00  0.00    +0.331 A 
ATOM      8  O   UNL     1       7.836   3.551  24.945  0.00  0.00    -0.246 OA
ATOM      9  N   UNL     1       9.493   4.905  24.256  0.00  0.00    -0.275 N 
ATOM     10  H   UNL     1       8.955   5.688  24.594  0.00  0.00    +0.173 HD
ATOM     11  C   UNL     1      10.764   5.176  23.834  0.00  0.00    +0.254 A 
ATOM     12  O   UNL     1      11.251   6.294  23.820  0.00  0.00    -0.268 OA
ATOM     13  C   UNL     1      11.540   4.001  23.396  0.00  0.00    +0.088 A 
ATOM     14  C   UNL     1      10.987   2.790  23.488  0.00  0.00    +0.098 A 
ENDBRANCH   4   6
BRANCH   1  15
ATOM     15  O   UNL     1       9.097   1.213  21.120  0.00  0.00    -0.386 OA
ATOM     16  H   UNL     1       8.699   2.055  21.405  0.00  0.00    +0.210 HD
ENDBRANCH   1  15
BRANCH   5  17
ATOM     17  O   UNL     1       7.166  -0.132  23.889  0.00  0.00    -0.385 OA
ATOM     18  H   UNL     1       7.483  -0.261  24.799  0.00  0.00    +0.210 HD
ENDBRANCH   5  17
BRANCH   2  19
ATOM     19  C   UNL     1      10.108  -1.894  22.829  0.00  0.00    +0.206 C 
BRANCH  19  20
ATOM     20  O   UNL     1       8.811  -2.430  22.893  0.00  0.00    -0.284 OA
BRANCH  20  21
ATOM     21  P   UNL     1       8.365  -3.411  24.131  0.00  0.00    +0.484 P 
ATOM     22  O   UNL     1       9.690  -4.131  24.414  0.00  0.00    -0.227 OA
BRANCH  21  23
ATOM     23  O   UNL     1       8.932  -2.209  25.238  0.00  0.00    -0.302 OA
ATOM     24  H   UNL     1       9.862  -2.496  25.361  0.00  0.00    +0.222 HD
ENDBRANCH  21  23
BRANCH  21  25
ATOM     25  O   UNL     1       7.799  -4.614  23.024  0.00  0.00    -0.176 OA
BRANCH  25  26
ATOM     26  P   UNL     1       6.158  -4.123  23.050  0.00  0.00    +0.539 P 
ATOM     27  O   UNL     1       5.596  -3.892  21.674  0.00  0.00    -0.215 OA
BRANCH  26  28
ATOM     28  O   UNL     1       6.176  -2.813  23.984  0.00  0.00    -0.293 OA
ATOM     29  H   UNL     1       5.310  -2.380  24.064  0.00  0.00    +0.223 HD
ENDBRANCH  26  28
BRANCH  26  30
ATOM     30  O   UNL     1       5.239  -5.095  23.952  0.00  0.00    -0.404 OA
BRANCH  30  31
ATOM     31  C   UNL     1       3.847  -4.951  23.988  0.00  0.00    +0.132 A 
ATOM     32  C   UNL     1       3.093  -4.114  24.807  0.00  0.00    +0.046 A 
ATOM     33  C   UNL     1       1.682  -4.151  24.727  0.00  0.00    +0.004 A 
ATOM     34  C   UNL     1       1.053  -5.015  23.829  0.00  0.00    +0.000 A 
ATOM     35  C   UNL     1       1.830  -5.850  23.025  0.00  0.00    +0.004 A 
ATOM     36  C   UNL     1       3.213  -5.811  23.108  0.00  0.00    +0.046 A 
ENDBRANCH  30  31
ENDBRANCH  26  30
ENDBRANCH  25  26
ENDBRANCH  21  25
ENDBRANCH  20  21
ENDBRANCH  19  20
ENDBRANCH   2  19
TORSDOF 12
ENDMDL
MODEL 9
REMARK VINA RESULT:      -6.8      3.555      8.282
REMARK  Name = 
REMARK  12 active torsions:
REMARK  status: ('A' for Active; 'I' for Inactive)
REMARK    1  A    between atoms: O_1  and  C_2
REMARK    2  A    between atoms: C_4  and  O_6
REMARK    3  A    between atoms: C_7  and  N_28
REMARK    4  A    between atoms: C_10  and  C_12
REMARK    5  A    between atoms: C_12  and  O_13
REMARK    6  A    between atoms: O_13  and  P_14
REMARK    7  A    between atoms: P_14  and  O_15
REMARK    8  A    between atoms: P_14  and  O_17
REMARK    9  A    between atoms: O_17  and  P_18
REMARK   10  A    between atoms: P_18  and  O_19
REMARK   11  A    between atoms: P_18  and  O_21
REMARK   12  A    between atoms: O_21  and  C_22
REMARK                            x       y       z     vdW  Elec       q    Type
REMARK                         _______ _______ _______ _____ _____    ______ ____
ROOT
ATOM      1  C   UNL     1       4.949  -3.446  23.413  0.00  0.00    +0.178 C 
ATOM      2  C   UNL     1       6.395  -3.048  23.729  0.00  0.00    +0.178 C 
ATOM      3  O   UNL     1       7.117  -4.261  24.044  0.00  0.00    -0.346 OA
ATOM      4  C   UNL     1       6.196  -5.380  24.038  0.00  0.00    +0.255 C 
ATOM      5  C   UNL     1       5.004  -4.945  23.161  0.00  0.00    +0.195 C 
ENDROOT
BRANCH   4   6
ATOM      6  N   UNL     1       5.847  -5.749  25.424  0.00  0.00    -0.271 N 
ATOM      7  C   UNL     1       4.962  -6.813  25.597  0.00  0.00    +0.331 A 
ATOM      8  O   UNL     1       4.421  -7.415  24.679  0.00  0.00    -0.246 OA
ATOM      9  N   UNL     1       4.709  -7.171  26.895  0.00  0.00    -0.275 N 
ATOM     10  H   UNL     1       4.079  -7.947  27.033  0.00  0.00    +0.173 HD
ATOM     11  C   UNL     1       5.345  -6.698  28.008  0.00  0.00    +0.254 A 
ATOM     12  O   UNL     1       5.169  -7.140  29.131  0.00  0.00    -0.268 OA
ATOM     13  C   UNL     1       6.296  -5.597  27.762  0.00  0.00    +0.088 A 
ATOM     14  C   UNL     1       6.503  -5.190  26.508  0.00  0.00    +0.098 A 
ENDBRANCH   4   6
BRANCH   1  15
ATOM     15  O   UNL     1       4.116  -3.177  24.553  0.00  0.00    -0.386 OA
ATOM     16  H   UNL     1       3.783  -4.024  24.903  0.00  0.00    +0.210 HD
ENDBRANCH   1  15
BRANCH   5  17
ATOM     17  O   UNL     1       5.271  -5.227  21.784  0.00  0.00    -0.385 OA
ATOM     18  H   UNL     1       5.054  -6.159  21.616  0.00  0.00    +0.210 HD
ENDBRANCH   5  17
BRANCH   2  19
ATOM     19  C   UNL     1       7.124  -2.270  22.625  0.00  0.00    +0.206 C 
BRANCH  19  20
ATOM     20  O   UNL     1       8.495  -2.578  22.631  0.00  0.00    -0.284 OA
BRANCH  20  21
ATOM     21  P   UNL     1       9.622  -1.400  22.832  0.00  0.00    +0.484 P 
ATOM     22  O   UNL     1      10.907  -2.186  22.546  0.00  0.00    -0.227 OA
BRANCH  21  23
ATOM     23  O   UNL     1       9.571  -1.113  21.127  0.00  0.00    -0.302 OA
ATOM     24  H   UNL     1      10.514  -1.244  20.890  0.00  0.00    +0.222 HD
ENDBRANCH  21  23
BRANCH  21  25
ATOM     25  O   UNL     1       9.672  -1.688  24.537  0.00  0.00    -0.176 OA
BRANCH  25  26
ATOM     26  P   UNL     1       9.548  -0.044  25.001  0.00  0.00    +0.539 P 
ATOM     27  O   UNL     1      10.801   0.738  24.719  0.00  0.00    -0.215 OA
BRANCH  26  28
ATOM     28  O   UNL     1       9.156  -0.126  26.559  0.00  0.00    -0.293 OA
ATOM     29  H   UNL     1       9.430   0.653  27.071  0.00  0.00    +0.223 HD
ENDBRANCH  26  28
BRANCH  26  30
ATOM     30  O   UNL     1       8.220   0.661  24.418  0.00  0.00    -0.404 OA
BRANCH  30  31
ATOM     31  C   UNL     1       8.194   2.029  24.121  0.00  0.00    +0.132 A 
ATOM     32  C   UNL     1       8.503   3.094  24.963  0.00  0.00    +0.046 A 
ATOM     33  C   UNL     1       8.366   4.418  24.487  0.00  0.00    +0.004 A 
ATOM     34  C   UNL     1       7.931   4.653  23.181  0.00  0.00    +0.000 A 
ATOM     35  C   UNL     1       7.620   3.569  22.359  0.00  0.00    +0.004 A 
ATOM     36  C   UNL     1       7.754   2.273  22.831  0.00  0.00    +0.046 A 
ENDBRANCH  30  31
ENDBRANCH  26  30
ENDBRANCH  25  26
ENDBRANCH  21  25
ENDBRANCH  20  21
ENDBRANCH  19  20
ENDBRANCH   2  19
TORSDOF 12
ENDMDL
