MODEL 1
REMARK VINA RESULT:      -6.3      0.000      0.000
REMARK  Name = 
REMARK  8 active torsions:
REMARK  status: ('A' for Active; 'I' for Inactive)
REMARK    1  A    between atoms: N_6  and  C_9
REMARK    2  A    between atoms: C_12  and  C_14
REMARK    3  A    between atoms: C_14  and  O_15
REMARK    4  A    between atoms: O_15  and  P_16
REMARK    5  A    between atoms: P_16  and  O_17
REMARK    6  A    between atoms: P_16  and  O_18
REMARK    7  A    between atoms: C_20  and  O_22
REMARK    8  A    between atoms: C_23  and  O_25
REMARK                            x       y       z     vdW  Elec       q    Type
REMARK                         _______ _______ _______ _____ _____    ______ ____
ROOT
ATOM      1  C   UNL     1       9.238  -1.871  23.181  0.00  0.00    +0.255 C 
ATOM      2  C   UNL     1       9.257  -2.663  24.504  0.00  0.00    +0.195 C 
ATOM      3  C   UNL     1       7.807  -2.626  24.988  0.00  0.00    +0.178 C 
ATOM      4  C   UNL     1       7.030  -1.930  23.862  0.00  0.00    +0.178 C 
ATOM      5  O   UNL     1       7.877  -1.966  22.708  0.00  0.00    -0.346 OA
ENDROOT
BRANCH   1  12
ATOM      6  N   UNL     1      10.812   3.423  23.016  0.00  0.00    -0.343 N 
ATOM      7  H   UNL     1      10.682   4.006  23.833  0.00  0.00    +0.144 HD
ATOM      8  H   UNL     1      10.530   3.865  22.146  0.00  0.00    +0.144 HD
ATOM      9  C   UNL     1      10.415   2.117  23.092  0.00  0.00    +0.123 A 
ATOM     10  C   UNL     1      10.415   1.438  24.396  0.00  0.00    +0.061 A 
ATOM     11  C   UNL     1      10.004   0.170  24.391  0.00  0.00    +0.096 A 
ATOM     12  N   UNL     1       9.641  -0.463  23.221  0.00  0.00    -0.270 N 
ATOM     13  C   UNL     1       9.642   0.229  22.004  0.00  0.00    +0.352 A 
ATOM     14  O   UNL     1       9.323  -0.328  20.953  0.00  0.00    -0.244 OA
ATOM     15  N   UNL     1      10.040   1.545  21.994  0.00  0.00    -0.178 NA
ENDBRANCH   1  12
BRANCH   2  16
ATOM     16  O   UNL     1       9.640  -4.034  24.279  0.00  0.00    -0.385 OA
ATOM     17  H   UNL     1       8.835  -4.553  24.112  0.00  0.00    +0.210 HD
ENDBRANCH   2  16
BRANCH   3  18
ATOM     18  O   UNL     1       7.689  -1.898  26.212  0.00  0.00    -0.386 OA
ATOM     19  H   UNL     1       6.839  -2.149  26.619  0.00  0.00    +0.210 HD
ENDBRANCH   3  18
BRANCH   4  20
ATOM     20  C   UNL     1       5.703  -2.647  23.615  0.00  0.00    +0.206 C 
BRANCH  20  21
ATOM     21  O   UNL     1       5.806  -4.082  23.684  0.00  0.00    -0.284 OA
BRANCH  21  22
ATOM     22  P   UNL     1       5.831  -4.967  22.198  0.00  0.00    +0.472 P 
ATOM     23  O   UNL     1       5.853  -5.760  20.869  0.00  0.00    -0.228 OA
BRANCH  22  24
ATOM     24  O   UNL     1       7.465  -4.901  22.256  0.00  0.00    -0.303 OA
ATOM     25  H   UNL     1       7.729  -4.071  22.689  0.00  0.00    +0.222 HD
ENDBRANCH  22  24
BRANCH  22  26
ATOM     26  O   UNL     1       5.531  -3.547  21.440  0.00  0.00    -0.303 OA
ATOM     27  H   UNL     1       4.869  -3.667  20.737  0.00  0.00    +0.222 HD
ENDBRANCH  22  26
ENDBRANCH  21  22
ENDBRANCH  20  21
ENDBRANCH   4  20
TORSDOF 8
ENDMDL
MODEL 2
REMARK VINA RESULT:      -6.2      3.797      6.610
REMARK  Name = 
REMARK  8 active torsions:
REMARK  status: ('A' for Active; 'I' for Inactive)
REMARK    1  A    between atoms: N_6  and  C_9
REMARK    2  A    between atoms: C_12  and  C_14
REMARK    3  A    between atoms: C_14  and  O_15
REMARK    4  A    between atoms: O_15  and  P_16
REMARK    5  A    between atoms: P_16  and  O_17
REMARK    6  A    between atoms: P_16  and  O_18
REMARK    7  A    between atoms: C_20  and  O_22
REMARK    8  A    between atoms: C_23  and  O_25
REMARK                            x       y       z     vdW  Elec       q    Type
REMARK                         _______ _______ _______ _____ _____    ______ ____
ROOT
ATOM      1  C   UNL     1       9.351  -2.572  23.643  0.00  0.00    +0.255 C 
ATOM      2  C   UNL     1       8.817  -1.837  22.398  0.00  0.00    +0.195 C 
ATOM      3  C   UNL     1       8.427  -0.451  22.914  0.00  0.00    +0.178 C 
ATOM      4  C   UNL     1       8.874  -0.435  24.382  0.00  0.00    +0.178 C 
ATOM      5  O   UNL     1       9.790  -1.525  24.536  0.00  0.00    -0.346 OA
ENDROOT
BRANCH   1  12
ATOM      6  N   UNL     1       6.121  -6.168  26.321  0.00  0.00    -0.343 N 
ATOM      7  H   UNL     1       5.252  -5.848  26.729  0.00  0.00    +0.144 HD
ATOM      8  H   UNL     1       6.665  -6.769  26.931  0.00  0.00    +0.144 HD
ATOM      9  C   UNL     1       6.894  -5.253  25.662  0.00  0.00    +0.123 A 
ATOM     10  C   UNL     1       6.255  -4.090  25.029  0.00  0.00    +0.061 A 
ATOM     11  C   UNL     1       7.076  -3.237  24.417  0.00  0.00    +0.096 A 
ATOM     12  N   UNL     1       8.435  -3.465  24.356  0.00  0.00    -0.270 N 
ATOM     13  C   UNL     1       9.001  -4.580  24.987  0.00  0.00    +0.352 A 
ATOM     14  O   UNL     1      10.213  -4.794  24.936  0.00  0.00    -0.244 OA
ATOM     15  N   UNL     1       8.171  -5.457  25.645  0.00  0.00    -0.178 NA
ENDBRANCH   1  12
BRANCH   2  16
ATOM     16  O   UNL     1       9.847  -1.692  21.401  0.00  0.00    -0.385 OA
ATOM     17  H   UNL     1       9.784  -0.799  21.023  0.00  0.00    +0.210 HD
ENDBRANCH   2  16
BRANCH   3  18
ATOM     18  O   UNL     1       7.018  -0.237  22.810  0.00  0.00    -0.386 OA
ATOM     19  H   UNL     1       6.775   0.429  23.479  0.00  0.00    +0.210 HD
ENDBRANCH   3  18
BRANCH   4  20
ATOM     20  C   UNL     1       9.527   0.906  24.720  0.00  0.00    +0.206 C 
BRANCH  20  21
ATOM     21  O   UNL     1       9.265   1.932  23.744  0.00  0.00    -0.284 OA
BRANCH  21  22
ATOM     22  P   UNL     1      10.543   3.034  23.361  0.00  0.00    +0.472 P 
ATOM     23  O   UNL     1      11.686   4.020  23.019  0.00  0.00    -0.228 OA
BRANCH  22  24
ATOM     24  O   UNL     1       9.416   4.217  23.271  0.00  0.00    -0.303 OA
ATOM     25  H   UNL     1       9.830   5.062  23.519  0.00  0.00    +0.222 HD
ENDBRANCH  22  24
BRANCH  22  26
ATOM     26  O   UNL     1      10.462   2.470  21.826  0.00  0.00    -0.303 OA
ATOM     27  H   UNL     1      11.341   2.487  21.408  0.00  0.00    +0.222 HD
ENDBRANCH  22  26
ENDBRANCH  21  22
ENDBRANCH  20  21
ENDBRANCH   4  20
TORSDOF 8
ENDMDL
MODEL 3
REMARK VINA RESULT:      -6.2      2.301      2.725
REMARK  Name = 
REMARK  8 active torsions:
REMARK  status: ('A' for Active; 'I' for Inactive)
REMARK    1  A    between atoms: N_6  and  C_9
REMARK    2  A    between atoms: C_12  and  C_14
REMARK    3  A    between atoms: C_14  and  O_15
REMARK    4  A    between atoms: O_15  and  P_16
REMARK    5  A    between atoms: P_16  and  O_17
REMARK    6  A    between atoms: P_16  and  O_18
REMARK    7  A    between atoms: C_20  and  O_22
REMARK    8  A    between atoms: C_23  and  O_25
REMARK                            x       y       z     vdW  Elec       q    Type
REMARK                         _______ _______ _______ _____ _____    ______ ____
ROOT
ATOM      1  C   UNL     1       9.532  -3.673  24.458  0.00  0.00    +0.255 C 
ATOM      2  C   UNL     1       9.299  -4.549  25.705  0.00  0.00    +0.195 C 
ATOM      3  C   UNL     1       7.835  -4.977  25.599  0.00  0.00    +0.178 C 
ATOM      4  C   UNL     1       7.358  -4.430  24.247  0.00  0.00    +0.178 C 
ATOM      5  O   UNL     1       8.540  -4.111  23.504  0.00  0.00    -0.346 OA
ENDROOT
BRANCH   1  12
ATOM      6  N   UNL     1       9.440   1.838  24.841  0.00  0.00    -0.343 N 
ATOM      7  H   UNL     1       8.696   2.289  25.358  0.00  0.00    +0.144 HD
ATOM      8  H   UNL     1       9.641   2.274  23.946  0.00  0.00    +0.144 HD
ATOM      9  C   UNL     1       9.435   0.473  24.769  0.00  0.00    +0.123 A 
ATOM     10  C   UNL     1       8.821  -0.304  25.855  0.00  0.00    +0.061 A 
ATOM     11  C   UNL     1       8.843  -1.629  25.708  0.00  0.00    +0.096 A 
ATOM     12  N   UNL     1       9.445  -2.220  24.617  0.00  0.00    -0.270 N 
ATOM     13  C   UNL     1      10.005  -1.438  23.599  0.00  0.00    +0.352 A 
ATOM     14  O   UNL     1      10.547  -1.956  22.622  0.00  0.00    -0.244 OA
ATOM     15  N   UNL     1       9.968  -0.069  23.723  0.00  0.00    -0.178 NA
ENDBRANCH   1  12
BRANCH   2  16
ATOM     16  O   UNL     1      10.133  -5.724  25.676  0.00  0.00    -0.385 OA
ATOM     17  H   UNL     1      10.500  -5.815  24.780  0.00  0.00    +0.210 HD
ENDBRANCH   2  16
BRANCH   3  18
ATOM     18  O   UNL     1       7.057  -4.435  26.669  0.00  0.00    -0.386 OA
ATOM     19  H   UNL     1       6.404  -5.111  26.927  0.00  0.00    +0.210 HD
ENDBRANCH   3  18
BRANCH   4  20
ATOM     20  C   UNL     1       6.501  -5.473  23.528  0.00  0.00    +0.206 C 
BRANCH  20  21
ATOM     21  O   UNL     1       5.345  -5.883  24.284  0.00  0.00    -0.284 OA
BRANCH  21  22
ATOM     22  P   UNL     1       3.824  -5.959  23.464  0.00  0.00    +0.472 P 
ATOM     23  O   UNL     1       2.462  -6.027  22.730  0.00  0.00    -0.228 OA
BRANCH  22  24
ATOM     24  O   UNL     1       3.775  -7.554  23.827  0.00  0.00    -0.303 OA
ATOM     25  H   UNL     1       3.311  -8.023  23.112  0.00  0.00    +0.222 HD
ENDBRANCH  22  24
BRANCH  22  26
ATOM     26  O   UNL     1       4.671  -6.028  22.064  0.00  0.00    -0.303 OA
ATOM     27  H   UNL     1       5.071  -6.908  21.948  0.00  0.00    +0.222 HD
ENDBRANCH  22  26
ENDBRANCH  21  22
ENDBRANCH  20  21
ENDBRANCH   4  20
TORSDOF 8
ENDMDL
MODEL 4
REMARK VINA RESULT:      -6.1      1.811      2.496
REMARK  Name = 
REMARK  8 active torsions:
REMARK  status: ('A' for Active; 'I' for Inactive)
REMARK    1  A    between atoms: N_6  and  C_9
REMARK    2  A    between atoms: C_12  and  C_14
REMARK    3  A    between atoms: C_14  and  O_15
REMARK    4  A    between atoms: O_15  and  P_16
REMARK    5  A    between atoms: P_16  and  O_17
REMARK    6  A    between atoms: P_16  and  O_18
REMARK    7  A    between atoms: C_20  and  O_22
REMARK    8  A    between atoms: C_23  and  O_25
REMARK                            x       y       z     vdW  Elec       q    Type
REMARK                         _______ _______ _______ _____ _____    ______ ____
ROOT
ATOM      1  C   UNL     1       9.378  -2.573  24.317  0.00  0.00    +0.255 C 
ATOM      2  C   UNL     1       8.272  -2.577  25.391  0.00  0.00    +0.195 C 
ATOM      3  C   UNL     1       7.093  -3.282  24.719  0.00  0.00    +0.178 C 
ATOM      4  C   UNL     1       7.632  -3.746  23.359  0.00  0.00    +0.178 C 
ATOM      5  O   UNL     1       9.060  -3.683  23.449  0.00  0.00    -0.346 OA
ENDROOT
BRANCH   1  12
ATOM      6  N   UNL     1       9.989   2.171  21.551  0.00  0.00    -0.343 N 
ATOM      7  H   UNL     1      10.252   2.147  20.574  0.00  0.00    +0.144 HD
ATOM      8  H   UNL     1      10.503   2.854  22.098  0.00  0.00    +0.144 HD
ATOM      9  C   UNL     1       9.843   0.979  22.204  0.00  0.00    +0.123 A 
ATOM     10  C   UNL     1       9.452  -0.217  21.444  0.00  0.00    +0.061 A 
ATOM     11  C   UNL     1       9.342  -1.343  22.149  0.00  0.00    +0.096 A 
ATOM     12  N   UNL     1       9.546  -1.360  23.512  0.00  0.00    -0.270 N 
ATOM     13  C   UNL     1       9.932  -0.198  24.192  0.00  0.00    +0.352 A 
ATOM     14  O   UNL     1      10.114  -0.203  25.410  0.00  0.00    -0.244 OA
ATOM     15  N   UNL     1      10.075   0.967  23.476  0.00  0.00    -0.178 NA
ENDBRANCH   1  12
BRANCH   2  16
ATOM     16  O   UNL     1       8.676  -3.338  26.546  0.00  0.00    -0.385 OA
ATOM     17  H   UNL     1       9.639  -3.253  26.647  0.00  0.00    +0.210 HD
ENDBRANCH   2  16
BRANCH   3  18
ATOM     18  O   UNL     1       5.986  -2.394  24.551  0.00  0.00    -0.386 OA
ATOM     19  H   UNL     1       6.052  -1.711  25.244  0.00  0.00    +0.210 HD
ENDBRANCH   3  18
BRANCH   4  20
ATOM     20  C   UNL     1       7.145  -5.163  23.055  0.00  0.00    +0.206 C 
BRANCH  20  21
ATOM     21  O   UNL     1       6.102  -5.613  23.940  0.00  0.00    -0.284 OA
BRANCH  21  22
ATOM     22  P   UNL     1       4.506  -5.785  23.294  0.00  0.00    +0.472 P 
ATOM     23  O   UNL     1       3.078  -5.939  22.716  0.00  0.00    -0.228 OA
BRANCH  22  24
ATOM     24  O   UNL     1       4.532  -7.340  23.804  0.00  0.00    -0.303 OA
ATOM     25  H   UNL     1       5.164  -7.416  24.540  0.00  0.00    +0.222 HD
ENDBRANCH  22  24
BRANCH  22  26
ATOM     26  O   UNL     1       5.207  -5.972  21.826  0.00  0.00    -0.303 OA
ATOM     27  H   UNL     1       5.658  -6.833  21.768  0.00  0.00    +0.222 HD
ENDBRANCH  22  26
ENDBRANCH  21  22
ENDBRANCH  20  21
ENDBRANCH   4  20
TORSDOF 8
ENDMDL
MODEL 5
REMARK VINA RESULT:      -5.9      4.203      6.661
REMARK  Name = 
REMARK  8 active torsions:
REMARK  status: ('A' for Active; 'I' for Inactive)
REMARK    1  A    between atoms: N_6  and  C_9
REMARK    2  A    between atoms: C_12  and  C_14
REMARK    3  A    between atoms: C_14  and  O_15
REMARK    4  A    between atoms: O_15  and  P_16
REMARK    5  A    between atoms: P_16  and  O_17
REMARK    6  A    between atoms: P_16  and  O_18
REMARK    7  A    between atoms: C_20  and  O_22
REMARK    8  A    between atoms: C_23  and  O_25
REMARK                            x       y       z     vdW  Elec       q    Type
REMARK                         _______ _______ _______ _____ _____    ______ ____
ROOT
ATOM      1  C   UNL     1       9.677   0.341  23.501  0.00  0.00    +0.255 C 
ATOM      2  C   UNL     1       8.757   0.755  22.336  0.00  0.00    +0.195 C 
ATOM      3  C   UNL     1       7.694   1.640  22.988  0.00  0.00    +0.178 C 
ATOM      4  C   UNL     1       8.138   1.779  24.451  0.00  0.00    +0.178 C 
ATOM      5  O   UNL     1       9.511   1.375  24.495  0.00  0.00    -0.346 OA
ENDROOT
BRANCH   1  12
ATOM      6  N   UNL     1       8.907  -4.730  25.558  0.00  0.00    -0.343 N 
ATOM      7  H   UNL     1       8.739  -4.845  26.549  0.00  0.00    +0.144 HD
ATOM      8  H   UNL     1       9.578  -5.389  25.176  0.00  0.00    +0.144 HD
ATOM      9  C   UNL     1       9.090  -3.462  25.082  0.00  0.00    +0.123 A 
ATOM     10  C   UNL     1       8.461  -2.331  25.780  0.00  0.00    +0.061 A 
ATOM     11  C   UNL     1       8.695  -1.125  25.263  0.00  0.00    +0.096 A 
ATOM     12  N   UNL     1       9.451  -0.968  24.120  0.00  0.00    -0.270 N 
ATOM     13  C   UNL     1      10.042  -2.073  23.497  0.00  0.00    +0.352 A 
ATOM     14  O   UNL     1      10.716  -1.944  22.474  0.00  0.00    -0.244 OA
ATOM     15  N   UNL     1       9.832  -3.322  24.031  0.00  0.00    -0.178 NA
ENDBRANCH   1  12
BRANCH   2  16
ATOM     16  O   UNL     1       9.478   1.533  21.360  0.00  0.00    -0.385 OA
ATOM     17  H   UNL     1       9.871   2.299  21.809  0.00  0.00    +0.210 HD
ENDBRANCH   2  16
BRANCH   3  18
ATOM     18  O   UNL     1       6.399   1.041  22.905  0.00  0.00    -0.386 OA
ATOM     19  H   UNL     1       6.529   0.087  22.746  0.00  0.00    +0.210 HD
ENDBRANCH   3  18
BRANCH   4  20
ATOM     20  C   UNL     1       7.956   3.222  24.923  0.00  0.00    +0.206 C 
BRANCH  20  21
ATOM     21  O   UNL     1       8.172   4.196  23.883  0.00  0.00    -0.284 OA
BRANCH  21  22
ATOM     22  P   UNL     1       9.614   5.150  23.951  0.00  0.00    +0.472 P 
ATOM     23  O   UNL     1      10.904   6.003  24.011  0.00  0.00    -0.228 OA
BRANCH  22  24
ATOM     24  O   UNL     1       9.010   6.041  22.718  0.00  0.00    -0.303 OA
ATOM     25  H   UNL     1       8.394   6.701  23.083  0.00  0.00    +0.222 HD
ENDBRANCH  22  24
BRANCH  22  26
ATOM     26  O   UNL     1      10.344   3.963  23.091  0.00  0.00    -0.303 OA
ATOM     27  H   UNL     1      11.093   3.591  23.588  0.00  0.00    +0.222 HD
ENDBRANCH  22  26
ENDBRANCH  21  22
ENDBRANCH  20  21
ENDBRANCH   4  20
TORSDOF 8
ENDMDL
MODEL 6
REMARK VINA RESULT:      -5.9      2.950      4.412
REMARK  Name = 
REMARK  8 active torsions:
REMARK  status: ('A' for Active; 'I' for Inactive)
REMARK    1  A    between atoms: N_6  and  C_9
REMARK    2  A    between atoms: C_12  and  C_14
REMARK    3  A    between atoms: C_14  and  O_15
REMARK    4  A    between atoms: O_15  and  P_16
REMARK    5  A    between atoms: P_16  and  O_17
REMARK    6  A    between atoms: P_16  and  O_18
REMARK    7  A    between atoms: C_20  and  O_22
REMARK    8  A    between atoms: C_23  and  O_25
REMARK                            x       y       z     vdW  Elec       q    Type
REMARK                         _______ _______ _______ _____ _____    ______ ____
ROOT
ATOM      1  C   UNL     1       6.437  -2.646  23.272  0.00  0.00    +0.255 C 
ATOM      2  C   UNL     1       6.769  -3.813  22.321  0.00  0.00    +0.195 C 
ATOM      3  C   UNL     1       6.785  -5.046  23.224  0.00  0.00    +0.178 C 
ATOM      4  C   UNL     1       6.341  -4.534  24.602  0.00  0.00    +0.178 C 
ATOM      5  O   UNL     1       5.738  -3.254  24.380  0.00  0.00    -0.346 OA
ENDROOT
BRANCH   1  12
ATOM      6  N   UNL     1      10.438   0.640  25.203  0.00  0.00    -0.343 N 
ATOM      7  H   UNL     1      11.311   0.233  25.512  0.00  0.00    +0.144 HD
ATOM      8  H   UNL     1      10.066   1.343  25.834  0.00  0.00    +0.144 HD
ATOM      9  C   UNL     1       9.471  -0.201  24.727  0.00  0.00    +0.123 A 
ATOM     10  C   UNL     1       9.864  -1.472  24.102  0.00  0.00    +0.061 A 
ATOM     11  C   UNL     1       8.864  -2.243  23.675  0.00  0.00    +0.096 A 
ATOM     12  N   UNL     1       7.550  -1.842  23.783  0.00  0.00    -0.270 N 
ATOM     13  C   UNL     1       7.222  -0.628  24.400  0.00  0.00    +0.352 A 
ATOM     14  O   UNL     1       6.051  -0.259  24.499  0.00  0.00    -0.244 OA
ATOM     15  N   UNL     1       8.240   0.169  24.870  0.00  0.00    -0.178 NA
ENDBRANCH   1  12
BRANCH   2  16
ATOM     16  O   UNL     1       5.741  -3.976  21.324  0.00  0.00    -0.385 OA
ATOM     17  H   UNL     1       5.063  -3.296  21.471  0.00  0.00    +0.210 HD
ENDBRANCH   2  16
BRANCH   3  18
ATOM     18  O   UNL     1       8.091  -5.621  23.293  0.00  0.00    -0.386 OA
ATOM     19  H   UNL     1       8.101  -6.393  22.697  0.00  0.00    +0.210 HD
ENDBRANCH   3  18
BRANCH   4  20
ATOM     20  C   UNL     1       5.362  -5.519  25.241  0.00  0.00    +0.206 C 
BRANCH  20  21
ATOM     21  O   UNL     1       5.978  -6.395  26.205  0.00  0.00    -0.284 OA
BRANCH  21  22
ATOM     22  P   UNL     1       6.020  -5.883  27.857  0.00  0.00    +0.472 P 
ATOM     23  O   UNL     1       6.057  -5.426  29.335  0.00  0.00    -0.228 OA
BRANCH  22  24
ATOM     24  O   UNL     1       7.647  -6.044  27.803  0.00  0.00    -0.303 OA
ATOM     25  H   UNL     1       7.905  -6.798  28.362  0.00  0.00    +0.222 HD
ENDBRANCH  22  24
BRANCH  22  26
ATOM     26  O   UNL     1       5.612  -7.417  28.259  0.00  0.00    -0.303 OA
ATOM     27  H   UNL     1       6.218  -7.767  28.936  0.00  0.00    +0.222 HD
ENDBRANCH  22  26
ENDBRANCH  21  22
ENDBRANCH  20  21
ENDBRANCH   4  20
TORSDOF 8
ENDMDL
MODEL 7
REMARK VINA RESULT:      -5.8      4.470      7.232
REMARK  Name = 
REMARK  8 active torsions:
REMARK  status: ('A' for Active; 'I' for Inactive)
REMARK    1  A    between atoms: N_6  and  C_9
REMARK    2  A    between atoms: C_12  and  C_14
REMARK    3  A    between atoms: C_14  and  O_15
REMARK    4  A    between atoms: O_15  and  P_16
REMARK    5  A    between atoms: P_16  and  O_17
REMARK    6  A    between atoms: P_16  and  O_18
REMARK    7  A    between atoms: C_20  and  O_22
REMARK    8  A    between atoms: C_23  and  O_25
REMARK                            x       y       z     vdW  Elec       q    Type
REMARK                         _______ _______ _______ _____ _____    ______ ____
ROOT
ATOM      1  C   UNL     1       8.235  -4.923  26.058  0.00  0.00    +0.255 C 
ATOM      2  C   UNL     1       9.008  -4.858  24.726  0.00  0.00    +0.195 C 
ATOM      3  C   UNL     1       8.728  -3.453  24.193  0.00  0.00    +0.178 C 
ATOM      4  C   UNL     1       7.923  -2.761  25.302  0.00  0.00    +0.178 C 
ATOM      5  O   UNL     1       8.108  -3.549  26.484  0.00  0.00    -0.346 OA
ENDROOT
BRANCH   1  12
ATOM      6  N   UNL     1       3.329  -7.453  26.303  0.00  0.00    -0.343 N 
ATOM      7  H   UNL     1       2.589  -7.167  25.675  0.00  0.00    +0.144 HD
ATOM      8  H   UNL     1       3.026  -7.579  27.264  0.00  0.00    +0.144 HD
ATOM      9  C   UNL     1       4.531  -6.809  26.213  0.00  0.00    +0.123 A 
ATOM     10  C   UNL     1       4.945  -6.229  24.928  0.00  0.00    +0.061 A 
ATOM     11  C   UNL     1       6.123  -5.606  24.922  0.00  0.00    +0.096 A 
ATOM     12  N   UNL     1       6.912  -5.553  26.052  0.00  0.00    -0.270 N 
ATOM     13  C   UNL     1       6.470  -6.107  27.259  0.00  0.00    +0.352 A 
ATOM     14  O   UNL     1       7.169  -6.067  28.273  0.00  0.00    -0.244 OA
ATOM     15  N   UNL     1       5.245  -6.731  27.289  0.00  0.00    -0.178 NA
ENDBRANCH   1  12
BRANCH   2  16
ATOM     16  O   UNL     1      10.425  -5.003  24.943  0.00  0.00    -0.385 OA
ATOM     17  H   UNL     1      10.829  -5.328  24.121  0.00  0.00    +0.210 HD
ENDBRANCH   2  16
BRANCH   3  18
ATOM     18  O   UNL     1       7.980  -3.499  22.976  0.00  0.00    -0.386 OA
ATOM     19  H   UNL     1       8.267  -4.293  22.489  0.00  0.00    +0.210 HD
ENDBRANCH   3  18
BRANCH   4  20
ATOM     20  C   UNL     1       8.415  -1.326  25.494  0.00  0.00    +0.206 C 
BRANCH  20  21
ATOM     21  O   UNL     1       8.538  -0.593  24.260  0.00  0.00    -0.284 OA
BRANCH  21  22
ATOM     22  P   UNL     1       9.737   0.651  24.171  0.00  0.00    +0.472 P 
ATOM     23  O   UNL     1      10.809   1.765  24.092  0.00  0.00    -0.228 OA
BRANCH  22  24
ATOM     24  O   UNL     1      10.669  -0.390  23.320  0.00  0.00    -0.303 OA
ATOM     25  H   UNL     1      11.107  -0.997  23.942  0.00  0.00    +0.222 HD
ENDBRANCH  22  24
BRANCH  22  26
ATOM     26  O   UNL     1      10.177   0.226  25.690  0.00  0.00    -0.303 OA
ATOM     27  H   UNL     1       9.878  -0.678  25.893  0.00  0.00    +0.222 HD
ENDBRANCH  22  26
ENDBRANCH  21  22
ENDBRANCH  20  21
ENDBRANCH   4  20
TORSDOF 8
ENDMDL
MODEL 8
REMARK VINA RESULT:      -5.8      3.860      6.350
REMARK  Name = 
REMARK  8 active torsions:
REMARK  status: ('A' for Active; 'I' for Inactive)
REMARK    1  A    between atoms: N_6  and  C_9
REMARK    2  A    between atoms: C_12  and  C_14
REMARK    3  A    between atoms: C_14  and  O_15
REMARK    4  A    between atoms: O_15  and  P_16
REMARK    5  A    between atoms: P_16  and  O_17
REMARK    6  A    between atoms: P_16  and  O_18
REMARK    7  A    between atoms: C_20  and  O_22
REMARK    8  A    between atoms: C_23  and  O_25
REMARK                            x       y       z     vdW  Elec       q    Type
REMARK                         _______ _______ _______ _____ _____    ______ ____
ROOT
ATOM      1  C   UNL     1       9.355  -0.485  24.801  0.00  0.00    +0.255 C 
ATOM      2  C   UNL     1      10.416  -0.167  23.728  0.00  0.00    +0.195 C 
ATOM      3  C   UNL     1       9.607   0.063  22.452  0.00  0.00    +0.178 C 
ATOM      4  C   UNL     1       8.138  -0.012  22.894  0.00  0.00    +0.178 C 
ATOM      5  O   UNL     1       8.140   0.129  24.319  0.00  0.00    -0.346 OA
ENDROOT
BRANCH   1  12
ATOM      6  N   UNL     1       8.310  -5.707  26.274  0.00  0.00    -0.343 N 
ATOM      7  H   UNL     1       8.270  -6.426  25.563  0.00  0.00    +0.144 HD
ATOM      8  H   UNL     1       7.555  -5.755  26.951  0.00  0.00    +0.144 HD
ATOM      9  C   UNL     1       8.574  -4.426  25.875  0.00  0.00    +0.123 A 
ATOM     10  C   UNL     1       9.369  -4.198  24.660  0.00  0.00    +0.061 A 
ATOM     11  C   UNL     1       9.574  -2.923  24.330  0.00  0.00    +0.096 A 
ATOM     12  N   UNL     1       9.097  -1.893  25.112  0.00  0.00    -0.270 N 
ATOM     13  C   UNL     1       8.332  -2.158  26.255  0.00  0.00    +0.352 A 
ATOM     14  O   UNL     1       7.904  -1.245  26.962  0.00  0.00    -0.244 OA
ATOM     15  N   UNL     1       8.089  -3.468  26.596  0.00  0.00    -0.178 NA
ENDBRANCH   1  12
BRANCH   2  16
ATOM     16  O   UNL     1      11.133   1.041  24.052  0.00  0.00    -0.385 OA
ATOM     17  H   UNL     1      11.070   1.646  23.294  0.00  0.00    +0.210 HD
ENDBRANCH   2  16
BRANCH   3  18
ATOM     18  O   UNL     1       9.893  -0.935  21.470  0.00  0.00    -0.386 OA
ATOM     19  H   UNL     1      10.192  -1.733  21.944  0.00  0.00    +0.210 HD
ENDBRANCH   3  18
BRANCH   4  20
ATOM     20  C   UNL     1       7.326   1.092  22.216  0.00  0.00    +0.206 C 
BRANCH  20  21
ATOM     21  O   UNL     1       8.088   2.285  21.954  0.00  0.00    -0.284 OA
BRANCH  21  22
ATOM     22  P   UNL     1       8.091   3.528  23.158  0.00  0.00    +0.472 P 
ATOM     23  O   UNL     1       8.093   4.639  24.235  0.00  0.00    -0.228 OA
BRANCH  22  24
ATOM     24  O   UNL     1       7.715   4.593  21.974  0.00  0.00    -0.303 OA
ATOM     25  H   UNL     1       6.797   4.436  21.692  0.00  0.00    +0.222 HD
ENDBRANCH  22  24
BRANCH  22  26
ATOM     26  O   UNL     1       9.723   3.543  23.025  0.00  0.00    -0.303 OA
ATOM     27  H   UNL     1       9.997   4.026  22.225  0.00  0.00    +0.222 HD
ENDBRANCH  22  26
ENDBRANCH  21  22
ENDBRANCH  20  21
ENDBRANCH   4  20
TORSDOF 8
ENDMDL
MODEL 9
REMARK VINA RESULT:      -5.7      2.227      3.778
REMARK  Name = 
REMARK  8 active torsions:
REMARK  status: ('A' for Active; 'I' for Inactive)
REMARK    1  A    between atoms: N_6  and  C_9
REMARK    2  A    between atoms: C_12  and  C_14
REMARK    3  A    between atoms: C_14  and  O_15
REMARK    4  A    between atoms: O_15  and  P_16
REMARK    5  A    between atoms: P_16  and  O_17
REMARK    6  A    between atoms: P_16  and  O_18
REMARK    7  A    between atoms: C_20  and  O_22
REMARK    8  A    between atoms: C_23  and  O_25
REMARK                            x       y       z     vdW  Elec       q    Type
REMARK                         _______ _______ _______ _____ _____    ______ ____
ROOT
ATOM      1  C   UNL     1       7.352  -1.238  24.411  0.00  0.00    +0.255 C 
ATOM      2  C   UNL     1       6.210  -1.970  23.678  0.00  0.00    +0.195 C 
ATOM      3  C   UNL     1       6.785  -3.351  23.364  0.00  0.00    +0.178 C 
ATOM      4  C   UNL     1       8.163  -3.370  24.040  0.00  0.00    +0.178 C 
ATOM      5  O   UNL     1       8.165  -2.288  24.978  0.00  0.00    -0.346 OA
ENDROOT
BRANCH   1  12
ATOM      6  N   UNL     1      10.506   2.387  21.683  0.00  0.00    -0.343 N 
ATOM      7  H   UNL     1      11.044   2.077  20.884  0.00  0.00    +0.144 HD
ATOM      8  H   UNL     1      11.025   2.980  22.323  0.00  0.00    +0.144 HD
ATOM      9  C   UNL     1       9.734   1.465  22.332  0.00  0.00    +0.123 A 
ATOM     10  C   UNL     1       9.205   0.313  21.588  0.00  0.00    +0.061 A 
ATOM     11  C   UNL     1       8.472  -0.548  22.293  0.00  0.00    +0.096 A 
ATOM     12  N   UNL     1       8.200  -0.336  23.628  0.00  0.00    -0.270 N 
ATOM     13  C   UNL     1       8.738   0.769  24.300  0.00  0.00    +0.352 A 
ATOM     14  O   UNL     1       8.499   0.969  25.491  0.00  0.00    -0.244 OA
ATOM     15  N   UNL     1       9.518   1.654  23.594  0.00  0.00    -0.178 NA
ENDBRANCH   1  12
BRANCH   2  16
ATOM     16  O   UNL     1       5.062  -2.124  24.535  0.00  0.00    -0.385 OA
ATOM     17  H   UNL     1       4.400  -1.459  24.282  0.00  0.00    +0.210 HD
ENDBRANCH   2  16
BRANCH   3  18
ATOM     18  O   UNL     1       6.908  -3.553  21.955  0.00  0.00    -0.386 OA
ATOM     19  H   UNL     1       7.133  -4.491  21.814  0.00  0.00    +0.210 HD
ENDBRANCH   3  18
BRANCH   4  20
ATOM     20  C   UNL     1       8.395  -4.716  24.727  0.00  0.00    +0.206 C 
BRANCH  20  21
ATOM     21  O   UNL     1       7.186  -5.321  25.226  0.00  0.00    -0.284 OA
BRANCH  21  22
ATOM     22  P   UNL     1       6.946  -5.366  26.938  0.00  0.00    +0.472 P 
ATOM     23  O   UNL     1       6.732  -5.407  28.471  0.00  0.00    -0.228 OA
BRANCH  22  24
ATOM     24  O   UNL     1       6.454  -3.808  26.850  0.00  0.00    -0.303 OA
ATOM     25  H   UNL     1       7.141  -3.289  26.398  0.00  0.00    +0.222 HD
ENDBRANCH  22  24
BRANCH  22  26
ATOM     26  O   UNL     1       8.560  -5.129  27.090  0.00  0.00    -0.303 OA
ATOM     27  H   UNL     1       8.880  -5.483  27.938  0.00  0.00    +0.222 HD
ENDBRANCH  22  26
ENDBRANCH  21  22
ENDBRANCH  20  21
ENDBRANCH   4  20
TORSDOF 8
ENDMDL
