MODEL 1
REMARK VINA RESULT:      -7.6      0.000      0.000
REMARK  Name = 
REMARK  4 active torsions:
REMARK  status: ('A' for Active; 'I' for Inactive)
REMARK    1  A    between atoms: C_1  and  C_2
REMARK    2  A    between atoms: C_4  and  C_9
REMARK    3  A    between atoms: C_7  and  O_8
REMARK    4  A    between atoms: C_14  and  C_16
REMARK                            x       y       z     vdW  Elec       q    Type
REMARK                         _______ _______ _______ _____ _____    ______ ____
ROOT
ATOM      1  C   UNL     1       8.850  -2.714  23.881  0.00  0.00    +0.048 C 
ATOM      2  C   UNL     1       7.415  -3.097  24.100  0.00  0.00    +0.107 C 
ATOM      3  C   UNL     1       7.278  -4.563  24.396  0.00  0.00    +0.048 C 
ATOM      4  N   UNL     1       8.297  -5.272  24.761  0.00  0.00    -0.165 NA
ATOM      5  C   UNL     1       9.530  -4.673  24.863  0.00  0.00    +0.347 C 
ATOM      6  O   UNL     1      10.405  -5.229  25.513  0.00  0.00    -0.248 OA
ATOM      7  N   UNL     1       9.825  -3.485  24.236  0.00  0.00    -0.165 NA
ENDROOT
BRANCH   1  13
ATOM      8  C   UNL     1      10.306   2.089  24.242  0.00  0.00    +0.047 C 
ATOM      9  C   UNL     1       9.840   0.928  23.412  0.00  0.00    -0.008 A 
ATOM     10  C   UNL     1       9.756   1.027  22.019  0.00  0.00    +0.120 A 
ATOM     11  C   UNL     1       9.363  -0.060  21.240  0.00  0.00    +0.046 A 
ATOM     12  C   UNL     1       9.063  -1.277  21.855  0.00  0.00    +0.013 A 
ATOM     13  C   UNL     1       9.141  -1.399  23.247  0.00  0.00    -0.005 A 
ATOM     14  C   UNL     1       9.525  -0.296  24.022  0.00  0.00    +0.016 A 
BRANCH  10  15
ATOM     15  O   UNL     1      10.080   2.216  21.431  0.00  0.00    -0.507 OA
ATOM     16  H   UNL     1      10.307   2.054  20.500  0.00  0.00    +0.292 HD
ENDBRANCH  10  15
ENDBRANCH   1  13
BRANCH   3  17
ATOM     17  C   UNL     1       5.929  -5.208  24.285  0.00  0.00    -0.006 A 
ATOM     18  C   UNL     1       5.084  -4.992  23.189  0.00  0.00    +0.009 A 
ATOM     19  C   UNL     1       3.860  -5.661  23.098  0.00  0.00    +0.001 A 
ATOM     20  C   UNL     1       3.463  -6.537  24.105  0.00  0.00    +0.000 A 
ATOM     21  C   UNL     1       4.282  -6.738  25.213  0.00  0.00    +0.001 A 
ATOM     22  C   UNL     1       5.509  -6.077  25.304  0.00  0.00    +0.009 A 
ENDBRANCH   3  17
TORSDOF 3
ENDMDL
MODEL 2
REMARK VINA RESULT:      -6.9      2.049      2.929
REMARK  Name = 
REMARK  4 active torsions:
REMARK  status: ('A' for Active; 'I' for Inactive)
REMARK    1  A    between atoms: C_1  and  C_2
REMARK    2  A    between atoms: C_4  and  C_9
REMARK    3  A    between atoms: C_7  and  O_8
REMARK    4  A    between atoms: C_14  and  C_16
REMARK                            x       y       z     vdW  Elec       q    Type
REMARK                         _______ _______ _______ _____ _____    ______ ____
ROOT
ATOM      1  C   UNL     1       8.181  -2.988  23.603  0.00  0.00    +0.048 C 
ATOM      2  C   UNL     1       8.012  -3.737  24.893  0.00  0.00    +0.107 C 
ATOM      3  C   UNL     1       7.023  -4.858  24.751  0.00  0.00    +0.048 C 
ATOM      4  N   UNL     1       6.676  -5.301  23.586  0.00  0.00    -0.165 NA
ATOM      5  C   UNL     1       7.210  -4.723  22.460  0.00  0.00    +0.347 C 
ATOM      6  O   UNL     1       7.157  -5.333  21.400  0.00  0.00    -0.248 OA
ATOM      7  N   UNL     1       7.778  -3.470  22.474  0.00  0.00    -0.165 NA
ENDROOT
BRANCH   1  13
ATOM      8  C   UNL     1       9.177   1.467  21.485  0.00  0.00    +0.047 C 
ATOM      9  C   UNL     1       9.337   0.501  22.623  0.00  0.00    -0.008 A 
ATOM     10  C   UNL     1      10.036   0.862  23.780  0.00  0.00    +0.120 A 
ATOM     11  C   UNL     1      10.152  -0.016  24.856  0.00  0.00    +0.046 A 
ATOM     12  C   UNL     1       9.549  -1.274  24.789  0.00  0.00    +0.013 A 
ATOM     13  C   UNL     1       8.845  -1.656  23.642  0.00  0.00    -0.005 A 
ATOM     14  C   UNL     1       8.745  -0.770  22.561  0.00  0.00    +0.016 A 
BRANCH  10  15
ATOM     15  O   UNL     1      10.595   2.106  23.841  0.00  0.00    -0.507 OA
ATOM     16  H   UNL     1      11.552   2.028  23.697  0.00  0.00    +0.292 HD
ENDBRANCH  10  15
ENDBRANCH   1  13
BRANCH   3  17
ATOM     17  C   UNL     1       6.446  -5.485  25.984  0.00  0.00    -0.006 A 
ATOM     18  C   UNL     1       7.047  -5.349  27.243  0.00  0.00    +0.009 A 
ATOM     19  C   UNL     1       6.442  -5.900  28.377  0.00  0.00    +0.001 A 
ATOM     20  C   UNL     1       5.245  -6.602  28.262  0.00  0.00    +0.000 A 
ATOM     21  C   UNL     1       4.654  -6.767  27.011  0.00  0.00    +0.001 A 
ATOM     22  C   UNL     1       5.251  -6.212  25.877  0.00  0.00    +0.009 A 
ENDBRANCH   3  17
TORSDOF 3
ENDMDL
MODEL 3
REMARK VINA RESULT:      -6.9      2.250      6.840
REMARK  Name = 
REMARK  4 active torsions:
REMARK  status: ('A' for Active; 'I' for Inactive)
REMARK    1  A    between atoms: C_1  and  C_2
REMARK    2  A    between atoms: C_4  and  C_9
REMARK    3  A    between atoms: C_7  and  O_8
REMARK    4  A    between atoms: C_14  and  C_16
REMARK                            x       y       z     vdW  Elec       q    Type
REMARK                         _______ _______ _______ _____ _____    ______ ____
ROOT
ATOM      1  C   UNL     1       7.181  -4.107  23.923  0.00  0.00    +0.048 C 
ATOM      2  C   UNL     1       7.627  -2.919  23.120  0.00  0.00    +0.107 C 
ATOM      3  C   UNL     1       8.973  -2.428  23.570  0.00  0.00    +0.048 C 
ATOM      4  N   UNL     1       9.752  -3.170  24.289  0.00  0.00    -0.165 NA
ATOM      5  C   UNL     1       9.328  -4.424  24.662  0.00  0.00    +0.347 C 
ATOM      6  O   UNL     1      10.159  -5.239  25.040  0.00  0.00    -0.248 OA
ATOM      7  N   UNL     1       8.002  -4.786  24.653  0.00  0.00    -0.165 NA
ENDROOT
BRANCH   1  13
ATOM      8  C   UNL     1       2.391  -3.477  25.329  0.00  0.00    +0.047 C 
ATOM      9  C   UNL     1       3.428  -4.213  24.532  0.00  0.00    -0.008 A 
ATOM     10  C   UNL     1       3.064  -5.229  23.641  0.00  0.00    +0.120 A 
ATOM     11  C   UNL     1       4.018  -5.887  22.869  0.00  0.00    +0.046 A 
ATOM     12  C   UNL     1       5.362  -5.520  22.969  0.00  0.00    +0.013 A 
ATOM     13  C   UNL     1       5.749  -4.507  23.854  0.00  0.00    -0.005 A 
ATOM     14  C   UNL     1       4.782  -3.860  24.636  0.00  0.00    +0.016 A 
BRANCH  10  15
ATOM     15  O   UNL     1       1.743  -5.556  23.533  0.00  0.00    -0.507 OA
ATOM     16  H   UNL     1       1.644  -6.513  23.670  0.00  0.00    +0.292 HD
ENDBRANCH  10  15
ENDBRANCH   1  13
BRANCH   3  17
ATOM     17  C   UNL     1       9.428  -1.060  23.156  0.00  0.00    -0.006 A 
ATOM     18  C   UNL     1       9.125  -0.519  21.900  0.00  0.00    +0.009 A 
ATOM     19  C   UNL     1       9.517   0.784  21.580  0.00  0.00    +0.001 A 
ATOM     20  C   UNL     1      10.226   1.550  22.502  0.00  0.00    +0.000 A 
ATOM     21  C   UNL     1      10.558   1.011  23.742  0.00  0.00    +0.001 A 
ATOM     22  C   UNL     1      10.161  -0.288  24.069  0.00  0.00    +0.009 A 
ENDBRANCH   3  17
TORSDOF 3
ENDMDL
MODEL 4
REMARK VINA RESULT:      -6.7      1.687      2.486
REMARK  Name = 
REMARK  4 active torsions:
REMARK  status: ('A' for Active; 'I' for Inactive)
REMARK    1  A    between atoms: C_1  and  C_2
REMARK    2  A    between atoms: C_4  and  C_9
REMARK    3  A    between atoms: C_7  and  O_8
REMARK    4  A    between atoms: C_14  and  C_16
REMARK                            x       y       z     vdW  Elec       q    Type
REMARK                         _______ _______ _______ _____ _____    ______ ____
ROOT
ATOM      1  C   UNL     1       7.338  -3.874  25.005  0.00  0.00    +0.048 C 
ATOM      2  C   UNL     1       5.934  -4.188  24.575  0.00  0.00    +0.107 C 
ATOM      3  C   UNL     1       5.458  -5.485  25.163  0.00  0.00    +0.048 C 
ATOM      4  N   UNL     1       6.062  -6.025  26.172  0.00  0.00    -0.165 NA
ATOM      5  C   UNL     1       7.170  -5.407  26.701  0.00  0.00    +0.347 C 
ATOM      6  O   UNL     1       7.536  -5.715  27.828  0.00  0.00    -0.248 OA
ATOM      7  N   UNL     1       7.900  -4.477  26.000  0.00  0.00    -0.165 NA
ENDROOT
BRANCH   1  13
ATOM      8  C   UNL     1      10.325   0.176  24.966  0.00  0.00    +0.047 C 
ATOM      9  C   UNL     1       9.528  -0.862  24.230  0.00  0.00    -0.008 A 
ATOM     10  C   UNL     1       9.543  -0.923  22.832  0.00  0.00    +0.120 A 
ATOM     11  C   UNL     1       8.838  -1.909  22.145  0.00  0.00    +0.046 A 
ATOM     12  C   UNL     1       8.115  -2.867  22.860  0.00  0.00    +0.013 A 
ATOM     13  C   UNL     1       8.087  -2.825  24.259  0.00  0.00    -0.005 A 
ATOM     14  C   UNL     1       8.789  -1.821  24.939  0.00  0.00    +0.016 A 
BRANCH  10  15
ATOM     15  O   UNL     1      10.278   0.002  22.148  0.00  0.00    -0.507 OA
ATOM     16  H   UNL     1      10.600   0.673  22.774  0.00  0.00    +0.292 HD
ENDBRANCH  10  15
ENDBRANCH   1  13
BRANCH   3  17
ATOM     17  C   UNL     1       4.248  -6.151  24.581  0.00  0.00    -0.006 A 
ATOM     18  C   UNL     1       3.757  -7.370  25.068  0.00  0.00    +0.009 A 
ATOM     19  C   UNL     1       2.590  -7.924  24.535  0.00  0.00    +0.001 A 
ATOM     20  C   UNL     1       1.913  -7.277  23.505  0.00  0.00    +0.000 A 
ATOM     21  C   UNL     1       2.407  -6.079  22.994  0.00  0.00    +0.001 A 
ATOM     22  C   UNL     1       3.569  -5.518  23.529  0.00  0.00    +0.009 A 
ENDBRANCH   3  17
TORSDOF 3
ENDMDL
MODEL 5
REMARK VINA RESULT:      -6.7      2.959      6.925
REMARK  Name = 
REMARK  4 active torsions:
REMARK  status: ('A' for Active; 'I' for Inactive)
REMARK    1  A    between atoms: C_1  and  C_2
REMARK    2  A    between atoms: C_4  and  C_9
REMARK    3  A    between atoms: C_7  and  O_8
REMARK    4  A    between atoms: C_14  and  C_16
REMARK                            x       y       z     vdW  Elec       q    Type
REMARK                         _______ _______ _______ _____ _____    ______ ____
ROOT
ATOM      1  C   UNL     1       7.514  -2.820  23.016  0.00  0.00    +0.048 C 
ATOM      2  C   UNL     1       6.764  -1.554  22.722  0.00  0.00    +0.107 C 
ATOM      3  C   UNL     1       7.653  -0.349  22.843  0.00  0.00    +0.048 C 
ATOM      4  N   UNL     1       8.942  -0.464  22.838  0.00  0.00    -0.165 NA
ATOM      5  C   UNL     1       9.504  -1.715  22.738  0.00  0.00    +0.347 C 
ATOM      6  O   UNL     1      10.677  -1.809  22.400  0.00  0.00    -0.248 OA
ATOM      7  N   UNL     1       8.806  -2.862  23.033  0.00  0.00    -0.165 NA
ENDROOT
BRANCH   1  13
ATOM      8  C   UNL     1       5.474  -6.100  26.241  0.00  0.00    +0.047 C 
ATOM      9  C   UNL     1       5.745  -5.654  24.833  0.00  0.00    -0.008 A 
ATOM     10  C   UNL     1       5.194  -6.338  23.744  0.00  0.00    +0.120 A 
ATOM     11  C   UNL     1       5.408  -5.905  22.437  0.00  0.00    +0.046 A 
ATOM     12  C   UNL     1       6.172  -4.759  22.205  0.00  0.00    +0.013 A 
ATOM     13  C   UNL     1       6.732  -4.059  23.280  0.00  0.00    -0.005 A 
ATOM     14  C   UNL     1       6.521  -4.511  24.590  0.00  0.00    +0.016 A 
BRANCH  10  15
ATOM     15  O   UNL     1       4.426  -7.441  23.988  0.00  0.00    -0.507 OA
ATOM     16  H   UNL     1       3.509  -7.247  23.732  0.00  0.00    +0.292 HD
ENDBRANCH  10  15
ENDBRANCH   1  13
BRANCH   3  17
ATOM     17  C   UNL     1       7.031   1.011  22.948  0.00  0.00    -0.006 A 
ATOM     18  C   UNL     1       7.322   2.039  22.042  0.00  0.00    +0.009 A 
ATOM     19  C   UNL     1       6.672   3.273  22.142  0.00  0.00    +0.001 A 
ATOM     20  C   UNL     1       5.742   3.496  23.154  0.00  0.00    +0.000 A 
ATOM     21  C   UNL     1       5.467   2.491  24.078  0.00  0.00    +0.001 A 
ATOM     22  C   UNL     1       6.108   1.254  23.977  0.00  0.00    +0.009 A 
ENDBRANCH   3  17
TORSDOF 3
ENDMDL
MODEL 6
REMARK VINA RESULT:      -6.6      2.414      7.344
REMARK  Name = 
REMARK  4 active torsions:
REMARK  status: ('A' for Active; 'I' for Inactive)
REMARK    1  A    between atoms: C_1  and  C_2
REMARK    2  A    between atoms: C_4  and  C_9
REMARK    3  A    between atoms: C_7  and  O_8
REMARK    4  A    between atoms: C_14  and  C_16
REMARK                            x       y       z     vdW  Elec       q    Type
REMARK                         _______ _______ _______ _____ _____    ______ ____
ROOT
ATOM      1  C   UNL     1       8.349  -2.390  24.510  0.00  0.00    +0.048 C 
ATOM      2  C   UNL     1       7.804  -1.001  24.674  0.00  0.00    +0.107 C 
ATOM      3  C   UNL     1       8.823   0.036  24.296  0.00  0.00    +0.048 C 
ATOM      4  N   UNL     1       9.864  -0.273  23.592  0.00  0.00    -0.165 NA
ATOM      5  C   UNL     1      10.047  -1.578  23.201  0.00  0.00    +0.347 C 
ATOM      6  O   UNL     1      10.819  -1.815  22.280  0.00  0.00    -0.248 OA
ATOM      7  N   UNL     1       9.417  -2.629  23.824  0.00  0.00    -0.165 NA
ENDROOT
BRANCH   1  13
ATOM      8  C   UNL     1       5.017  -6.153  24.260  0.00  0.00    +0.047 C 
ATOM      9  C   UNL     1       6.003  -5.336  25.044  0.00  0.00    -0.008 A 
ATOM     10  C   UNL     1       6.323  -5.667  26.365  0.00  0.00    +0.120 A 
ATOM     11  C   UNL     1       7.267  -4.937  27.084  0.00  0.00    +0.046 A 
ATOM     12  C   UNL     1       7.921  -3.864  26.474  0.00  0.00    +0.013 A 
ATOM     13  C   UNL     1       7.617  -3.515  25.154  0.00  0.00    -0.005 A 
ATOM     14  C   UNL     1       6.657  -4.248  24.444  0.00  0.00    +0.016 A 
BRANCH  10  15
ATOM     15  O   UNL     1       5.696  -6.737  26.937  0.00  0.00    -0.507 OA
ATOM     16  H   UNL     1       5.340  -7.306  26.234  0.00  0.00    +0.292 HD
ENDBRANCH  10  15
ENDBRANCH   1  13
BRANCH   3  17
ATOM     17  C   UNL     1       8.614   1.457  24.725  0.00  0.00    -0.006 A 
ATOM     18  C   UNL     1       9.307   2.525  24.139  0.00  0.00    +0.009 A 
ATOM     19  C   UNL     1       9.036   3.841  24.529  0.00  0.00    +0.001 A 
ATOM     20  C   UNL     1       8.085   4.099  25.513  0.00  0.00    +0.000 A 
ATOM     21  C   UNL     1       7.412   3.043  26.122  0.00  0.00    +0.001 A 
ATOM     22  C   UNL     1       7.674   1.728  25.731  0.00  0.00    +0.009 A 
ENDBRANCH   3  17
TORSDOF 3
ENDMDL
MODEL 7
REMARK VINA RESULT:      -6.6      3.028      8.304
REMARK  Name = 
REMARK  4 active torsions:
REMARK  status: ('A' for Active; 'I' for Inactive)
REMARK    1  A    between atoms: C_1  and  C_2
REMARK    2  A    between atoms: C_4  and  C_9
REMARK    3  A    between atoms: C_7  and  O_8
REMARK    4  A    between atoms: C_14  and  C_16
REMARK                            x       y       z     vdW  Elec       q    Type
REMARK                         _______ _______ _______ _____ _____    ______ ____
ROOT
ATOM      1  C   UNL     1       7.876   0.289  24.201  0.00  0.00    +0.048 C 
ATOM      2  C   UNL     1       8.956   1.301  24.451  0.00  0.00    +0.107 C 
ATOM      3  C   UNL     1       8.550   2.665  23.971  0.00  0.00    +0.048 C 
ATOM      4  N   UNL     1       7.312   2.949  23.726  0.00  0.00    -0.165 NA
ATOM      5  C   UNL     1       6.354   1.976  23.892  0.00  0.00    +0.347 C 
ATOM      6  O   UNL     1       5.182   2.313  23.990  0.00  0.00    -0.248 OA
ATOM      7  N   UNL     1       6.663   0.637  23.923  0.00  0.00    -0.165 NA
ENDROOT
BRANCH   1  13
ATOM      8  C   UNL     1       6.525  -4.505  24.924  0.00  0.00    +0.047 C 
ATOM      9  C   UNL     1       7.584  -3.477  24.645  0.00  0.00    -0.008 A 
ATOM     10  C   UNL     1       8.903  -3.859  24.376  0.00  0.00    +0.120 A 
ATOM     11  C   UNL     1       9.881  -2.913  24.076  0.00  0.00    +0.046 A 
ATOM     12  C   UNL     1       9.540  -1.559  24.026  0.00  0.00    +0.013 A 
ATOM     13  C   UNL     1       8.227  -1.155  24.292  0.00  0.00    -0.005 A 
ATOM     14  C   UNL     1       7.254  -2.114  24.605  0.00  0.00    +0.016 A 
BRANCH  10  15
ATOM     15  O   UNL     1       9.214  -5.188  24.399  0.00  0.00    -0.507 OA
ATOM     16  H   UNL     1       8.390  -5.703  24.417  0.00  0.00    +0.292 HD
ENDBRANCH  10  15
ENDBRANCH   1  13
BRANCH   3  17
ATOM     17  C   UNL     1       9.601   3.720  23.796  0.00  0.00    -0.006 A 
ATOM     18  C   UNL     1       9.341   5.079  24.018  0.00  0.00    +0.009 A 
ATOM     19  C   UNL     1      10.366   6.022  23.901  0.00  0.00    +0.001 A 
ATOM     20  C   UNL     1      11.652   5.620  23.547  0.00  0.00    +0.000 A 
ATOM     21  C   UNL     1      11.915   4.276  23.296  0.00  0.00    +0.001 A 
ATOM     22  C   UNL     1      10.895   3.329  23.419  0.00  0.00    +0.009 A 
ENDBRANCH   3  17
TORSDOF 3
ENDMDL
MODEL 8
REMARK VINA RESULT:      -6.4      2.555      3.856
REMARK  Name = 
REMARK  4 active torsions:
REMARK  status: ('A' for Active; 'I' for Inactive)
REMARK    1  A    between atoms: C_1  and  C_2
REMARK    2  A    between atoms: C_4  and  C_9
REMARK    3  A    between atoms: C_7  and  O_8
REMARK    4  A    between atoms: C_14  and  C_16
REMARK                            x       y       z     vdW  Elec       q    Type
REMARK                         _______ _______ _______ _____ _____    ______ ____
ROOT
ATOM      1  C   UNL     1       8.988  -0.061  24.466  0.00  0.00    +0.048 C 
ATOM      2  C   UNL     1       8.519  -1.164  25.371  0.00  0.00    +0.107 C 
ATOM      3  C   UNL     1       8.569  -2.497  24.681  0.00  0.00    +0.048 C 
ATOM      4  N   UNL     1       9.264  -2.668  23.603  0.00  0.00    -0.165 NA
ATOM      5  C   UNL     1       9.955  -1.605  23.072  0.00  0.00    +0.347 C 
ATOM      6  O   UNL     1      10.858  -1.825  22.276  0.00  0.00    -0.248 OA
ATOM      7  N   UNL     1       9.648  -0.300  23.381  0.00  0.00    -0.165 NA
ENDROOT
BRANCH   1  13
ATOM      8  C   UNL     1       9.723   4.885  23.898  0.00  0.00    +0.047 C 
ATOM      9  C   UNL     1       9.039   3.740  24.588  0.00  0.00    -0.008 A 
ATOM     10  C   UNL     1       8.041   3.968  25.542  0.00  0.00    +0.120 A 
ATOM     11  C   UNL     1       7.374   2.910  26.156  0.00  0.00    +0.046 A 
ATOM     12  C   UNL     1       7.692   1.596  25.804  0.00  0.00    +0.013 A 
ATOM     13  C   UNL     1       8.687   1.345  24.853  0.00  0.00    -0.005 A 
ATOM     14  C   UNL     1       9.360   2.416  24.251  0.00  0.00    +0.016 A 
BRANCH  10  15
ATOM     15  O   UNL     1       7.721   5.258  25.854  0.00  0.00    -0.507 OA
ATOM     16  H   UNL     1       7.284   5.273  26.722  0.00  0.00    +0.292 HD
ENDBRANCH  10  15
ENDBRANCH   1  13
BRANCH   3  17
ATOM     17  C   UNL     1       7.815  -3.652  25.267  0.00  0.00    -0.006 A 
ATOM     18  C   UNL     1       8.048  -4.114  26.570  0.00  0.00    +0.009 A 
ATOM     19  C   UNL     1       7.280  -5.155  27.098  0.00  0.00    +0.001 A 
ATOM     20  C   UNL     1       6.286  -5.754  26.328  0.00  0.00    +0.000 A 
ATOM     21  C   UNL     1       6.065  -5.322  25.022  0.00  0.00    +0.001 A 
ATOM     22  C   UNL     1       6.826  -4.277  24.494  0.00  0.00    +0.009 A 
ENDBRANCH   3  17
TORSDOF 3
ENDMDL
MODEL 9
REMARK VINA RESULT:      -6.4      3.427      4.801
REMARK  Name = 
REMARK  4 active torsions:
REMARK  status: ('A' for Active; 'I' for Inactive)
REMARK    1  A    between atoms: C_1  and  C_2
REMARK    2  A    between atoms: C_4  and  C_9
REMARK    3  A    between atoms: C_7  and  O_8
REMARK    4  A    between atoms: C_14  and  C_16
REMARK                            x       y       z     vdW  Elec       q    Type
REMARK                         _______ _______ _______ _____ _____    ______ ____
ROOT
ATOM      1  C   UNL     1       8.282   1.259  23.650  0.00  0.00    +0.048 C 
ATOM      2  C   UNL     1       7.716  -0.121  23.822  0.00  0.00    +0.107 C 
ATOM      3  C   UNL     1       8.796  -1.164  23.793  0.00  0.00    +0.048 C 
ATOM      4  N   UNL     1      10.039  -0.846  23.963  0.00  0.00    -0.165 NA
ATOM      5  C   UNL     1      10.375   0.472  24.156  0.00  0.00    +0.347 C 
ATOM      6  O   UNL     1      11.467   0.738  24.642  0.00  0.00    -0.248 OA
ATOM      7  N   UNL     1       9.542   1.505  23.798  0.00  0.00    -0.165 NA
ENDROOT
BRANCH   1  13
ATOM      8  C   UNL     1       7.465   5.936  21.982  0.00  0.00    +0.047 C 
ATOM      9  C   UNL     1       6.943   4.632  22.511  0.00  0.00    -0.008 A 
ATOM     10  C   UNL     1       5.567   4.396  22.612  0.00  0.00    +0.120 A 
ATOM     11  C   UNL     1       5.075   3.173  23.063  0.00  0.00    +0.046 A 
ATOM     12  C   UNL     1       5.968   2.154  23.407  0.00  0.00    +0.013 A 
ATOM     13  C   UNL     1       7.347   2.368  23.312  0.00  0.00    -0.005 A 
ATOM     14  C   UNL     1       7.831   3.606  22.870  0.00  0.00    +0.016 A 
BRANCH  10  15
ATOM     15  O   UNL     1       4.707   5.392  22.245  0.00  0.00    -0.507 OA
ATOM     16  H   UNL     1       3.845   5.232  22.663  0.00  0.00    +0.292 HD
ENDBRANCH  10  15
ENDBRANCH   1  13
BRANCH   3  17
ATOM     17  C   UNL     1       8.420  -2.600  23.584  0.00  0.00    -0.006 A 
ATOM     18  C   UNL     1       8.825  -3.615  24.461  0.00  0.00    +0.009 A 
ATOM     19  C   UNL     1       8.401  -4.932  24.261  0.00  0.00    +0.001 A 
ATOM     20  C   UNL     1       7.584  -5.248  23.179  0.00  0.00    +0.000 A 
ATOM     21  C   UNL     1       7.199  -4.253  22.284  0.00  0.00    +0.001 A 
ATOM     22  C   UNL     1       7.614  -2.934  22.485  0.00  0.00    +0.009 A 
ENDBRANCH   3  17
TORSDOF 3
ENDMDL
