MODEL 1
REMARK VINA RESULT:      -5.2      0.000      0.000
REMARK  Name = 
REMARK  11 active torsions:
REMARK  status: ('A' for Active; 'I' for Inactive)
REMARK    1  A    between atoms: C_1  and  C_2
REMARK    2  A    between atoms: C_2  and  C_3
REMARK    3  A    between atoms: C_3  and  C_4
REMARK    4  A    between atoms: C_4  and  C_5
REMARK    5  A    between atoms: C_5  and  O_6
REMARK    6  A    between atoms: O_6  and  C_7
REMARK    7  A    between atoms: C_10  and  C_12
REMARK    8  A    between atoms: C_12  and  O_13
REMARK    9  A    between atoms: C_14  and  O_16
REMARK   10  A    between atoms: C_17  and  O_19
REMARK   11  A    between atoms: C_20  and  O_22
REMARK                            x       y       z     vdW  Elec       q    Type
REMARK                         _______ _______ _______ _____ _____    ______ ____
ROOT
ATOM      1  C   UNL     1       9.237  -2.378  24.156  0.00  0.00    +0.282 C 
ATOM      2  C   UNL     1       7.804  -2.485  23.588  0.00  0.00    +0.201 C 
ATOM      3  C   UNL     1       6.989  -3.521  24.372  0.00  0.00    +0.179 C 
ATOM      4  C   UNL     1       7.710  -4.872  24.330  0.00  0.00    +0.177 C 
ATOM      5  C   UNL     1       9.161  -4.767  24.826  0.00  0.00    +0.178 C 
ATOM      6  O   UNL     1       9.905  -3.625  24.372  0.00  0.00    -0.341 OA
ENDROOT
BRANCH   2   7
ATOM      7  O   UNL     1       7.814  -2.777  22.182  0.00  0.00    -0.384 OA
ATOM      8  H   UNL     1       7.520  -3.706  22.068  0.00  0.00    +0.210 HD
ENDBRANCH   2   7
BRANCH   3   9
ATOM      9  O   UNL     1       6.753  -3.150  25.729  0.00  0.00    -0.386 OA
ATOM     10  H   UNL     1       7.114  -2.254  25.868  0.00  0.00    +0.210 HD
ENDBRANCH   3   9
BRANCH   4  11
ATOM     11  O   UNL     1       7.696  -5.356  22.976  0.00  0.00    -0.386 OA
ATOM     12  H   UNL     1       6.872  -5.036  22.555  0.00  0.00    +0.210 HD
ENDBRANCH   4  11
BRANCH   1  13
ATOM     13  O   UNL     1       9.172  -1.550  25.322  0.00  0.00    -0.349 OA
BRANCH  13  14
ATOM     14  C   UNL     1       9.504  -0.178  25.139  0.00  0.00    +0.163 C 
BRANCH  14  15
ATOM     15  C   UNL     1      10.498   0.137  24.020  0.00  0.00    +0.028 C 
BRANCH  15  16
ATOM     16  C   UNL     1      10.277   1.574  23.529  0.00  0.00    +0.002 C 
BRANCH  16  18
ATOM     17  C   UNL     1       9.381   0.407  21.501  0.00  0.00    +0.004 C 
ATOM     18  C   UNL     1      10.038   1.680  22.024  0.00  0.00    -0.003 C 
ENDBRANCH  16  18
ENDBRANCH  15  16
ENDBRANCH  14  15
ENDBRANCH  13  14
ENDBRANCH   1  13
BRANCH   5  19
ATOM     19  C   UNL     1       9.288  -4.952  26.344  0.00  0.00    +0.190 C 
BRANCH  19  20
ATOM     20  O   UNL     1       8.215  -5.768  26.821  0.00  0.00    -0.392 OA
ATOM     21  H   UNL     1       8.398  -5.930  27.766  0.00  0.00    +0.210 HD
ENDBRANCH  19  20
ENDBRANCH   5  19
TORSDOF 10
ENDMDL
MODEL 2
REMARK VINA RESULT:      -5.1      1.592      2.897
REMARK  Name = 
REMARK  11 active torsions:
REMARK  status: ('A' for Active; 'I' for Inactive)
REMARK    1  A    between atoms: C_1  and  C_2
REMARK    2  A    between atoms: C_2  and  C_3
REMARK    3  A    between atoms: C_3  and  C_4
REMARK    4  A    between atoms: C_4  and  C_5
REMARK    5  A    between atoms: C_5  and  O_6
REMARK    6  A    between atoms: O_6  and  C_7
REMARK    7  A    between atoms: C_10  and  C_12
REMARK    8  A    between atoms: C_12  and  O_13
REMARK    9  A    between atoms: C_14  and  O_16
REMARK   10  A    between atoms: C_17  and  O_19
REMARK   11  A    between atoms: C_20  and  O_22
REMARK                            x       y       z     vdW  Elec       q    Type
REMARK                         _______ _______ _______ _____ _____    ______ ____
ROOT
ATOM      1  C   UNL     1       9.217  -3.632  24.896  0.00  0.00    +0.282 C 
ATOM      2  C   UNL     1       8.900  -5.136  24.735  0.00  0.00    +0.201 C 
ATOM      3  C   UNL     1       7.431  -5.418  25.073  0.00  0.00    +0.179 C 
ATOM      4  C   UNL     1       7.135  -4.932  26.495  0.00  0.00    +0.177 C 
ATOM      5  C   UNL     1       7.511  -3.455  26.691  0.00  0.00    +0.178 C 
ATOM      6  O   UNL     1       8.759  -3.037  26.114  0.00  0.00    -0.341 OA
ENDROOT
BRANCH   2   7
ATOM      7  O   UNL     1       9.787  -5.948  25.521  0.00  0.00    -0.384 OA
ATOM      8  H   UNL     1      10.705  -5.678  25.308  0.00  0.00    +0.210 HD
ENDBRANCH   2   7
BRANCH   3   9
ATOM      9  O   UNL     1       6.513  -4.813  24.164  0.00  0.00    -0.386 OA
ATOM     10  H   UNL     1       6.585  -5.273  23.306  0.00  0.00    +0.210 HD
ENDBRANCH   3   9
BRANCH   4  11
ATOM     11  O   UNL     1       7.877  -5.746  27.419  0.00  0.00    -0.386 OA
ATOM     12  H   UNL     1       7.404  -6.599  27.510  0.00  0.00    +0.210 HD
ENDBRANCH   4  11
BRANCH   1  13
ATOM     13  O   UNL     1       8.744  -2.969  23.718  0.00  0.00    -0.349 OA
BRANCH  13  14
ATOM     14  C   UNL     1       9.208  -1.639  23.516  0.00  0.00    +0.163 C 
BRANCH  14  15
ATOM     15  C   UNL     1      10.089  -1.404  22.288  0.00  0.00    +0.028 C 
BRANCH  15  16
ATOM     16  C   UNL     1       9.449  -0.333  21.396  0.00  0.00    +0.002 C 
BRANCH  16  18
ATOM     17  C   UNL     1       8.414   1.928  21.699  0.00  0.00    +0.004 C 
ATOM     18  C   UNL     1       9.677   1.095  21.888  0.00  0.00    -0.003 C 
ENDBRANCH  16  18
ENDBRANCH  15  16
ENDBRANCH  14  15
ENDBRANCH  13  14
ENDBRANCH   1  13
BRANCH   5  19
ATOM     19  C   UNL     1       6.372  -2.495  26.322  0.00  0.00    +0.190 C 
BRANCH  19  20
ATOM     20  O   UNL     1       5.126  -3.196  26.341  0.00  0.00    -0.392 OA
ATOM     21  H   UNL     1       4.920  -3.405  25.411  0.00  0.00    +0.210 HD
ENDBRANCH  19  20
ENDBRANCH   5  19
TORSDOF 10
ENDMDL
MODEL 3
REMARK VINA RESULT:      -5.0      1.628      2.505
REMARK  Name = 
REMARK  11 active torsions:
REMARK  status: ('A' for Active; 'I' for Inactive)
REMARK    1  A    between atoms: C_1  and  C_2
REMARK    2  A    between atoms: C_2  and  C_3
REMARK    3  A    between atoms: C_3  and  C_4
REMARK    4  A    between atoms: C_4  and  C_5
REMARK    5  A    between atoms: C_5  and  O_6
REMARK    6  A    between atoms: O_6  and  C_7
REMARK    7  A    between atoms: C_10  and  C_12
REMARK    8  A    between atoms: C_12  and  O_13
REMARK    9  A    between atoms: C_14  and  O_16
REMARK   10  A    between atoms: C_17  and  O_19
REMARK   11  A    between atoms: C_20  and  O_22
REMARK                            x       y       z     vdW  Elec       q    Type
REMARK                         _______ _______ _______ _____ _____    ______ ____
ROOT
ATOM      1  C   UNL     1       8.381  -2.465  25.357  0.00  0.00    +0.282 C 
ATOM      2  C   UNL     1       8.826  -3.165  24.053  0.00  0.00    +0.201 C 
ATOM      3  C   UNL     1       8.387  -4.635  24.053  0.00  0.00    +0.179 C 
ATOM      4  C   UNL     1       8.960  -5.335  25.289  0.00  0.00    +0.177 C 
ATOM      5  C   UNL     1       8.585  -4.609  26.591  0.00  0.00    +0.178 C 
ATOM      6  O   UNL     1       8.673  -3.175  26.564  0.00  0.00    -0.341 OA
ENDROOT
BRANCH   2   7
ATOM      7  O   UNL     1      10.241  -3.038  23.842  0.00  0.00    -0.384 OA
ATOM      8  H   UNL     1      10.521  -3.770  23.252  0.00  0.00    +0.210 HD
ENDBRANCH   2   7
BRANCH   3   9
ATOM      9  O   UNL     1       6.971  -4.805  24.025  0.00  0.00    -0.386 OA
ATOM     10  H   UNL     1       6.769  -5.600  23.496  0.00  0.00    +0.210 HD
ENDBRANCH   3   9
BRANCH   4  11
ATOM     11  O   UNL     1      10.391  -5.390  25.161  0.00  0.00    -0.386 OA
ATOM     12  H   UNL     1      10.720  -6.064  25.790  0.00  0.00    +0.210 HD
ENDBRANCH   4  11
BRANCH   1  13
ATOM     13  O   UNL     1       6.998  -2.126  25.208  0.00  0.00    -0.349 OA
BRANCH  13  14
ATOM     14  C   UNL     1       6.673  -1.277  24.113  0.00  0.00    +0.163 C 
BRANCH  14  15
ATOM     15  C   UNL     1       6.837   0.226  24.345  0.00  0.00    +0.028 C 
BRANCH  15  16
ATOM     16  C   UNL     1       8.169   0.694  23.744  0.00  0.00    +0.002 C 
BRANCH  16  18
ATOM     17  C   UNL     1      10.538   0.506  24.536  0.00  0.00    +0.004 C 
ATOM     18  C   UNL     1       9.184   1.162  24.785  0.00  0.00    -0.003 C 
ENDBRANCH  16  18
ENDBRANCH  15  16
ENDBRANCH  14  15
ENDBRANCH  13  14
ENDBRANCH   1  13
BRANCH   5  19
ATOM     19  C   UNL     1       7.245  -5.078  27.172  0.00  0.00    +0.190 C 
BRANCH  19  20
ATOM     20  O   UNL     1       7.454  -6.225  28.001  0.00  0.00    -0.392 OA
ATOM     21  H   UNL     1       8.416  -6.280  28.148  0.00  0.00    +0.210 HD
ENDBRANCH  19  20
ENDBRANCH   5  19
TORSDOF 10
ENDMDL
MODEL 4
REMARK VINA RESULT:      -5.0      2.351      5.569
REMARK  Name = 
REMARK  11 active torsions:
REMARK  status: ('A' for Active; 'I' for Inactive)
REMARK    1  A    between atoms: C_1  and  C_2
REMARK    2  A    between atoms: C_2  and  C_3
REMARK    3  A    between atoms: C_3  and  C_4
REMARK    4  A    between atoms: C_4  and  C_5
REMARK    5  A    between atoms: C_5  and  O_6
REMARK    6  A    between atoms: O_6  and  C_7
REMARK    7  A    between atoms: C_10  and  C_12
REMARK    8  A    between atoms: C_12  and  O_13
REMARK    9  A    between atoms: C_14  and  O_16
REMARK   10  A    between atoms: C_17  and  O_19
REMARK   11  A    between atoms: C_20  and  O_22
REMARK                            x       y       z     vdW  Elec       q    Type
REMARK                         _______ _______ _______ _____ _____    ______ ____
ROOT
ATOM      1  C   UNL     1       8.572  -1.644  23.276  0.00  0.00    +0.282 C 
ATOM      2  C   UNL     1      10.026  -1.390  22.816  0.00  0.00    +0.201 C 
ATOM      3  C   UNL     1      10.541  -0.055  23.370  0.00  0.00    +0.179 C 
ATOM      4  C   UNL     1       9.606   1.074  22.923  0.00  0.00    +0.177 C 
ATOM      5  C   UNL     1       8.144   0.802  23.311  0.00  0.00    +0.178 C 
ATOM      6  O   UNL     1       7.675  -0.541  23.108  0.00  0.00    -0.341 OA
ENDROOT
BRANCH   2   7
ATOM      7  O   UNL     1      10.145  -1.448  21.386  0.00  0.00    -0.384 OA
ATOM      8  H   UNL     1      11.012  -1.059  21.143  0.00  0.00    +0.210 HD
ENDBRANCH   2   7
BRANCH   3   9
ATOM      9  O   UNL     1      10.661  -0.038  24.791  0.00  0.00    -0.386 OA
ATOM     10  H   UNL     1      11.484   0.432  25.022  0.00  0.00    +0.210 HD
ENDBRANCH   3   9
BRANCH   4  11
ATOM     11  O   UNL     1       9.710   1.215  21.496  0.00  0.00    -0.386 OA
ATOM     12  H   UNL     1       9.790   2.170  21.297  0.00  0.00    +0.210 HD
ENDBRANCH   4  11
BRANCH   1  13
ATOM     13  O   UNL     1       8.630  -2.140  24.617  0.00  0.00    -0.349 OA
BRANCH  13  14
ATOM     14  C   UNL     1       7.880  -3.321  24.883  0.00  0.00    +0.163 C 
BRANCH  14  15
ATOM     15  C   UNL     1       8.209  -4.543  24.026  0.00  0.00    +0.028 C 
BRANCH  15  16
ATOM     16  C   UNL     1       6.954  -4.983  23.260  0.00  0.00    +0.002 C 
BRANCH  16  18
ATOM     17  C   UNL     1       6.232  -5.718  20.977  0.00  0.00    +0.004 C 
ATOM     18  C   UNL     1       7.242  -5.932  22.098  0.00  0.00    -0.003 C 
ENDBRANCH  16  18
ENDBRANCH  15  16
ENDBRANCH  14  15
ENDBRANCH  13  14
ENDBRANCH   1  13
BRANCH   5  19
ATOM     19  C   UNL     1       7.794   1.313  24.714  0.00  0.00    +0.190 C 
BRANCH  19  20
ATOM     20  O   UNL     1       8.835   2.171  25.189  0.00  0.00    -0.392 OA
ATOM     21  H   UNL     1       8.395   2.860  25.721  0.00  0.00    +0.210 HD
ENDBRANCH  19  20
ENDBRANCH   5  19
TORSDOF 10
ENDMDL
MODEL 5
REMARK VINA RESULT:      -4.9      1.363      2.929
REMARK  Name = 
REMARK  11 active torsions:
REMARK  status: ('A' for Active; 'I' for Inactive)
REMARK    1  A    between atoms: C_1  and  C_2
REMARK    2  A    between atoms: C_2  and  C_3
REMARK    3  A    between atoms: C_3  and  C_4
REMARK    4  A    between atoms: C_4  and  C_5
REMARK    5  A    between atoms: C_5  and  O_6
REMARK    6  A    between atoms: O_6  and  C_7
REMARK    7  A    between atoms: C_10  and  C_12
REMARK    8  A    between atoms: C_12  and  O_13
REMARK    9  A    between atoms: C_14  and  O_16
REMARK   10  A    between atoms: C_17  and  O_19
REMARK   11  A    between atoms: C_20  and  O_22
REMARK                            x       y       z     vdW  Elec       q    Type
REMARK                         _______ _______ _______ _____ _____    ______ ____
ROOT
ATOM      1  C   UNL     1       8.653  -2.718  24.652  0.00  0.00    +0.282 C 
ATOM      2  C   UNL     1       8.743  -3.721  25.824  0.00  0.00    +0.201 C 
ATOM      3  C   UNL     1       8.450  -5.146  25.338  0.00  0.00    +0.179 C 
ATOM      4  C   UNL     1       7.070  -5.183  24.675  0.00  0.00    +0.177 C 
ATOM      5  C   UNL     1       6.940  -4.140  23.553  0.00  0.00    +0.178 C 
ATOM      6  O   UNL     1       7.488  -2.841  23.829  0.00  0.00    -0.341 OA
ENDROOT
BRANCH   2   7
ATOM      7  O   UNL     1       7.879  -3.346  26.908  0.00  0.00    -0.384 OA
ATOM      8  H   UNL     1       7.936  -4.047  27.591  0.00  0.00    +0.210 HD
ENDBRANCH   2   7
BRANCH   3   9
ATOM      9  O   UNL     1       9.428  -5.649  24.429  0.00  0.00    -0.386 OA
ATOM     10  H   UNL     1       9.123  -6.516  24.101  0.00  0.00    +0.210 HD
ENDBRANCH   3   9
BRANCH   4  11
ATOM     11  O   UNL     1       6.073  -4.936  25.681  0.00  0.00    -0.386 OA
ATOM     12  H   UNL     1       5.588  -4.124  25.427  0.00  0.00    +0.210 HD
ENDBRANCH   4  11
BRANCH   1  13
ATOM     13  O   UNL     1       9.883  -2.800  23.925  0.00  0.00    -0.349 OA
BRANCH  13  14
ATOM     14  C   UNL     1      10.006  -1.941  22.797  0.00  0.00    +0.163 C 
BRANCH  14  15
ATOM     15  C   UNL     1      10.287  -0.467  23.091  0.00  0.00    +0.028 C 
BRANCH  15  16
ATOM     16  C   UNL     1       9.820   0.390  21.907  0.00  0.00    +0.002 C 
BRANCH  16  18
ATOM     17  C   UNL     1      10.396   2.182  23.560  0.00  0.00    +0.004 C 
ATOM     18  C   UNL     1      10.040   1.889  22.107  0.00  0.00    -0.003 C 
ENDBRANCH  16  18
ENDBRANCH  15  16
ENDBRANCH  14  15
ENDBRANCH  13  14
ENDBRANCH   1  13
BRANCH   5  19
ATOM     19  C   UNL     1       7.407  -4.669  22.190  0.00  0.00    +0.190 C 
BRANCH  19  20
ATOM     20  O   UNL     1       7.398  -6.099  22.199  0.00  0.00    -0.392 OA
ATOM     21  H   UNL     1       8.333  -6.375  22.219  0.00  0.00    +0.210 HD
ENDBRANCH  19  20
ENDBRANCH   5  19
TORSDOF 10
ENDMDL
MODEL 6
REMARK VINA RESULT:      -4.9      1.746      2.324
REMARK  Name = 
REMARK  11 active torsions:
REMARK  status: ('A' for Active; 'I' for Inactive)
REMARK    1  A    between atoms: C_1  and  C_2
REMARK    2  A    between atoms: C_2  and  C_3
REMARK    3  A    between atoms: C_3  and  C_4
REMARK    4  A    between atoms: C_4  and  C_5
REMARK    5  A    between atoms: C_5  and  O_6
REMARK    6  A    between atoms: O_6  and  C_7
REMARK    7  A    between atoms: C_10  and  C_12
REMARK    8  A    between atoms: C_12  and  O_13
REMARK    9  A    between atoms: C_14  and  O_16
REMARK   10  A    between atoms: C_17  and  O_19
REMARK   11  A    between atoms: C_20  and  O_22
REMARK                            x       y       z     vdW  Elec       q    Type
REMARK                         _______ _______ _______ _____ _____    ______ ____
ROOT
ATOM      1  C   UNL     1       7.436  -3.399  22.452  0.00  0.00    +0.282 C 
ATOM      2  C   UNL     1       5.949  -3.485  22.037  0.00  0.00    +0.201 C 
ATOM      3  C   UNL     1       5.082  -3.921  23.225  0.00  0.00    +0.179 C 
ATOM      4  C   UNL     1       5.592  -5.262  23.760  0.00  0.00    +0.177 C 
ATOM      5  C   UNL     1       7.088  -5.213  24.111  0.00  0.00    +0.178 C 
ATOM      6  O   UNL     1       7.936  -4.528  23.174  0.00  0.00    -0.341 OA
ENDROOT
BRANCH   2   7
ATOM      7  O   UNL     1       5.766  -4.350  20.906  0.00  0.00    -0.384 OA
ATOM      8  H   UNL     1       6.601  -4.348  20.391  0.00  0.00    +0.210 HD
ENDBRANCH   2   7
BRANCH   3   9
ATOM      9  O   UNL     1       5.049  -2.967  24.285  0.00  0.00    -0.386 OA
ATOM     10  H   UNL     1       4.289  -3.175  24.860  0.00  0.00    +0.210 HD
ENDBRANCH   3   9
BRANCH   4  11
ATOM     11  O   UNL     1       5.363  -6.270  22.762  0.00  0.00    -0.386 OA
ATOM     12  H   UNL     1       4.397  -6.421  22.708  0.00  0.00    +0.210 HD
ENDBRANCH   4  11
BRANCH   1  13
ATOM     13  O   UNL     1       7.616  -2.153  23.133  0.00  0.00    -0.349 OA
BRANCH  13  14
ATOM     14  C   UNL     1       8.956  -1.807  23.467  0.00  0.00    +0.163 C 
BRANCH  14  15
ATOM     15  C   UNL     1       9.905  -1.551  22.296  0.00  0.00    +0.028 C 
BRANCH  15  16
ATOM     16  C   UNL     1       9.368  -0.393  21.445  0.00  0.00    +0.002 C 
BRANCH  16  18
ATOM     17  C   UNL     1       8.652   1.970  21.867  0.00  0.00    +0.004 C 
ATOM     18  C   UNL     1       9.815   0.986  21.929  0.00  0.00    -0.003 C 
ENDBRANCH  16  18
ENDBRANCH  15  16
ENDBRANCH  14  15
ENDBRANCH  13  14
ENDBRANCH   1  13
BRANCH   5  19
ATOM     19  C   UNL     1       7.349  -4.746  25.549  0.00  0.00    +0.190 C 
BRANCH  19  20
ATOM     20  O   UNL     1       8.043  -5.768  26.269  0.00  0.00    -0.392 OA
ATOM     21  H   UNL     1       8.991  -5.545  26.211  0.00  0.00    +0.210 HD
ENDBRANCH  19  20
ENDBRANCH   5  19
TORSDOF 10
ENDMDL
MODEL 7
REMARK VINA RESULT:      -4.8      3.079      6.193
REMARK  Name = 
REMARK  11 active torsions:
REMARK  status: ('A' for Active; 'I' for Inactive)
REMARK    1  A    between atoms: C_1  and  C_2
REMARK    2  A    between atoms: C_2  and  C_3
REMARK    3  A    between atoms: C_3  and  C_4
REMARK    4  A    between atoms: C_4  and  C_5
REMARK    5  A    between atoms: C_5  and  O_6
REMARK    6  A    between atoms: O_6  and  C_7
REMARK    7  A    between atoms: C_10  and  C_12
REMARK    8  A    between atoms: C_12  and  O_13
REMARK    9  A    between atoms: C_14  and  O_16
REMARK   10  A    between atoms: C_17  and  O_19
REMARK   11  A    between atoms: C_20  and  O_22
REMARK                            x       y       z     vdW  Elec       q    Type
REMARK                         _______ _______ _______ _____ _____    ______ ____
ROOT
ATOM      1  C   UNL     1       8.723   0.518  22.192  0.00  0.00    +0.282 C 
ATOM      2  C   UNL     1       9.913   1.386  22.660  0.00  0.00    +0.201 C 
ATOM      3  C   UNL     1       9.556   2.145  23.944  0.00  0.00    +0.179 C 
ATOM      4  C   UNL     1       8.305   2.995  23.700  0.00  0.00    +0.177 C 
ATOM      5  C   UNL     1       7.132   2.157  23.166  0.00  0.00    +0.178 C 
ATOM      6  O   UNL     1       7.456   1.183  22.161  0.00  0.00    -0.341 OA
ENDROOT
BRANCH   2   7
ATOM      7  O   UNL     1      10.353   2.279  21.625  0.00  0.00    -0.384 OA
ATOM      8  H   UNL     1      10.889   1.758  20.990  0.00  0.00    +0.210 HD
ENDBRANCH   2   7
BRANCH   3   9
ATOM      9  O   UNL     1       9.340   1.292  25.067  0.00  0.00    -0.386 OA
ATOM     10  H   UNL     1       9.936   1.575  25.785  0.00  0.00    +0.210 HD
ENDBRANCH   3   9
BRANCH   4  11
ATOM     11  O   UNL     1       8.632   4.027  22.754  0.00  0.00    -0.386 OA
ATOM     12  H   UNL     1       8.583   3.635  21.858  0.00  0.00    +0.210 HD
ENDBRANCH   4  11
BRANCH   1  13
ATOM     13  O   UNL     1       8.728  -0.674  22.984  0.00  0.00    -0.349 OA
BRANCH  13  14
ATOM     14  C   UNL     1       8.628  -1.903  22.271  0.00  0.00    +0.163 C 
BRANCH  14  15
ATOM     15  C   UNL     1       7.419  -2.781  22.598  0.00  0.00    +0.028 C 
BRANCH  15  16
ATOM     16  C   UNL     1       7.883  -4.025  23.368  0.00  0.00    +0.002 C 
BRANCH  16  18
ATOM     17  C   UNL     1       7.159  -5.685  21.638  0.00  0.00    +0.004 C 
ATOM     18  C   UNL     1       7.036  -5.267  23.099  0.00  0.00    -0.003 C 
ENDBRANCH  16  18
ENDBRANCH  15  16
ENDBRANCH  14  15
ENDBRANCH  13  14
ENDBRANCH   1  13
BRANCH   5  19
ATOM     19  C   UNL     1       6.277   1.547  24.285  0.00  0.00    +0.190 C 
BRANCH  19  20
ATOM     20  O   UNL     1       5.923   0.204  23.942  0.00  0.00    -0.392 OA
ATOM     21  H   UNL     1       5.415   0.263  23.111  0.00  0.00    +0.210 HD
ENDBRANCH  19  20
ENDBRANCH   5  19
TORSDOF 10
ENDMDL
MODEL 8
REMARK VINA RESULT:      -4.7      2.361      5.820
REMARK  Name = 
REMARK  11 active torsions:
REMARK  status: ('A' for Active; 'I' for Inactive)
REMARK    1  A    between atoms: C_1  and  C_2
REMARK    2  A    between atoms: C_2  and  C_3
REMARK    3  A    between atoms: C_3  and  C_4
REMARK    4  A    between atoms: C_4  and  C_5
REMARK    5  A    between atoms: C_5  and  O_6
REMARK    6  A    between atoms: O_6  and  C_7
REMARK    7  A    between atoms: C_10  and  C_12
REMARK    8  A    between atoms: C_12  and  O_13
REMARK    9  A    between atoms: C_14  and  O_16
REMARK   10  A    between atoms: C_17  and  O_19
REMARK   11  A    between atoms: C_20  and  O_22
REMARK                            x       y       z     vdW  Elec       q    Type
REMARK                         _______ _______ _______ _____ _____    ______ ____
ROOT
ATOM      1  C   UNL     1       8.176  -1.179  22.791  0.00  0.00    +0.282 C 
ATOM      2  C   UNL     1       9.621  -0.991  22.276  0.00  0.00    +0.201 C 
ATOM      3  C   UNL     1      10.303   0.177  22.997  0.00  0.00    +0.179 C 
ATOM      4  C   UNL     1       9.470   1.449  22.804  0.00  0.00    +0.177 C 
ATOM      5  C   UNL     1       8.011   1.256  23.247  0.00  0.00    +0.178 C 
ATOM      6  O   UNL     1       7.392   0.016  22.866  0.00  0.00    -0.341 OA
ENDROOT
BRANCH   2   7
ATOM      7  O   UNL     1       9.655  -0.823  20.850  0.00  0.00    -0.384 OA
ATOM      8  H   UNL     1      10.053   0.054  20.663  0.00  0.00    +0.210 HD
ENDBRANCH   2   7
BRANCH   3   9
ATOM      9  O   UNL     1      10.503  -0.053  24.391  0.00  0.00    -0.386 OA
ATOM     10  H   UNL     1      10.342  -0.999  24.570  0.00  0.00    +0.210 HD
ENDBRANCH   3   9
BRANCH   4  11
ATOM     11  O   UNL     1       9.510   1.814  21.415  0.00  0.00    -0.386 OA
ATOM     12  H   UNL     1       8.916   2.583  21.293  0.00  0.00    +0.210 HD
ENDBRANCH   4  11
BRANCH   1  13
ATOM     13  O   UNL     1       8.255  -1.895  24.029  0.00  0.00    -0.349 OA
BRANCH  13  14
ATOM     14  C   UNL     1       8.895  -3.165  23.980  0.00  0.00    +0.163 C 
BRANCH  14  15
ATOM     15  C   UNL     1       8.064  -4.364  24.439  0.00  0.00    +0.028 C 
BRANCH  15  16
ATOM     16  C   UNL     1       8.758  -5.044  25.627  0.00  0.00    +0.002 C 
BRANCH  16  18
ATOM     17  C   UNL     1       6.881  -4.078  26.976  0.00  0.00    +0.004 C 
ATOM     18  C   UNL     1       7.849  -5.248  26.837  0.00  0.00    -0.003 C 
ENDBRANCH  16  18
ENDBRANCH  15  16
ENDBRANCH  14  15
ENDBRANCH  13  14
ENDBRANCH   1  13
BRANCH   5  19
ATOM     19  C   UNL     1       7.794   1.557  24.736  0.00  0.00    +0.190 C 
BRANCH  19  20
ATOM     20  O   UNL     1       8.871   2.360  25.227  0.00  0.00    -0.392 OA
ATOM     21  H   UNL     1       9.452   1.756  25.726  0.00  0.00    +0.210 HD
ENDBRANCH  19  20
ENDBRANCH   5  19
TORSDOF 10
ENDMDL
MODEL 9
REMARK VINA RESULT:      -4.7      2.147      5.599
REMARK  Name = 
REMARK  11 active torsions:
REMARK  status: ('A' for Active; 'I' for Inactive)
REMARK    1  A    between atoms: C_1  and  C_2
REMARK    2  A    between atoms: C_2  and  C_3
REMARK    3  A    between atoms: C_3  and  C_4
REMARK    4  A    between atoms: C_4  and  C_5
REMARK    5  A    between atoms: C_5  and  O_6
REMARK    6  A    between atoms: O_6  and  C_7
REMARK    7  A    between atoms: C_10  and  C_12
REMARK    8  A    between atoms: C_12  and  O_13
REMARK    9  A    between atoms: C_14  and  O_16
REMARK   10  A    between atoms: C_17  and  O_19
REMARK   11  A    between atoms: C_20  and  O_22
REMARK                            x       y       z     vdW  Elec       q    Type
REMARK                         _______ _______ _______ _____ _____    ______ ____
ROOT
ATOM      1  C   UNL     1       8.502  -1.836  24.972  0.00  0.00    +0.282 C 
ATOM      2  C   UNL     1       8.378  -0.499  25.739  0.00  0.00    +0.201 C 
ATOM      3  C   UNL     1       8.640   0.687  24.802  0.00  0.00    +0.179 C 
ATOM      4  C   UNL     1      10.025   0.533  24.165  0.00  0.00    +0.177 C 
ATOM      5  C   UNL     1      10.189  -0.822  23.459  0.00  0.00    +0.178 C 
ATOM      6  O   UNL     1       9.670  -1.966  24.155  0.00  0.00    -0.341 OA
ENDROOT
BRANCH   2   7
ATOM      7  O   UNL     1       9.242  -0.467  26.885  0.00  0.00    -0.384 OA
ATOM      8  H   UNL     1      10.030  -1.012  26.680  0.00  0.00    +0.210 HD
ENDBRANCH   2   7
BRANCH   3   9
ATOM      9  O   UNL     1       7.658   0.829  23.777  0.00  0.00    -0.386 OA
ATOM     10  H   UNL     1       6.809   0.491  24.118  0.00  0.00    +0.210 HD
ENDBRANCH   3   9
BRANCH   4  11
ATOM     11  O   UNL     1      11.019   0.665  25.196  0.00  0.00    -0.386 OA
ATOM     12  H   UNL     1      11.060  -0.186  25.679  0.00  0.00    +0.210 HD
ENDBRANCH   4  11
BRANCH   1  13
ATOM     13  O   UNL     1       7.276  -2.034  24.260  0.00  0.00    -0.349 OA
BRANCH  13  14
ATOM     14  C   UNL     1       7.248  -3.127  23.349  0.00  0.00    +0.163 C 
BRANCH  14  15
ATOM     15  C   UNL     1       7.194  -4.526  23.965  0.00  0.00    +0.028 C 
BRANCH  15  16
ATOM     16  C   UNL     1       7.575  -5.567  22.905  0.00  0.00    +0.002 C 
BRANCH  16  18
ATOM     17  C   UNL     1       6.192  -5.692  20.820  0.00  0.00    +0.004 C 
ATOM     18  C   UNL     1       6.374  -6.232  22.234  0.00  0.00    -0.003 C 
ENDBRANCH  16  18
ENDBRANCH  15  16
ENDBRANCH  14  15
ENDBRANCH  13  14
ENDBRANCH   1  13
BRANCH   5  19
ATOM     19  C   UNL     1       9.721  -0.794  21.998  0.00  0.00    +0.190 C 
BRANCH  19  20
ATOM     20  O   UNL     1       9.694   0.556  21.526  0.00  0.00    -0.392 OA
ATOM     21  H   UNL     1      10.499   0.669  20.985  0.00  0.00    +0.210 HD
ENDBRANCH  19  20
ENDBRANCH   5  19
TORSDOF 10
ENDMDL
