MODEL 1
REMARK VINA RESULT:      -5.2      0.000      0.000
REMARK  Name = 
REMARK  6 active torsions:
REMARK  status: ('A' for Active; 'I' for Inactive)
REMARK    1  A    between atoms: O_1  and  C_2
REMARK    2  A    between atoms: C_2  and  C_3
REMARK    3  A    between atoms: C_3  and  O_4
REMARK    4  A    between atoms: C_3  and  C_5
REMARK    5  A    between atoms: C_5  and  O_6
REMARK    6  A    between atoms: O_6  and  C_7
REMARK                            x       y       z     vdW  Elec       q    Type
REMARK                         _______ _______ _______ _____ _____    ______ ____
ROOT
ATOM      1  O   UNL     1      10.465   3.623  23.500  0.00  0.00    -0.489 OA
ENDROOT
BRANCH   1   2
ATOM      2  C   UNL     1      10.324   2.274  23.269  0.00  0.00    +0.121 A 
ATOM      3  C   UNL     1      10.553   1.445  24.371  0.00  0.00    +0.047 A 
ATOM      4  C   UNL     1      10.424   0.053  24.251  0.00  0.00    +0.023 A 
ATOM      5  C   UNL     1      10.066  -0.506  23.025  0.00  0.00    +0.041 A 
ATOM      6 CL   UNL     1       9.896  -2.210  22.871  0.00  0.00    -0.084 Cl
ATOM      7  C   UNL     1       9.844   0.310  21.922  0.00  0.00    +0.023 A 
ATOM      8  C   UNL     1       9.977   1.696  22.044  0.00  0.00    +0.047 A 
ENDBRANCH   1   2
BRANCH   1   9
ATOM      9  C   UNL     1      11.793   4.139  23.309  0.00  0.00    +0.262 C 
BRANCH   9  10
ATOM     10  C   UNL     1      11.826   5.660  23.497  0.00  0.00    +0.177 C 
BRANCH  10  11
ATOM     11  O   UNL     1      12.873   6.034  24.398  0.00  0.00    -0.386 OA
ATOM     12  H   UNL     1      13.393   5.225  24.566  0.00  0.00    +0.210 HD
ENDBRANCH  10  11
BRANCH  10  13
ATOM     13  C   UNL     1      10.495   6.229  23.992  0.00  0.00    +0.190 C 
BRANCH  13  14
ATOM     14  O   UNL     1       9.532   6.241  22.947  0.00  0.00    -0.392 OA
ATOM     15  H   UNL     1       8.660   6.332  23.368  0.00  0.00    +0.210 HD
ENDBRANCH  13  14
ENDBRANCH  10  13
ENDBRANCH   9  10
ENDBRANCH   1   9
TORSDOF 6
ENDMDL
MODEL 2
REMARK VINA RESULT:      -5.2      5.243      7.644
REMARK  Name = 
REMARK  6 active torsions:
REMARK  status: ('A' for Active; 'I' for Inactive)
REMARK    1  A    between atoms: O_1  and  C_2
REMARK    2  A    between atoms: C_2  and  C_3
REMARK    3  A    between atoms: C_3  and  O_4
REMARK    4  A    between atoms: C_3  and  C_5
REMARK    5  A    between atoms: C_5  and  O_6
REMARK    6  A    between atoms: O_6  and  C_7
REMARK                            x       y       z     vdW  Elec       q    Type
REMARK                         _______ _______ _______ _____ _____    ______ ____
ROOT
ATOM      1  O   UNL     1      10.124  -3.229  24.027  0.00  0.00    -0.489 OA
ENDROOT
BRANCH   1   2
ATOM      2  C   UNL     1       9.966  -1.958  23.525  0.00  0.00    +0.121 A 
ATOM      3  C   UNL     1       9.907  -0.935  24.475  0.00  0.00    +0.047 A 
ATOM      4  C   UNL     1       9.760   0.400  24.072  0.00  0.00    +0.023 A 
ATOM      5  C   UNL     1       9.672   0.708  22.716  0.00  0.00    +0.041 A 
ATOM      6 CL   UNL     1       9.501   2.343  22.212  0.00  0.00    -0.084 Cl
ATOM      7  C   UNL     1       9.721  -0.303  21.764  0.00  0.00    +0.023 A 
ATOM      8  C   UNL     1       9.864  -1.633  22.169  0.00  0.00    +0.047 A 
ENDBRANCH   1   2
BRANCH   1   9
ATOM      9  C   UNL     1       8.906  -3.890  24.410  0.00  0.00    +0.262 C 
BRANCH   9  10
ATOM     10  C   UNL     1       9.076  -4.632  25.741  0.00  0.00    +0.177 C 
BRANCH  10  11
ATOM     11  O   UNL     1      10.125  -5.601  25.647  0.00  0.00    -0.386 OA
ATOM     12  H   UNL     1      10.560  -5.622  26.521  0.00  0.00    +0.210 HD
ENDBRANCH  10  11
BRANCH  10  13
ATOM     13  C   UNL     1       7.790  -5.311  26.214  0.00  0.00    +0.190 C 
BRANCH  13  14
ATOM     14  O   UNL     1       7.970  -5.894  27.498  0.00  0.00    -0.392 OA
ATOM     15  H   UNL     1       8.728  -6.499  27.429  0.00  0.00    +0.210 HD
ENDBRANCH  13  14
ENDBRANCH  10  13
ENDBRANCH   9  10
ENDBRANCH   1   9
TORSDOF 6
ENDMDL
MODEL 3
REMARK VINA RESULT:      -5.1      1.144      1.917
REMARK  Name = 
REMARK  6 active torsions:
REMARK  status: ('A' for Active; 'I' for Inactive)
REMARK    1  A    between atoms: O_1  and  C_2
REMARK    2  A    between atoms: C_2  and  C_3
REMARK    3  A    between atoms: C_3  and  O_4
REMARK    4  A    between atoms: C_3  and  C_5
REMARK    5  A    between atoms: C_5  and  O_6
REMARK    6  A    between atoms: O_6  and  C_7
REMARK                            x       y       z     vdW  Elec       q    Type
REMARK                         _______ _______ _______ _____ _____    ______ ____
ROOT
ATOM      1  O   UNL     1      10.210   3.352  23.502  0.00  0.00    -0.489 OA
ENDROOT
BRANCH   1   2
ATOM      2  C   UNL     1       9.852   2.076  23.136  0.00  0.00    +0.121 A 
ATOM      3  C   UNL     1       9.546   1.208  24.187  0.00  0.00    +0.047 A 
ATOM      4  C   UNL     1       9.156  -0.114  23.927  0.00  0.00    +0.023 A 
ATOM      5  C   UNL     1       9.073  -0.564  22.610  0.00  0.00    +0.041 A 
ATOM      6 CL   UNL     1       8.586  -2.180  22.280  0.00  0.00    -0.084 Cl
ATOM      7  C   UNL     1       9.384   0.289  21.558  0.00  0.00    +0.023 A 
ATOM      8  C   UNL     1       9.775   1.605  21.821  0.00  0.00    +0.047 A 
ENDBRANCH   1   2
BRANCH   1   9
ATOM      9  C   UNL     1      11.617   3.638  23.422  0.00  0.00    +0.262 C 
BRANCH   9  10
ATOM     10  C   UNL     1      11.871   5.149  23.378  0.00  0.00    +0.177 C 
BRANCH  10  11
ATOM     11  O   UNL     1      10.712   5.841  22.906  0.00  0.00    -0.386 OA
ATOM     12  H   UNL     1      10.056   5.805  23.629  0.00  0.00    +0.210 HD
ENDBRANCH  10  11
BRANCH  10  13
ATOM     13  C   UNL     1      13.080   5.527  22.520  0.00  0.00    +0.190 C 
BRANCH  13  14
ATOM     14  O   UNL     1      14.288   5.089  23.130  0.00  0.00    -0.392 OA
ATOM     15  H   UNL     1      14.096   4.238  23.558  0.00  0.00    +0.210 HD
ENDBRANCH  13  14
ENDBRANCH  10  13
ENDBRANCH   9  10
ENDBRANCH   1   9
TORSDOF 6
ENDMDL
MODEL 4
REMARK VINA RESULT:      -4.9      5.171      7.494
REMARK  Name = 
REMARK  6 active torsions:
REMARK  status: ('A' for Active; 'I' for Inactive)
REMARK    1  A    between atoms: O_1  and  C_2
REMARK    2  A    between atoms: C_2  and  C_3
REMARK    3  A    between atoms: C_3  and  O_4
REMARK    4  A    between atoms: C_3  and  C_5
REMARK    5  A    between atoms: C_5  and  O_6
REMARK    6  A    between atoms: O_6  and  C_7
REMARK                            x       y       z     vdW  Elec       q    Type
REMARK                         _______ _______ _______ _____ _____    ______ ____
ROOT
ATOM      1  O   UNL     1       9.624  -3.340  23.801  0.00  0.00    -0.489 OA
ENDROOT
BRANCH   1   2
ATOM      2  C   UNL     1       9.733  -2.043  23.356  0.00  0.00    +0.121 A 
ATOM      3  C   UNL     1       9.977  -1.083  24.342  0.00  0.00    +0.047 A 
ATOM      4  C   UNL     1      10.118   0.269  23.997  0.00  0.00    +0.023 A 
ATOM      5  C   UNL     1      10.013   0.657  22.663  0.00  0.00    +0.041 A 
ATOM      6 CL   UNL     1      10.194   2.312  22.229  0.00  0.00    -0.084 Cl
ATOM      7  C   UNL     1       9.762  -0.288  21.676  0.00  0.00    +0.023 A 
ATOM      8  C   UNL     1       9.619  -1.635  22.023  0.00  0.00    +0.047 A 
ENDBRANCH   1   2
BRANCH   1   9
ATOM      9  C   UNL     1       8.285  -3.861  23.845  0.00  0.00    +0.262 C 
BRANCH   9  10
ATOM     10  C   UNL     1       8.081  -4.757  25.072  0.00  0.00    +0.177 C 
BRANCH  10  11
ATOM     11  O   UNL     1       6.965  -4.306  25.845  0.00  0.00    -0.386 OA
ATOM     12  H   UNL     1       6.883  -3.348  25.678  0.00  0.00    +0.210 HD
ENDBRANCH  10  11
BRANCH  10  13
ATOM     13  C   UNL     1       9.323  -4.840  25.962  0.00  0.00    +0.190 C 
BRANCH  13  14
ATOM     14  O   UNL     1      10.328  -5.638  25.352  0.00  0.00    -0.392 OA
ATOM     15  H   UNL     1      11.183  -5.223  25.559  0.00  0.00    +0.210 HD
ENDBRANCH  13  14
ENDBRANCH  10  13
ENDBRANCH   9  10
ENDBRANCH   1   9
TORSDOF 6
ENDMDL
MODEL 5
REMARK VINA RESULT:      -4.8      3.134      4.845
REMARK  Name = 
REMARK  6 active torsions:
REMARK  status: ('A' for Active; 'I' for Inactive)
REMARK    1  A    between atoms: O_1  and  C_2
REMARK    2  A    between atoms: C_2  and  C_3
REMARK    3  A    between atoms: C_3  and  O_4
REMARK    4  A    between atoms: C_3  and  C_5
REMARK    5  A    between atoms: C_5  and  O_6
REMARK    6  A    between atoms: O_6  and  C_7
REMARK                            x       y       z     vdW  Elec       q    Type
REMARK                         _______ _______ _______ _____ _____    ______ ____
ROOT
ATOM      1  O   UNL     1      10.422  -1.015  22.909  0.00  0.00    -0.489 OA
ENDROOT
BRANCH   1   2
ATOM      2  C   UNL     1       9.551  -2.051  23.155  0.00  0.00    +0.121 A 
ATOM      3  C   UNL     1       8.476  -2.161  22.269  0.00  0.00    +0.047 A 
ATOM      4  C   UNL     1       7.534  -3.189  22.419  0.00  0.00    +0.023 A 
ATOM      5  C   UNL     1       7.671  -4.107  23.460  0.00  0.00    +0.041 A 
ATOM      6 CL   UNL     1       6.527  -5.376  23.647  0.00  0.00    -0.084 Cl
ATOM      7  C   UNL     1       8.732  -4.000  24.351  0.00  0.00    +0.023 A 
ATOM      8  C   UNL     1       9.667  -2.972  24.200  0.00  0.00    +0.047 A 
ENDBRANCH   1   2
BRANCH   1   9
ATOM      9  C   UNL     1       9.954  -0.035  21.966  0.00  0.00    +0.262 C 
BRANCH   9  10
ATOM     10  C   UNL     1       9.871   1.354  22.610  0.00  0.00    +0.177 C 
BRANCH  10  11
ATOM     11  O   UNL     1      10.289   2.362  21.686  0.00  0.00    -0.386 OA
ATOM     12  H   UNL     1       9.884   3.198  21.988  0.00  0.00    +0.210 HD
ENDBRANCH  10  11
BRANCH  10  13
ATOM     13  C   UNL     1      10.690   1.464  23.898  0.00  0.00    +0.190 C 
BRANCH  13  14
ATOM     14  O   UNL     1       9.908   1.098  25.026  0.00  0.00    -0.392 OA
ATOM     15  H   UNL     1      10.270   1.580  25.789  0.00  0.00    +0.210 HD
ENDBRANCH  13  14
ENDBRANCH  10  13
ENDBRANCH   9  10
ENDBRANCH   1   9
TORSDOF 6
ENDMDL
MODEL 6
REMARK VINA RESULT:      -4.8      4.360      6.917
REMARK  Name = 
REMARK  6 active torsions:
REMARK  status: ('A' for Active; 'I' for Inactive)
REMARK    1  A    between atoms: O_1  and  C_2
REMARK    2  A    between atoms: C_2  and  C_3
REMARK    3  A    between atoms: C_3  and  O_4
REMARK    4  A    between atoms: C_3  and  C_5
REMARK    5  A    between atoms: C_5  and  O_6
REMARK    6  A    between atoms: O_6  and  C_7
REMARK                            x       y       z     vdW  Elec       q    Type
REMARK                         _______ _______ _______ _____ _____    ______ ____
ROOT
ATOM      1  O   UNL     1       9.919  -1.895  22.713  0.00  0.00    -0.489 OA
ENDROOT
BRANCH   1   2
ATOM      2  C   UNL     1      10.074  -0.555  22.981  0.00  0.00    +0.121 A 
ATOM      3  C   UNL     1       9.823   0.309  21.911  0.00  0.00    +0.047 A 
ATOM      4  C   UNL     1       9.938   1.697  22.077  0.00  0.00    +0.023 A 
ATOM      5  C   UNL     1      10.306   2.218  23.316  0.00  0.00    +0.041 A 
ATOM      6 CL   UNL     1      10.440   3.918  23.532  0.00  0.00    -0.084 Cl
ATOM      7  C   UNL     1      10.566   1.367  24.384  0.00  0.00    +0.023 A 
ATOM      8  C   UNL     1      10.454  -0.016  24.215  0.00  0.00    +0.047 A 
ENDBRANCH   1   2
BRANCH   1   9
ATOM      9  C   UNL     1      10.000  -2.760  23.859  0.00  0.00    +0.262 C 
BRANCH   9  10
ATOM     10  C   UNL     1       8.653  -3.436  24.137  0.00  0.00    +0.177 C 
BRANCH  10  11
ATOM     11  O   UNL     1       7.868  -2.644  25.033  0.00  0.00    -0.386 OA
ATOM     12  H   UNL     1       7.023  -3.119  25.152  0.00  0.00    +0.210 HD
ENDBRANCH  10  11
BRANCH  10  13
ATOM     13  C   UNL     1       8.799  -4.852  24.695  0.00  0.00    +0.190 C 
BRANCH  13  14
ATOM     14  O   UNL     1      10.165  -5.160  24.939  0.00  0.00    -0.392 OA
ATOM     15  H   UNL     1      10.211  -5.558  25.825  0.00  0.00    +0.210 HD
ENDBRANCH  13  14
ENDBRANCH  10  13
ENDBRANCH   9  10
ENDBRANCH   1   9
TORSDOF 6
ENDMDL
MODEL 7
REMARK VINA RESULT:      -4.7      3.144      4.448
REMARK  Name = 
REMARK  6 active torsions:
REMARK  status: ('A' for Active; 'I' for Inactive)
REMARK    1  A    between atoms: O_1  and  C_2
REMARK    2  A    between atoms: C_2  and  C_3
REMARK    3  A    between atoms: C_3  and  O_4
REMARK    4  A    between atoms: C_3  and  C_5
REMARK    5  A    between atoms: C_5  and  O_6
REMARK    6  A    between atoms: O_6  and  C_7
REMARK                            x       y       z     vdW  Elec       q    Type
REMARK                         _______ _______ _______ _____ _____    ______ ____
ROOT
ATOM      1  O   UNL     1      10.288  -0.471  22.796  0.00  0.00    -0.489 OA
ENDROOT
BRANCH   1   2
ATOM      2  C   UNL     1       9.553  -1.604  23.059  0.00  0.00    +0.121 A 
ATOM      3  C   UNL     1       8.468  -1.833  22.208  0.00  0.00    +0.047 A 
ATOM      4  C   UNL     1       7.659  -2.966  22.377  0.00  0.00    +0.023 A 
ATOM      5  C   UNL     1       7.940  -3.869  23.401  0.00  0.00    +0.041 A 
ATOM      6 CL   UNL     1       6.959  -5.266  23.611  0.00  0.00    -0.084 Cl
ATOM      7  C   UNL     1       9.011  -3.646  24.258  0.00  0.00    +0.023 A 
ATOM      8  C   UNL     1       9.813  -2.514  24.088  0.00  0.00    +0.047 A 
ENDBRANCH   1   2
BRANCH   1   9
ATOM      9  C   UNL     1      10.710   0.265  23.956  0.00  0.00    +0.262 C 
BRANCH   9  10
ATOM     10  C   UNL     1      10.109   1.675  23.963  0.00  0.00    +0.177 C 
BRANCH  10  11
ATOM     11  O   UNL     1       9.248   1.850  25.092  0.00  0.00    -0.386 OA
ATOM     12  H   UNL     1       9.784   2.286  25.782  0.00  0.00    +0.210 HD
ENDBRANCH  10  11
BRANCH  10  13
ATOM     13  C   UNL     1       9.346   2.005  22.679  0.00  0.00    +0.190 C 
BRANCH  13  14
ATOM     14  O   UNL     1      10.245   2.232  21.602  0.00  0.00    -0.392 OA
ATOM     15  H   UNL     1       9.752   2.062  20.782  0.00  0.00    +0.210 HD
ENDBRANCH  13  14
ENDBRANCH  10  13
ENDBRANCH   9  10
ENDBRANCH   1   9
TORSDOF 6
ENDMDL
MODEL 8
REMARK VINA RESULT:      -4.6      4.456      6.919
REMARK  Name = 
REMARK  6 active torsions:
REMARK  status: ('A' for Active; 'I' for Inactive)
REMARK    1  A    between atoms: O_1  and  C_2
REMARK    2  A    between atoms: C_2  and  C_3
REMARK    3  A    between atoms: C_3  and  O_4
REMARK    4  A    between atoms: C_3  and  C_5
REMARK    5  A    between atoms: C_5  and  O_6
REMARK    6  A    between atoms: O_6  and  C_7
REMARK                            x       y       z     vdW  Elec       q    Type
REMARK                         _______ _______ _______ _____ _____    ______ ____
ROOT
ATOM      1  O   UNL     1       9.488  -1.977  22.346  0.00  0.00    -0.489 OA
ENDROOT
BRANCH   1   2
ATOM      2  C   UNL     1       9.829  -0.690  22.691  0.00  0.00    +0.121 A 
ATOM      3  C   UNL     1       9.628   0.276  21.701  0.00  0.00    +0.047 A 
ATOM      4  C   UNL     1       9.929   1.622  21.951  0.00  0.00    +0.023 A 
ATOM      5  C   UNL     1      10.433   2.000  23.195  0.00  0.00    +0.041 A 
ATOM      6 CL   UNL     1      10.796   3.650  23.514  0.00  0.00    -0.084 Cl
ATOM      7  C   UNL     1      10.644   1.046  24.183  0.00  0.00    +0.023 A 
ATOM      8  C   UNL     1      10.346  -0.297  23.930  0.00  0.00    +0.047 A 
ENDBRANCH   1   2
BRANCH   1   9
ATOM      9  C   UNL     1       8.402  -2.544  23.098  0.00  0.00    +0.262 C 
BRANCH   9  10
ATOM     10  C   UNL     1       7.121  -2.601  22.260  0.00  0.00    +0.177 C 
BRANCH  10  11
ATOM     11  O   UNL     1       6.131  -1.716  22.792  0.00  0.00    -0.386 OA
ATOM     12  H   UNL     1       6.586  -1.158  23.452  0.00  0.00    +0.210 HD
ENDBRANCH  10  11
BRANCH  10  13
ATOM     13  C   UNL     1       6.542  -4.013  22.150  0.00  0.00    +0.190 C 
BRANCH  13  14
ATOM     14  O   UNL     1       5.698  -4.125  21.011  0.00  0.00    -0.392 OA
ATOM     15  H   UNL     1       5.475  -5.067  20.917  0.00  0.00    +0.210 HD
ENDBRANCH  13  14
ENDBRANCH  10  13
ENDBRANCH   9  10
ENDBRANCH   1   9
TORSDOF 6
ENDMDL
MODEL 9
REMARK VINA RESULT:      -4.6      5.384      8.025
REMARK  Name = 
REMARK  6 active torsions:
REMARK  status: ('A' for Active; 'I' for Inactive)
REMARK    1  A    between atoms: O_1  and  C_2
REMARK    2  A    between atoms: C_2  and  C_3
REMARK    3  A    between atoms: C_3  and  O_4
REMARK    4  A    between atoms: C_3  and  C_5
REMARK    5  A    between atoms: C_5  and  O_6
REMARK    6  A    between atoms: O_6  and  C_7
REMARK                            x       y       z     vdW  Elec       q    Type
REMARK                         _______ _______ _______ _____ _____    ______ ____
ROOT
ATOM      1  O   UNL     1       9.120  -3.217  23.256  0.00  0.00    -0.489 OA
ENDROOT
BRANCH   1   2
ATOM      2  C   UNL     1       9.463  -1.889  23.144  0.00  0.00    +0.121 A 
ATOM      3  C   UNL     1       9.312  -1.331  21.872  0.00  0.00    +0.047 A 
ATOM      4  C   UNL     1       9.620   0.019  21.649  0.00  0.00    +0.023 A 
ATOM      5  C   UNL     1      10.080   0.808  22.702  0.00  0.00    +0.041 A 
ATOM      6 CL   UNL     1      10.451   2.466  22.440  0.00  0.00    -0.084 Cl
ATOM      7  C   UNL     1      10.241   0.259  23.968  0.00  0.00    +0.023 A 
ATOM      8  C   UNL     1       9.937  -1.088  24.187  0.00  0.00    +0.047 A 
ENDBRANCH   1   2
BRANCH   1   9
ATOM      9  C   UNL     1       7.816  -3.555  22.753  0.00  0.00    +0.262 C 
BRANCH   9  10
ATOM     10  C   UNL     1       7.475  -5.020  23.046  0.00  0.00    +0.177 C 
BRANCH  10  11
ATOM     11  O   UNL     1       8.535  -5.649  23.773  0.00  0.00    -0.386 OA
ATOM     12  H   UNL     1       9.190  -5.939  23.109  0.00  0.00    +0.210 HD
ENDBRANCH  10  11
BRANCH  10  13
ATOM     13  C   UNL     1       7.169  -5.827  21.783  0.00  0.00    +0.190 C 
BRANCH  13  14
ATOM     14  O   UNL     1       6.109  -6.746  22.016  0.00  0.00    -0.392 OA
ATOM     15  H   UNL     1       5.334  -6.409  21.536  0.00  0.00    +0.210 HD
ENDBRANCH  13  14
ENDBRANCH  10  13
ENDBRANCH   9  10
ENDBRANCH   1   9
TORSDOF 6
ENDMDL
