MODEL 1
REMARK VINA RESULT:      -6.6      0.000      0.000
REMARK  Name = 
REMARK  2 active torsions:
REMARK  status: ('A' for Active; 'I' for Inactive)
REMARK    1  A    between atoms: N_1  and  N_2
REMARK    2  A    between atoms: C_3  and  C_5
REMARK                            x       y       z     vdW  Elec       q    Type
REMARK                         _______ _______ _______ _____ _____    ______ ____
ROOT
ATOM      1  C   UNL     1       7.348  -3.292  22.766  0.00  0.00    +0.145 A 
ATOM      2  N   UNL     1       7.884  -2.164  22.153  0.00  0.00    -0.223 NA
ATOM      3  C   UNL     1       8.418  -1.460  23.135  0.00  0.00    +0.146 A 
ATOM      4  N   UNL     1       8.257  -2.090  24.360  0.00  0.00    -0.305 N 
ATOM      5  C   UNL     1       8.716  -1.558  25.561  0.00  0.00    +0.093 A 
ATOM      6  C   UNL     1       9.359  -0.376  25.591  0.00  0.00    +0.026 A 
ATOM      7  C   UNL     1       9.587   0.365  24.329  0.00  0.00    -0.013 A 
ATOM      8  C   UNL     1      10.264   1.589  24.341  0.00  0.00    +0.008 A 
ATOM      9  C   UNL     1      10.480   2.274  23.145  0.00  0.00    +0.001 A 
ATOM     10  C   UNL     1      10.014   1.747  21.937  0.00  0.00    +0.001 A 
ATOM     11  C   UNL     1       9.333   0.529  21.913  0.00  0.00    +0.012 A 
ATOM     12  C   UNL     1       9.118  -0.171  23.101  0.00  0.00    +0.025 A 
ATOM     13  C   UNL     1       7.588  -3.260  24.126  0.00  0.00    +0.125 A 
ENDROOT
BRANCH   1  16
ATOM     14  N   UNL     1       7.059  -5.621  22.378  0.00  0.00    -0.248 N 
ATOM     15  H   UNL     1       7.741  -5.696  23.134  0.00  0.00    +0.169 HD
ATOM     16  C   UNL     1       6.619  -4.343  22.053  0.00  0.00    +0.277 C 
ATOM     17  O   UNL     1       5.729  -4.110  21.238  0.00  0.00    -0.267 OA
BRANCH  14  18
ATOM     18  N   UNL     1       6.418  -6.764  21.850  0.00  0.00    -0.254 NA
ATOM     19  H   UNL     1       5.445  -6.497  21.645  0.00  0.00    +0.140 HD
ATOM     20  H   UNL     1       6.836  -6.990  20.947  0.00  0.00    +0.140 HD
ENDBRANCH  14  18
ENDBRANCH   1  16
TORSDOF 2
ENDMDL
MODEL 2
REMARK VINA RESULT:      -6.4      2.486      3.279
REMARK  Name = 
REMARK  2 active torsions:
REMARK  status: ('A' for Active; 'I' for Inactive)
REMARK    1  A    between atoms: N_1  and  N_2
REMARK    2  A    between atoms: C_3  and  C_5
REMARK                            x       y       z     vdW  Elec       q    Type
REMARK                         _______ _______ _______ _____ _____    ______ ____
ROOT
ATOM      1  C   UNL     1       8.026  -2.815  25.319  0.00  0.00    +0.145 A 
ATOM      2  N   UNL     1       8.249  -1.453  25.495  0.00  0.00    -0.223 NA
ATOM      3  C   UNL     1       8.726  -1.030  24.338  0.00  0.00    +0.146 A 
ATOM      4  N   UNL     1       8.813  -2.062  23.415  0.00  0.00    -0.305 N 
ATOM      5  C   UNL     1       9.295  -1.893  22.121  0.00  0.00    +0.093 A 
ATOM      6  C   UNL     1       9.706  -0.686  21.689  0.00  0.00    +0.026 A 
ATOM      7  C   UNL     1       9.639   0.478  22.602  0.00  0.00    -0.013 A 
ATOM      8  C   UNL     1      10.050   1.743  22.166  0.00  0.00    +0.008 A 
ATOM      9  C   UNL     1       9.976   2.834  23.032  0.00  0.00    +0.001 A 
ATOM     10  C   UNL     1       9.499   2.667  24.336  0.00  0.00    +0.001 A 
ATOM     11  C   UNL     1       9.091   1.410  24.784  0.00  0.00    +0.012 A 
ATOM     12  C   UNL     1       9.152   0.312  23.925  0.00  0.00    +0.025 A 
ATOM     13  C   UNL     1       8.358  -3.194  24.033  0.00  0.00    +0.125 A 
ENDROOT
BRANCH   1  16
ATOM     14  N   UNL     1       8.177  -4.934  26.388  0.00  0.00    -0.248 N 
ATOM     15  H   UNL     1       8.979  -5.043  25.765  0.00  0.00    +0.169 HD
ATOM     16  C   UNL     1       7.527  -3.705  26.369  0.00  0.00    +0.277 C 
ATOM     17  O   UNL     1       6.615  -3.399  27.134  0.00  0.00    -0.267 OA
BRANCH  14  18
ATOM     18  N   UNL     1       7.887  -5.892  27.386  0.00  0.00    -0.254 NA
ATOM     19  H   UNL     1       7.279  -6.602  26.957  0.00  0.00    +0.140 HD
ATOM     20  H   UNL     1       8.748  -6.382  27.633  0.00  0.00    +0.140 HD
ENDBRANCH  14  18
ENDBRANCH   1  16
TORSDOF 2
ENDMDL
MODEL 3
REMARK VINA RESULT:      -6.3      2.773      5.903
REMARK  Name = 
REMARK  2 active torsions:
REMARK  status: ('A' for Active; 'I' for Inactive)
REMARK    1  A    between atoms: N_1  and  N_2
REMARK    2  A    between atoms: C_3  and  C_5
REMARK                            x       y       z     vdW  Elec       q    Type
REMARK                         _______ _______ _______ _____ _____    ______ ____
ROOT
ATOM      1  C   UNL     1       9.476  -0.779  23.504  0.00  0.00    +0.145 A 
ATOM      2  N   UNL     1       8.518  -1.374  22.690  0.00  0.00    -0.223 NA
ATOM      3  C   UNL     1       8.393  -2.606  23.150  0.00  0.00    +0.146 A 
ATOM      4  N   UNL     1       9.227  -2.832  24.235  0.00  0.00    -0.305 N 
ATOM      5  C   UNL     1       9.303  -4.051  24.902  0.00  0.00    +0.093 A 
ATOM      6  C   UNL     1       8.548  -5.096  24.518  0.00  0.00    +0.026 A 
ATOM      7  C   UNL     1       7.618  -4.945  23.376  0.00  0.00    -0.013 A 
ATOM      8  C   UNL     1       6.815  -6.017  22.971  0.00  0.00    +0.008 A 
ATOM      9  C   UNL     1       5.938  -5.862  21.898  0.00  0.00    +0.001 A 
ATOM     10  C   UNL     1       5.863  -4.641  21.220  0.00  0.00    +0.001 A 
ATOM     11  C   UNL     1       6.662  -3.566  21.611  0.00  0.00    +0.012 A 
ATOM     12  C   UNL     1       7.538  -3.706  22.689  0.00  0.00    +0.025 A 
ATOM     13  C   UNL     1       9.908  -1.668  24.469  0.00  0.00    +0.125 A 
ENDROOT
BRANCH   1  16
ATOM     14  N   UNL     1       9.874   1.032  22.014  0.00  0.00    -0.248 N 
ATOM     15  H   UNL     1       9.398   0.418  21.352  0.00  0.00    +0.169 HD
ATOM     16  C   UNL     1       9.959   0.593  23.331  0.00  0.00    +0.277 C 
ATOM     17  O   UNL     1      10.412   1.269  24.252  0.00  0.00    -0.267 OA
BRANCH  14  18
ATOM     18  N   UNL     1      10.216   2.359  21.670  0.00  0.00    -0.254 NA
ATOM     19  H   UNL     1      11.230   2.374  21.493  0.00  0.00    +0.140 HD
ATOM     20  H   UNL     1       9.779   2.592  20.777  0.00  0.00    +0.140 HD
ENDBRANCH  14  18
ENDBRANCH   1  16
TORSDOF 2
ENDMDL
MODEL 4
REMARK VINA RESULT:      -6.2      3.958      6.701
REMARK  Name = 
REMARK  2 active torsions:
REMARK  status: ('A' for Active; 'I' for Inactive)
REMARK    1  A    between atoms: N_1  and  N_2
REMARK    2  A    between atoms: C_3  and  C_5
REMARK                            x       y       z     vdW  Elec       q    Type
REMARK                         _______ _______ _______ _____ _____    ______ ____
ROOT
ATOM      1  C   UNL     1      10.054   2.418  23.377  0.00  0.00    +0.145 A 
ATOM      2  N   UNL     1       9.698   1.563  24.414  0.00  0.00    -0.223 NA
ATOM      3  C   UNL     1       9.480   0.394  23.838  0.00  0.00    +0.146 A 
ATOM      4  N   UNL     1       9.688   0.456  22.468  0.00  0.00    -0.305 N 
ATOM      5  C   UNL     1       9.516  -0.632  21.617  0.00  0.00    +0.093 A 
ATOM      6  C   UNL     1       9.133  -1.830  22.098  0.00  0.00    +0.026 A 
ATOM      7  C   UNL     1       8.898  -1.993  23.550  0.00  0.00    -0.013 A 
ATOM      8  C   UNL     1       8.511  -3.234  24.068  0.00  0.00    +0.008 A 
ATOM      9  C   UNL     1       8.299  -3.379  25.440  0.00  0.00    +0.001 A 
ATOM     10  C   UNL     1       8.464  -2.286  26.297  0.00  0.00    +0.001 A 
ATOM     11  C   UNL     1       8.844  -1.042  25.791  0.00  0.00    +0.012 A 
ATOM     12  C   UNL     1       9.068  -0.886  24.423  0.00  0.00    +0.025 A 
ATOM     13  C   UNL     1      10.064   1.738  22.174  0.00  0.00    +0.125 A 
ENDROOT
BRANCH   1  16
ATOM     14  N   UNL     1      11.523   4.231  22.914  0.00  0.00    -0.248 N 
ATOM     15  H   UNL     1      11.976   3.538  22.316  0.00  0.00    +0.169 HD
ATOM     16  C   UNL     1      10.352   3.841  23.555  0.00  0.00    +0.277 C 
ATOM     17  O   UNL     1       9.649   4.598  24.221  0.00  0.00    -0.267 OA
BRANCH  14  18
ATOM     18  N   UNL     1      11.928   5.584  22.906  0.00  0.00    -0.254 NA
ATOM     19  H   UNL     1      12.956   5.593  22.883  0.00  0.00    +0.140 HD
ATOM     20  H   UNL     1      11.631   6.012  22.027  0.00  0.00    +0.140 HD
ENDBRANCH  14  18
ENDBRANCH   1  16
TORSDOF 2
ENDMDL
MODEL 5
REMARK VINA RESULT:      -6.2      2.722      3.546
REMARK  Name = 
REMARK  2 active torsions:
REMARK  status: ('A' for Active; 'I' for Inactive)
REMARK    1  A    between atoms: N_1  and  N_2
REMARK    2  A    between atoms: C_3  and  C_5
REMARK                            x       y       z     vdW  Elec       q    Type
REMARK                         _______ _______ _______ _____ _____    ______ ____
ROOT
ATOM      1  C   UNL     1       9.223  -2.635  24.422  0.00  0.00    +0.145 A 
ATOM      2  N   UNL     1       8.880  -1.426  25.018  0.00  0.00    -0.223 NA
ATOM      3  C   UNL     1       8.970  -0.528  24.053  0.00  0.00    +0.146 A 
ATOM      4  N   UNL     1       9.351  -1.108  22.852  0.00  0.00    -0.305 N 
ATOM      5  C   UNL     1       9.534  -0.386  21.677  0.00  0.00    +0.093 A 
ATOM      6  C   UNL     1       9.339   0.945  21.647  0.00  0.00    +0.026 A 
ATOM      7  C   UNL     1       8.919   1.650  22.880  0.00  0.00    -0.013 A 
ATOM      8  C   UNL     1       8.700   3.032  22.865  0.00  0.00    +0.008 A 
ATOM      9  C   UNL     1       8.297   3.684  24.030  0.00  0.00    +0.001 A 
ATOM     10  C   UNL     1       8.120   2.964  25.216  0.00  0.00    +0.001 A 
ATOM     11  C   UNL     1       8.341   1.586  25.245  0.00  0.00    +0.012 A 
ATOM     12  C   UNL     1       8.735   0.920  24.083  0.00  0.00    +0.025 A 
ATOM     13  C   UNL     1       9.502  -2.448  23.082  0.00  0.00    +0.125 A 
ENDROOT
BRANCH   1  16
ATOM     14  N   UNL     1       8.450  -3.955  26.243  0.00  0.00    -0.248 N 
ATOM     15  H   UNL     1       7.811  -3.168  26.370  0.00  0.00    +0.169 HD
ATOM     16  C   UNL     1       9.293  -3.910  25.139  0.00  0.00    +0.277 C 
ATOM     17  O   UNL     1      10.039  -4.829  24.806  0.00  0.00    -0.267 OA
BRANCH  14  18
ATOM     18  N   UNL     1       8.321  -5.135  27.009  0.00  0.00    -0.254 NA
ATOM     19  H   UNL     1       9.143  -5.720  26.805  0.00  0.00    +0.140 HD
ATOM     20  H   UNL     1       8.394  -4.896  27.999  0.00  0.00    +0.140 HD
ENDBRANCH  14  18
ENDBRANCH   1  16
TORSDOF 2
ENDMDL
MODEL 6
REMARK VINA RESULT:      -6.2      2.870      6.154
REMARK  Name = 
REMARK  2 active torsions:
REMARK  status: ('A' for Active; 'I' for Inactive)
REMARK    1  A    between atoms: N_1  and  N_2
REMARK    2  A    between atoms: C_3  and  C_5
REMARK                            x       y       z     vdW  Elec       q    Type
REMARK                         _______ _______ _______ _____ _____    ______ ____
ROOT
ATOM      1  C   UNL     1       9.162  -1.143  23.204  0.00  0.00    +0.145 A 
ATOM      2  N   UNL     1       8.817  -1.685  24.438  0.00  0.00    -0.223 NA
ATOM      3  C   UNL     1       8.086  -2.748  24.155  0.00  0.00    +0.146 A 
ATOM      4  N   UNL     1       7.950  -2.923  22.785  0.00  0.00    -0.305 N 
ATOM      5  C   UNL     1       7.219  -3.959  22.214  0.00  0.00    +0.093 A 
ATOM      6  C   UNL     1       6.595  -4.870  22.984  0.00  0.00    +0.026 A 
ATOM      7  C   UNL     1       6.694  -4.771  24.459  0.00  0.00    -0.013 A 
ATOM      8  C   UNL     1       6.062  -5.716  25.274  0.00  0.00    +0.008 A 
ATOM      9  C   UNL     1       6.168  -5.617  26.662  0.00  0.00    +0.001 A 
ATOM     10  C   UNL     1       6.896  -4.573  27.240  0.00  0.00    +0.001 A 
ATOM     11  C   UNL     1       7.526  -3.621  26.437  0.00  0.00    +0.012 A 
ATOM     12  C   UNL     1       7.435  -3.714  25.048  0.00  0.00    +0.025 A 
ATOM     13  C   UNL     1       8.642  -1.910  22.180  0.00  0.00    +0.125 A 
ENDROOT
BRANCH   1  16
ATOM     14  N   UNL     1       9.571   0.819  21.923  0.00  0.00    -0.248 N 
ATOM     15  H   UNL     1       8.742   0.502  21.418  0.00  0.00    +0.169 HD
ATOM     16  C   UNL     1       9.949   0.081  23.040  0.00  0.00    +0.277 C 
ATOM     17  O   UNL     1      10.861   0.402  23.799  0.00  0.00    -0.267 OA
BRANCH  14  18
ATOM     18  N   UNL     1      10.163   2.072  21.650  0.00  0.00    -0.254 NA
ATOM     19  H   UNL     1       9.656   2.775  22.205  0.00  0.00    +0.140 HD
ATOM     20  H   UNL     1      11.117   2.073  22.014  0.00  0.00    +0.140 HD
ENDBRANCH  14  18
ENDBRANCH   1  16
TORSDOF 2
ENDMDL
MODEL 7
REMARK VINA RESULT:      -6.2      2.858      4.227
REMARK  Name = 
REMARK  2 active torsions:
REMARK  status: ('A' for Active; 'I' for Inactive)
REMARK    1  A    between atoms: N_1  and  N_2
REMARK    2  A    between atoms: C_3  and  C_5
REMARK                            x       y       z     vdW  Elec       q    Type
REMARK                         _______ _______ _______ _____ _____    ______ ____
ROOT
ATOM      1  C   UNL     1       9.646  -0.235  23.665  0.00  0.00    +0.145 A 
ATOM      2  N   UNL     1      10.529   0.822  23.467  0.00  0.00    -0.223 NA
ATOM      3  C   UNL     1       9.841   1.907  23.771  0.00  0.00    +0.146 A 
ATOM      4  N   UNL     1       8.548   1.596  24.166  0.00  0.00    -0.305 N 
ATOM      5  C   UNL     1       7.606   2.555  24.529  0.00  0.00    +0.093 A 
ATOM      6  C   UNL     1       7.915   3.865  24.517  0.00  0.00    +0.026 A 
ATOM      7  C   UNL     1       9.277   4.291  24.120  0.00  0.00    -0.013 A 
ATOM      8  C   UNL     1       9.619   5.648  24.115  0.00  0.00    +0.008 A 
ATOM      9  C   UNL     1      10.906   6.038  23.746  0.00  0.00    +0.001 A 
ATOM     10  C   UNL     1      11.853   5.079  23.373  0.00  0.00    +0.001 A 
ATOM     11  C   UNL     1      11.522   3.723  23.370  0.00  0.00    +0.012 A 
ATOM     12  C   UNL     1      10.240   3.319  23.746  0.00  0.00    +0.025 A 
ATOM     13  C   UNL     1       8.426   0.235  24.111  0.00  0.00    +0.125 A 
ENDROOT
BRANCH   1  16
ATOM     14  N   UNL     1       9.530  -2.489  24.415  0.00  0.00    -0.248 N 
ATOM     15  H   UNL     1       8.939  -2.078  25.139  0.00  0.00    +0.169 HD
ATOM     16  C   UNL     1       9.980  -1.638  23.412  0.00  0.00    +0.277 C 
ATOM     17  O   UNL     1      10.611  -2.012  22.425  0.00  0.00    -0.267 OA
BRANCH  14  18
ATOM     18  N   UNL     1       9.686  -3.889  24.301  0.00  0.00    -0.254 NA
ATOM     19  H   UNL     1       8.959  -4.323  24.886  0.00  0.00    +0.140 HD
ATOM     20  H   UNL     1       9.471  -4.169  23.343  0.00  0.00    +0.140 HD
ENDBRANCH  14  18
ENDBRANCH   1  16
TORSDOF 2
ENDMDL
MODEL 8
REMARK VINA RESULT:      -6.1      2.880      6.124
REMARK  Name = 
REMARK  2 active torsions:
REMARK  status: ('A' for Active; 'I' for Inactive)
REMARK    1  A    between atoms: N_1  and  N_2
REMARK    2  A    between atoms: C_3  and  C_5
REMARK                            x       y       z     vdW  Elec       q    Type
REMARK                         _______ _______ _______ _____ _____    ______ ____
ROOT
ATOM      1  C   UNL     1       8.849  -2.499  23.477  0.00  0.00    +0.145 A 
ATOM      2  N   UNL     1       7.777  -3.313  23.126  0.00  0.00    -0.223 NA
ATOM      3  C   UNL     1       7.461  -3.962  24.232  0.00  0.00    +0.146 A 
ATOM      4  N   UNL     1       8.280  -3.595  25.290  0.00  0.00    -0.305 N 
ATOM      5  C   UNL     1       8.170  -4.137  26.567  0.00  0.00    +0.093 A 
ATOM      6  C   UNL     1       7.236  -5.065  26.845  0.00  0.00    +0.026 A 
ATOM      7  C   UNL     1       6.308  -5.510  25.781  0.00  0.00    -0.013 A 
ATOM      8  C   UNL     1       5.322  -6.464  26.055  0.00  0.00    +0.008 A 
ATOM      9  C   UNL     1       4.449  -6.871  25.047  0.00  0.00    +0.001 A 
ATOM     10  C   UNL     1       4.560  -6.335  23.760  0.00  0.00    +0.001 A 
ATOM     11  C   UNL     1       5.542  -5.386  23.472  0.00  0.00    +0.012 A 
ATOM     12  C   UNL     1       6.417  -4.964  24.475  0.00  0.00    +0.025 A 
ATOM     13  C   UNL     1       9.155  -2.657  24.815  0.00  0.00    +0.125 A 
ENDROOT
BRANCH   1  16
ATOM     14  N   UNL     1       8.747  -0.594  22.056  0.00  0.00    -0.248 N 
ATOM     15  H   UNL     1       7.821  -0.496  22.475  0.00  0.00    +0.169 HD
ATOM     16  C   UNL     1       9.552  -1.621  22.539  0.00  0.00    +0.277 C 
ATOM     17  O   UNL     1      10.721  -1.793  22.203  0.00  0.00    -0.267 OA
BRANCH  14  18
ATOM     18  N   UNL     1       9.277   0.400  21.204  0.00  0.00    -0.254 NA
ATOM     19  H   UNL     1      10.042  -0.033  20.671  0.00  0.00    +0.140 HD
ATOM     20  H   UNL     1       8.570   0.653  20.512  0.00  0.00    +0.140 HD
ENDBRANCH  14  18
ENDBRANCH   1  16
TORSDOF 2
ENDMDL
MODEL 9
REMARK VINA RESULT:      -6.0      4.204      6.415
REMARK  Name = 
REMARK  2 active torsions:
REMARK  status: ('A' for Active; 'I' for Inactive)
REMARK    1  A    between atoms: N_1  and  N_2
REMARK    2  A    between atoms: C_3  and  C_5
REMARK                            x       y       z     vdW  Elec       q    Type
REMARK                         _______ _______ _______ _____ _____    ______ ____
ROOT
ATOM      1  C   UNL     1       7.711   3.404  22.887  0.00  0.00    +0.145 A 
ATOM      2  N   UNL     1       7.288   2.084  22.757  0.00  0.00    -0.223 NA
ATOM      3  C   UNL     1       8.292   1.355  23.210  0.00  0.00    +0.146 A 
ATOM      4  N   UNL     1       9.347   2.149  23.637  0.00  0.00    -0.305 N 
ATOM      5  C   UNL     1      10.534   1.635  24.149  0.00  0.00    +0.093 A 
ATOM      6  C   UNL     1      10.719   0.307  24.261  0.00  0.00    +0.026 A 
ATOM      7  C   UNL     1       9.643  -0.619  23.841  0.00  0.00    -0.013 A 
ATOM      8  C   UNL     1       9.814  -2.003  23.962  0.00  0.00    +0.008 A 
ATOM      9  C   UNL     1       8.790  -2.866  23.570  0.00  0.00    +0.001 A 
ATOM     10  C   UNL     1       7.598  -2.354  23.048  0.00  0.00    +0.001 A 
ATOM     11  C   UNL     1       7.418  -0.976  22.918  0.00  0.00    +0.012 A 
ATOM     12  C   UNL     1       8.431  -0.101  23.315  0.00  0.00    +0.025 A 
ATOM     13  C   UNL     1       8.975   3.452  23.443  0.00  0.00    +0.125 A 
ENDROOT
BRANCH   1  16
ATOM     14  N   UNL     1       7.688   5.552  21.866  0.00  0.00    -0.248 N 
ATOM     15  H   UNL     1       8.668   5.330  21.683  0.00  0.00    +0.169 HD
ATOM     16  C   UNL     1       6.919   4.562  22.467  0.00  0.00    +0.277 C 
ATOM     17  O   UNL     1       5.707   4.651  22.653  0.00  0.00    -0.267 OA
BRANCH  14  18
ATOM     18  N   UNL     1       7.084   6.708  21.322  0.00  0.00    -0.254 NA
ATOM     19  H   UNL     1       6.594   6.419  20.464  0.00  0.00    +0.140 HD
ATOM     20  H   UNL     1       6.353   7.029  21.959  0.00  0.00    +0.140 HD
ENDBRANCH  14  18
ENDBRANCH   1  16
TORSDOF 2
ENDMDL
