MODEL 1
REMARK VINA RESULT:      -7.7      0.000      0.000
REMARK  Name = 
REMARK  6 active torsions:
REMARK  status: ('A' for Active; 'I' for Inactive)
REMARK    1  A    between atoms: C_2  and  N_3
REMARK    2  A    between atoms: C_2  and  C_18
REMARK    3  A    between atoms: C_2  and  C_23
REMARK    4  A    between atoms: C_10  and  C_11
REMARK    5  A    between atoms: C_14  and  C_15
REMARK    6  A    between atoms: C_15  and  C_16
REMARK                            x       y       z     vdW  Elec       q    Type
REMARK                         _______ _______ _______ _____ _____    ______ ____
ROOT
ATOM      1  N   UNL     1       7.968  -3.168  24.954  0.00  0.00    -0.312 N 
ATOM      2  H   UNL     1       7.280  -2.685  25.524  0.00  0.00    +0.149 HD
ATOM      3  C   UNL     1       8.791  -2.366  24.237  0.00  0.00    +0.152 C 
ATOM      4  S   UNL     1       8.514  -0.664  24.452  0.00  0.00    -0.052 S 
ATOM      5  C   UNL     1       9.519  -0.355  23.094  0.00  0.00    +0.082 C 
ATOM      6  C   UNL     1       9.545   0.697  22.264  0.00  0.00    +0.066 C 
ATOM      7  C   UNL     1      10.295  -1.596  22.800  0.00  0.00    +0.276 C 
ATOM      8  O   UNL     1      11.276  -1.625  22.068  0.00  0.00    -0.267 OA
ATOM      9  N   UNL     1       9.705  -2.698  23.390  0.00  0.00    -0.154 NA
ENDROOT
BRANCH   6  10
ATOM     10  C   UNL     1       8.589   1.752  22.301  0.00  0.00    +0.129 A 
ATOM     11  O   UNL     1       8.851   3.007  22.798  0.00  0.00    -0.460 OA
ATOM     12  C   UNL     1       7.714   3.742  22.792  0.00  0.00    +0.105 A 
ATOM     13  C   UNL     1       6.684   2.994  22.280  0.00  0.00    +0.045 A 
ATOM     14  C   UNL     1       7.242   1.729  21.960  0.00  0.00    +0.049 A 
BRANCH  12  15
ATOM     15  C   UNL     1       7.840   5.123  23.321  0.00  0.00    +0.071 C 
ATOM     16  C   UNL     1       7.630   6.167  22.237  0.00  0.00    +0.012 C 
ENDBRANCH  12  15
ENDBRANCH   6  10
BRANCH   1  17
ATOM     17  C   UNL     1       7.513  -4.459  24.474  0.00  0.00    +0.172 C 
BRANCH  17  18
ATOM     18  C   UNL     1       6.768  -5.147  25.608  0.00  0.00    -0.020 A 
ATOM     19  C   UNL     1       7.216  -5.003  26.933  0.00  0.00    +0.009 A 
ATOM     20  C   UNL     1       6.531  -5.623  27.977  0.00  0.00    +0.038 A 
ATOM     21  C   UNL     1       5.398  -6.381  27.705  0.00  0.00    +0.123 A 
ATOM     22  F   UNL     1       4.744  -6.970  28.713  0.00  0.00    -0.205 F 
ATOM     23  C   UNL     1       4.938  -6.540  26.407  0.00  0.00    +0.038 A 
ATOM     24  C   UNL     1       5.620  -5.926  25.357  0.00  0.00    +0.009 A 
ENDBRANCH  17  18
BRANCH  17  25
ATOM     25  C   UNL     1       6.659  -4.358  23.245  0.00  0.00    +0.173 A 
ATOM     26  N   UNL     1       6.807  -5.161  22.151  0.00  0.00    -0.241 N 
ATOM     27  H   UNL     1       7.473  -5.899  21.958  0.00  0.00    +0.192 HD
ATOM     28  N   UNL     1       5.888  -4.849  21.229  0.00  0.00    -0.047 NA
ATOM     29  N   UNL     1       5.195  -3.849  21.752  0.00  0.00    -0.023 NA
ATOM     30  N   UNL     1       5.674  -3.516  22.996  0.00  0.00    -0.111 NA
ENDBRANCH  17  25
ENDBRANCH   1  17
TORSDOF 5
ENDMDL
MODEL 2
REMARK VINA RESULT:      -7.5      3.063      4.425
REMARK  Name = 
REMARK  6 active torsions:
REMARK  status: ('A' for Active; 'I' for Inactive)
REMARK    1  A    between atoms: C_2  and  N_3
REMARK    2  A    between atoms: C_2  and  C_18
REMARK    3  A    between atoms: C_2  and  C_23
REMARK    4  A    between atoms: C_10  and  C_11
REMARK    5  A    between atoms: C_14  and  C_15
REMARK    6  A    between atoms: C_15  and  C_16
REMARK                            x       y       z     vdW  Elec       q    Type
REMARK                         _______ _______ _______ _____ _____    ______ ____
ROOT
ATOM      1  N   UNL     1       6.391  -3.356  26.901  0.00  0.00    -0.312 N 
ATOM      2  H   UNL     1       6.071  -2.399  27.009  0.00  0.00    +0.149 HD
ATOM      3  C   UNL     1       7.572  -3.502  26.255  0.00  0.00    +0.152 C 
ATOM      4  S   UNL     1       8.314  -2.011  25.755  0.00  0.00    -0.052 S 
ATOM      5  C   UNL     1       9.403  -2.912  24.778  0.00  0.00    +0.082 C 
ATOM      6  C   UNL     1      10.088  -2.542  23.688  0.00  0.00    +0.066 C 
ATOM      7  C   UNL     1       9.339  -4.340  25.208  0.00  0.00    +0.276 C 
ATOM      8  O   UNL     1      10.171  -5.181  24.893  0.00  0.00    -0.267 OA
ATOM      9  N   UNL     1       8.183  -4.588  25.924  0.00  0.00    -0.154 NA
ENDROOT
BRANCH   6  10
ATOM     10  C   UNL     1       9.916  -1.285  23.039  0.00  0.00    +0.129 A 
ATOM     11  O   UNL     1      10.358  -0.089  23.554  0.00  0.00    -0.460 OA
ATOM     12  C   UNL     1       9.949   0.926  22.758  0.00  0.00    +0.105 A 
ATOM     13  C   UNL     1       9.240   0.422  21.696  0.00  0.00    +0.045 A 
ATOM     14  C   UNL     1       9.225  -0.987  21.870  0.00  0.00    +0.049 A 
BRANCH  12  15
ATOM     15  C   UNL     1      10.340   2.287  23.201  0.00  0.00    +0.071 C 
ATOM     16  C   UNL     1       9.333   2.878  24.175  0.00  0.00    +0.012 C 
ENDBRANCH  12  15
ENDBRANCH   6  10
BRANCH   1  17
ATOM     17  C   UNL     1       5.308  -4.315  26.786  0.00  0.00    +0.172 C 
BRANCH  17  18
ATOM     18  C   UNL     1       5.236  -4.770  25.337  0.00  0.00    -0.020 A 
ATOM     19  C   UNL     1       5.121  -3.820  24.306  0.00  0.00    +0.009 A 
ATOM     20  C   UNL     1       5.065  -4.231  22.975  0.00  0.00    +0.038 A 
ATOM     21  C   UNL     1       5.128  -5.586  22.668  0.00  0.00    +0.123 A 
ATOM     22  F   UNL     1       5.077  -5.972  21.388  0.00  0.00    -0.205 F 
ATOM     23  C   UNL     1       5.238  -6.541  23.666  0.00  0.00    +0.038 A 
ATOM     24  C   UNL     1       5.291  -6.138  25.000  0.00  0.00    +0.009 A 
ENDBRANCH  17  18
BRANCH  17  25
ATOM     25  C   UNL     1       5.459  -5.482  27.715  0.00  0.00    +0.173 A 
ATOM     26  N   UNL     1       6.664  -6.013  28.076  0.00  0.00    -0.241 N 
ATOM     27  H   UNL     1       7.606  -5.765  27.798  0.00  0.00    +0.192 HD
ATOM     28  N   UNL     1       6.479  -7.026  28.931  0.00  0.00    -0.047 NA
ATOM     29  N   UNL     1       5.166  -7.123  29.076  0.00  0.00    -0.023 NA
ATOM     30  N   UNL     1       4.516  -6.185  28.312  0.00  0.00    -0.111 NA
ENDBRANCH  17  25
ENDBRANCH   1  17
TORSDOF 5
ENDMDL
MODEL 3
REMARK VINA RESULT:      -7.3      4.187      8.143
REMARK  Name = 
REMARK  6 active torsions:
REMARK  status: ('A' for Active; 'I' for Inactive)
REMARK    1  A    between atoms: C_2  and  N_3
REMARK    2  A    between atoms: C_2  and  C_18
REMARK    3  A    between atoms: C_2  and  C_23
REMARK    4  A    between atoms: C_10  and  C_11
REMARK    5  A    between atoms: C_14  and  C_15
REMARK    6  A    between atoms: C_15  and  C_16
REMARK                            x       y       z     vdW  Elec       q    Type
REMARK                         _______ _______ _______ _____ _____    ______ ____
ROOT
ATOM      1  N   UNL     1       7.459  -2.421  23.084  0.00  0.00    -0.312 N 
ATOM      2  H   UNL     1       7.019  -1.755  23.712  0.00  0.00    +0.149 HD
ATOM      3  C   UNL     1       6.664  -3.436  22.668  0.00  0.00    +0.152 C 
ATOM      4  S   UNL     1       5.038  -3.382  23.281  0.00  0.00    -0.052 S 
ATOM      5  C   UNL     1       4.805  -4.992  22.729  0.00  0.00    +0.082 C 
ATOM      6  C   UNL     1       3.945  -5.930  23.150  0.00  0.00    +0.066 C 
ATOM      7  C   UNL     1       5.904  -5.319  21.774  0.00  0.00    +0.276 C 
ATOM      8  O   UNL     1       5.881  -6.280  21.016  0.00  0.00    -0.267 OA
ATOM      9  N   UNL     1       6.967  -4.448  21.929  0.00  0.00    -0.154 NA
ENDROOT
BRANCH   6  10
ATOM     10  C   UNL     1       3.107  -5.774  24.291  0.00  0.00    +0.129 A 
ATOM     11  O   UNL     1       3.570  -5.752  25.585  0.00  0.00    -0.460 OA
ATOM     12  C   UNL     1       2.522  -5.700  26.440  0.00  0.00    +0.105 A 
ATOM     13  C   UNL     1       1.348  -5.674  25.730  0.00  0.00    +0.045 A 
ATOM     14  C   UNL     1       1.719  -5.713  24.360  0.00  0.00    +0.049 A 
BRANCH  12  15
ATOM     15  C   UNL     1       2.870  -5.689  27.883  0.00  0.00    +0.071 C 
ATOM     16  C   UNL     1       3.976  -6.680  28.208  0.00  0.00    +0.012 C 
ENDBRANCH  12  15
ENDBRANCH   6  10
BRANCH   1  17
ATOM     17  C   UNL     1       8.881  -2.583  23.322  0.00  0.00    +0.172 C 
BRANCH  17  18
ATOM     18  C   UNL     1       9.494  -1.198  23.460  0.00  0.00    -0.020 A 
ATOM     19  C   UNL     1       9.545  -0.337  22.350  0.00  0.00    +0.009 A 
ATOM     20  C   UNL     1      10.097   0.938  22.474  0.00  0.00    +0.038 A 
ATOM     21  C   UNL     1      10.593   1.358  23.703  0.00  0.00    +0.123 A 
ATOM     22  F   UNL     1      11.118   2.584  23.815  0.00  0.00    -0.205 F 
ATOM     23  C   UNL     1      10.557   0.526  24.812  0.00  0.00    +0.038 A 
ATOM     24  C   UNL     1      10.010  -0.750  24.694  0.00  0.00    +0.009 A 
ENDBRANCH  17  18
BRANCH  17  25
ATOM     25  C   UNL     1       9.181  -3.433  24.520  0.00  0.00    +0.173 A 
ATOM     26  N   UNL     1       8.548  -3.298  25.723  0.00  0.00    -0.241 N 
ATOM     27  H   UNL     1       7.836  -2.644  26.026  0.00  0.00    +0.192 HD
ATOM     28  N   UNL     1       9.013  -4.209  26.587  0.00  0.00    -0.047 NA
ATOM     29  N   UNL     1       9.935  -4.885  25.918  0.00  0.00    -0.023 NA
ATOM     30  N   UNL     1      10.068  -4.402  24.639  0.00  0.00    -0.111 NA
ENDBRANCH  17  25
ENDBRANCH   1  17
TORSDOF 5
ENDMDL
MODEL 4
REMARK VINA RESULT:      -7.2      4.256      8.486
REMARK  Name = 
REMARK  6 active torsions:
REMARK  status: ('A' for Active; 'I' for Inactive)
REMARK    1  A    between atoms: C_2  and  N_3
REMARK    2  A    between atoms: C_2  and  C_18
REMARK    3  A    between atoms: C_2  and  C_23
REMARK    4  A    between atoms: C_10  and  C_11
REMARK    5  A    between atoms: C_14  and  C_15
REMARK    6  A    between atoms: C_15  and  C_16
REMARK                            x       y       z     vdW  Elec       q    Type
REMARK                         _______ _______ _______ _____ _____    ______ ____
ROOT
ATOM      1  N   UNL     1       6.049  -2.416  23.579  0.00  0.00    -0.312 N 
ATOM      2  H   UNL     1       6.173  -1.815  24.387  0.00  0.00    +0.149 HD
ATOM      3  C   UNL     1       5.037  -3.312  23.674  0.00  0.00    +0.152 C 
ATOM      4  S   UNL     1       4.140  -3.237  25.160  0.00  0.00    -0.052 S 
ATOM      5  C   UNL     1       3.406  -4.739  24.762  0.00  0.00    +0.082 C 
ATOM      6  C   UNL     1       2.860  -5.667  25.559  0.00  0.00    +0.066 C 
ATOM      7  C   UNL     1       3.646  -5.003  23.313  0.00  0.00    +0.276 C 
ATOM      8  O   UNL     1       3.041  -5.848  22.668  0.00  0.00    -0.267 OA
ATOM      9  N   UNL     1       4.692  -4.232  22.839  0.00  0.00    -0.154 NA
ENDROOT
BRANCH   6  10
ATOM     10  C   UNL     1       2.914  -5.615  26.982  0.00  0.00    +0.129 A 
ATOM     11  O   UNL     1       3.998  -6.020  27.723  0.00  0.00    -0.460 OA
ATOM     12  C   UNL     1       3.698  -5.946  29.041  0.00  0.00    +0.105 A 
ATOM     13  C   UNL     1       2.416  -5.480  29.197  0.00  0.00    +0.045 A 
ATOM     14  C   UNL     1       1.919  -5.260  27.886  0.00  0.00    +0.049 A 
BRANCH  12  15
ATOM     15  C   UNL     1       4.775  -6.372  29.970  0.00  0.00    +0.071 C 
ATOM     16  C   UNL     1       6.120  -6.472  29.270  0.00  0.00    +0.012 C 
ENDBRANCH  12  15
ENDBRANCH   6  10
BRANCH   1  17
ATOM     17  C   UNL     1       7.287  -2.701  22.877  0.00  0.00    +0.172 C 
BRANCH  17  18
ATOM     18  C   UNL     1       7.990  -1.378  22.611  0.00  0.00    -0.020 A 
ATOM     19  C   UNL     1       9.065  -1.322  21.707  0.00  0.00    +0.009 A 
ATOM     20  C   UNL     1       9.706  -0.111  21.451  0.00  0.00    +0.038 A 
ATOM     21  C   UNL     1       9.275   1.046  22.091  0.00  0.00    +0.123 A 
ATOM     22  F   UNL     1       9.893   2.206  21.838  0.00  0.00    -0.205 F 
ATOM     23  C   UNL     1       8.219   1.016  22.989  0.00  0.00    +0.038 A 
ATOM     24  C   UNL     1       7.576  -0.192  23.252  0.00  0.00    +0.009 A 
ENDBRANCH  17  18
BRANCH  17  25
ATOM     25  C   UNL     1       8.177  -3.650  23.622  0.00  0.00    +0.173 A 
ATOM     26  N   UNL     1       8.001  -5.004  23.633  0.00  0.00    -0.241 N 
ATOM     27  H   UNL     1       7.290  -5.581  23.201  0.00  0.00    +0.192 HD
ATOM     28  N   UNL     1       8.963  -5.583  24.362  0.00  0.00    -0.047 NA
ATOM     29  N   UNL     1       9.711  -4.584  24.808  0.00  0.00    -0.023 NA
ATOM     30  N   UNL     1       9.224  -3.374  24.375  0.00  0.00    -0.111 NA
ENDBRANCH  17  25
ENDBRANCH   1  17
TORSDOF 5
ENDMDL
MODEL 5
REMARK VINA RESULT:      -7.2      4.489      8.705
REMARK  Name = 
REMARK  6 active torsions:
REMARK  status: ('A' for Active; 'I' for Inactive)
REMARK    1  A    between atoms: C_2  and  N_3
REMARK    2  A    between atoms: C_2  and  C_18
REMARK    3  A    between atoms: C_2  and  C_23
REMARK    4  A    between atoms: C_10  and  C_11
REMARK    5  A    between atoms: C_14  and  C_15
REMARK    6  A    between atoms: C_15  and  C_16
REMARK                            x       y       z     vdW  Elec       q    Type
REMARK                         _______ _______ _______ _____ _____    ______ ____
ROOT
ATOM      1  N   UNL     1       7.438  -2.563  24.572  0.00  0.00    -0.312 N 
ATOM      2  H   UNL     1       6.933  -2.465  23.697  0.00  0.00    +0.149 HD
ATOM      3  C   UNL     1       7.206  -3.714  25.248  0.00  0.00    +0.152 C 
ATOM      4  S   UNL     1       6.098  -4.802  24.468  0.00  0.00    -0.052 S 
ATOM      5  C   UNL     1       6.003  -5.708  25.924  0.00  0.00    +0.082 C 
ATOM      6  C   UNL     1       5.034  -6.518  26.373  0.00  0.00    +0.066 C 
ATOM      7  C   UNL     1       7.139  -5.297  26.801  0.00  0.00    +0.276 C 
ATOM      8  O   UNL     1       7.502  -5.931  27.783  0.00  0.00    -0.267 OA
ATOM      9  N   UNL     1       7.653  -4.077  26.401  0.00  0.00    -0.154 NA
ENDROOT
BRANCH   6  10
ATOM     10  C   UNL     1       3.776  -6.674  25.724  0.00  0.00    +0.129 A 
ATOM     11  O   UNL     1       3.426  -7.777  24.981  0.00  0.00    -0.460 OA
ATOM     12  C   UNL     1       2.216  -7.574  24.411  0.00  0.00    +0.105 A 
ATOM     13  C   UNL     1       1.736  -6.340  24.774  0.00  0.00    +0.045 A 
ATOM     14  C   UNL     1       2.725  -5.769  25.617  0.00  0.00    +0.049 A 
BRANCH  12  15
ATOM     15  C   UNL     1       1.713  -8.681  23.559  0.00  0.00    +0.071 C 
ATOM     16  C   UNL     1       1.001  -8.165  22.319  0.00  0.00    +0.012 C 
ENDBRANCH  12  15
ENDBRANCH   6  10
BRANCH   1  17
ATOM     17  C   UNL     1       7.690  -1.298  25.237  0.00  0.00    +0.172 C 
BRANCH  17  18
ATOM     18  C   UNL     1       8.451  -0.404  24.270  0.00  0.00    -0.020 A 
ATOM     19  C   UNL     1       9.560   0.335  24.719  0.00  0.00    +0.009 A 
ATOM     20  C   UNL     1      10.267   1.149  23.834  0.00  0.00    +0.038 A 
ATOM     21  C   UNL     1       9.875   1.223  22.502  0.00  0.00    +0.123 A 
ATOM     22  F   UNL     1      10.561   2.003  21.658  0.00  0.00    -0.205 F 
ATOM     23  C   UNL     1       8.784   0.506  22.036  0.00  0.00    +0.038 A 
ATOM     24  C   UNL     1       8.070  -0.306  22.916  0.00  0.00    +0.009 A 
ENDBRANCH  17  18
BRANCH  17  25
ATOM     25  C   UNL     1       6.438  -0.633  25.723  0.00  0.00    +0.173 A 
ATOM     26  N   UNL     1       6.398   0.220  26.788  0.00  0.00    -0.241 N 
ATOM     27  H   UNL     1       7.129   0.527  27.418  0.00  0.00    +0.192 HD
ATOM     28  N   UNL     1       5.149   0.671  26.965  0.00  0.00    -0.047 NA
ATOM     29  N   UNL     1       4.430   0.081  26.021  0.00  0.00    -0.023 NA
ATOM     30  N   UNL     1       5.210  -0.749  25.254  0.00  0.00    -0.111 NA
ENDBRANCH  17  25
ENDBRANCH   1  17
TORSDOF 5
ENDMDL
MODEL 6
REMARK VINA RESULT:      -7.1      4.096      8.120
REMARK  Name = 
REMARK  6 active torsions:
REMARK  status: ('A' for Active; 'I' for Inactive)
REMARK    1  A    between atoms: C_2  and  N_3
REMARK    2  A    between atoms: C_2  and  C_18
REMARK    3  A    between atoms: C_2  and  C_23
REMARK    4  A    between atoms: C_10  and  C_11
REMARK    5  A    between atoms: C_14  and  C_15
REMARK    6  A    between atoms: C_15  and  C_16
REMARK                            x       y       z     vdW  Elec       q    Type
REMARK                         _______ _______ _______ _____ _____    ______ ____
ROOT
ATOM      1  N   UNL     1       8.591  -0.308  23.112  0.00  0.00    -0.312 N 
ATOM      2  H   UNL     1       7.811  -0.045  22.518  0.00  0.00    +0.149 HD
ATOM      3  C   UNL     1       8.699  -1.633  23.373  0.00  0.00    +0.152 C 
ATOM      4  S   UNL     1       7.484  -2.621  22.619  0.00  0.00    -0.052 S 
ATOM      5  C   UNL     1       7.967  -3.932  23.619  0.00  0.00    +0.082 C 
ATOM      6  C   UNL     1       7.280  -5.012  24.015  0.00  0.00    +0.066 C 
ATOM      7  C   UNL     1       9.297  -3.599  24.211  0.00  0.00    +0.276 C 
ATOM      8  O   UNL     1      10.024  -4.421  24.752  0.00  0.00    -0.267 OA
ATOM      9  N   UNL     1       9.542  -2.240  24.137  0.00  0.00    -0.154 NA
ENDROOT
BRANCH   6  10
ATOM     10  C   UNL     1       5.892  -5.201  23.752  0.00  0.00    +0.129 A 
ATOM     11  O   UNL     1       4.887  -4.716  24.554  0.00  0.00    -0.460 OA
ATOM     12  C   UNL     1       3.691  -5.154  24.096  0.00  0.00    +0.105 A 
ATOM     13  C   UNL     1       3.880  -5.926  22.977  0.00  0.00    +0.045 A 
ATOM     14  C   UNL     1       5.282  -5.950  22.752  0.00  0.00    +0.049 A 
BRANCH  12  15
ATOM     15  C   UNL     1       2.506  -4.721  24.878  0.00  0.00    +0.071 C 
ATOM     16  C   UNL     1       2.734  -3.381  25.558  0.00  0.00    +0.012 C 
ENDBRANCH  12  15
ENDBRANCH   6  10
BRANCH   1  17
ATOM     17  C   UNL     1       8.951   0.715  24.076  0.00  0.00    +0.172 C 
BRANCH  17  18
ATOM     18  C   UNL     1       8.503   2.059  23.523  0.00  0.00    -0.020 A 
ATOM     19  C   UNL     1       7.542   2.114  22.498  0.00  0.00    +0.009 A 
ATOM     20  C   UNL     1       7.120   3.344  21.995  0.00  0.00    +0.038 A 
ATOM     21  C   UNL     1       7.650   4.520  22.516  0.00  0.00    +0.123 A 
ATOM     22  F   UNL     1       7.237   5.697  22.031  0.00  0.00    -0.205 F 
ATOM     23  C   UNL     1       8.600   4.492  23.525  0.00  0.00    +0.038 A 
ATOM     24  C   UNL     1       9.029   3.266  24.029  0.00  0.00    +0.009 A 
ENDBRANCH  17  18
BRANCH  17  25
ATOM     25  C   UNL     1       8.373   0.466  25.436  0.00  0.00    +0.173 A 
ATOM     26  N   UNL     1       9.057  -0.137  26.452  0.00  0.00    -0.241 N 
ATOM     27  H   UNL     1       9.994  -0.522  26.482  0.00  0.00    +0.192 HD
ATOM     28  N   UNL     1       8.289  -0.197  27.547  0.00  0.00    -0.047 NA
ATOM     29  N   UNL     1       7.136   0.352  27.194  0.00  0.00    -0.023 NA
ATOM     30  N   UNL     1       7.163   0.750  25.879  0.00  0.00    -0.111 NA
ENDBRANCH  17  25
ENDBRANCH   1  17
TORSDOF 5
ENDMDL
MODEL 7
REMARK VINA RESULT:      -6.8      2.694      4.033
REMARK  Name = 
REMARK  6 active torsions:
REMARK  status: ('A' for Active; 'I' for Inactive)
REMARK    1  A    between atoms: C_2  and  N_3
REMARK    2  A    between atoms: C_2  and  C_18
REMARK    3  A    between atoms: C_2  and  C_23
REMARK    4  A    between atoms: C_10  and  C_11
REMARK    5  A    between atoms: C_14  and  C_15
REMARK    6  A    between atoms: C_15  and  C_16
REMARK                            x       y       z     vdW  Elec       q    Type
REMARK                         _______ _______ _______ _____ _____    ______ ____
ROOT
ATOM      1  N   UNL     1       6.195  -2.699  25.161  0.00  0.00    -0.312 N 
ATOM      2  H   UNL     1       6.343  -2.696  24.156  0.00  0.00    +0.149 HD
ATOM      3  C   UNL     1       6.204  -1.480  25.750  0.00  0.00    +0.152 C 
ATOM      4  S   UNL     1       6.449  -0.149  24.660  0.00  0.00    -0.052 S 
ATOM      5  C   UNL     1       6.717   0.876  26.012  0.00  0.00    +0.082 C 
ATOM      6  C   UNL     1       7.398   2.027  26.099  0.00  0.00    +0.066 C 
ATOM      7  C   UNL     1       6.227   0.170  27.233  0.00  0.00    +0.276 C 
ATOM      8  O   UNL     1       6.036   0.726  28.307  0.00  0.00    -0.267 OA
ATOM      9  N   UNL     1       6.106  -1.188  27.002  0.00  0.00    -0.154 NA
ENDROOT
BRANCH   6  10
ATOM     10  C   UNL     1       8.173   2.564  25.031  0.00  0.00    +0.129 A 
ATOM     11  O   UNL     1       8.681   1.814  23.998  0.00  0.00    -0.460 OA
ATOM     12  C   UNL     1       9.458   2.594  23.210  0.00  0.00    +0.105 A 
ATOM     13  C   UNL     1       9.468   3.876  23.699  0.00  0.00    +0.045 A 
ATOM     14  C   UNL     1       8.644   3.861  24.854  0.00  0.00    +0.049 A 
BRANCH  12  15
ATOM     15  C   UNL     1      10.092   1.910  22.055  0.00  0.00    +0.071 C 
ATOM     16  C   UNL     1       9.875   0.407  22.097  0.00  0.00    +0.012 C 
ENDBRANCH  12  15
ENDBRANCH   6  10
BRANCH   1  17
ATOM     17  C   UNL     1       6.702  -3.892  25.813  0.00  0.00    +0.172 C 
BRANCH  17  18
ATOM     18  C   UNL     1       5.763  -5.042  25.484  0.00  0.00    -0.020 A 
ATOM     19  C   UNL     1       5.248  -5.847  26.516  0.00  0.00    +0.009 A 
ATOM     20  C   UNL     1       4.378  -6.897  26.220  0.00  0.00    +0.038 A 
ATOM     21  C   UNL     1       4.018  -7.142  24.900  0.00  0.00    +0.123 A 
ATOM     22  F   UNL     1       3.180  -8.149  24.624  0.00  0.00    -0.205 F 
ATOM     23  C   UNL     1       4.515  -6.365  23.865  0.00  0.00    +0.038 A 
ATOM     24  C   UNL     1       5.387  -5.316  24.153  0.00  0.00    +0.009 A 
ENDBRANCH  17  18
BRANCH  17  25
ATOM     25  C   UNL     1       8.114  -4.215  25.428  0.00  0.00    +0.173 A 
ATOM     26  N   UNL     1       8.852  -5.206  26.010  0.00  0.00    -0.241 N 
ATOM     27  H   UNL     1       8.624  -5.844  26.763  0.00  0.00    +0.192 HD
ATOM     28  N   UNL     1      10.062  -5.268  25.441  0.00  0.00    -0.047 NA
ATOM     29  N   UNL     1      10.067  -4.309  24.527  0.00  0.00    -0.023 NA
ATOM     30  N   UNL     1       8.873  -3.630  24.520  0.00  0.00    -0.111 NA
ENDBRANCH  17  25
ENDBRANCH   1  17
TORSDOF 5
ENDMDL
MODEL 8
REMARK VINA RESULT:      -6.8      3.890      8.571
REMARK  Name = 
REMARK  6 active torsions:
REMARK  status: ('A' for Active; 'I' for Inactive)
REMARK    1  A    between atoms: C_2  and  N_3
REMARK    2  A    between atoms: C_2  and  C_18
REMARK    3  A    between atoms: C_2  and  C_23
REMARK    4  A    between atoms: C_10  and  C_11
REMARK    5  A    between atoms: C_14  and  C_15
REMARK    6  A    between atoms: C_15  and  C_16
REMARK                            x       y       z     vdW  Elec       q    Type
REMARK                         _______ _______ _______ _____ _____    ______ ____
ROOT
ATOM      1  N   UNL     1       6.304  -1.644  22.952  0.00  0.00    -0.312 N 
ATOM      2  H   UNL     1       5.516  -1.274  23.475  0.00  0.00    +0.149 HD
ATOM      3  C   UNL     1       6.220  -2.958  22.633  0.00  0.00    +0.152 C 
ATOM      4  S   UNL     1       4.765  -3.743  23.169  0.00  0.00    -0.052 S 
ATOM      5  C   UNL     1       5.484  -5.262  22.811  0.00  0.00    +0.082 C 
ATOM      6  C   UNL     1       5.221  -6.477  23.309  0.00  0.00    +0.066 C 
ATOM      7  C   UNL     1       6.677  -5.018  21.948  0.00  0.00    +0.276 C 
ATOM      8  O   UNL     1       7.247  -5.896  21.314  0.00  0.00    -0.267 OA
ATOM      9  N   UNL     1       7.089  -3.701  22.037  0.00  0.00    -0.154 NA
ENDROOT
BRANCH   6  10
ATOM     10  C   UNL     1       4.320  -6.707  24.389  0.00  0.00    +0.129 A 
ATOM     11  O   UNL     1       4.613  -6.435  25.704  0.00  0.00    -0.460 OA
ATOM     12  C   UNL     1       3.599  -6.863  26.492  0.00  0.00    +0.105 A 
ATOM     13  C   UNL     1       2.612  -7.415  25.714  0.00  0.00    +0.045 A 
ATOM     14  C   UNL     1       3.067  -7.309  24.373  0.00  0.00    +0.049 A 
BRANCH  12  15
ATOM     15  C   UNL     1       3.785  -6.650  27.949  0.00  0.00    +0.071 C 
ATOM     16  C   UNL     1       5.228  -6.866  28.375  0.00  0.00    +0.012 C 
ENDBRANCH  12  15
ENDBRANCH   6  10
BRANCH   1  17
ATOM     17  C   UNL     1       7.560  -0.989  23.264  0.00  0.00    +0.172 C 
BRANCH  17  18
ATOM     18  C   UNL     1       7.438   0.475  22.870  0.00  0.00    -0.020 A 
ATOM     19  C   UNL     1       6.342   1.235  23.315  0.00  0.00    +0.009 A 
ATOM     20  C   UNL     1       6.230   2.580  22.965  0.00  0.00    +0.038 A 
ATOM     21  C   UNL     1       7.212   3.171  22.177  0.00  0.00    +0.123 A 
ATOM     22  F   UNL     1       7.100   4.463  21.848  0.00  0.00    -0.205 F 
ATOM     23  C   UNL     1       8.300   2.442  21.723  0.00  0.00    +0.038 A 
ATOM     24  C   UNL     1       8.416   1.096  22.066  0.00  0.00    +0.009 A 
ENDBRANCH  17  18
BRANCH  17  25
ATOM     25  C   UNL     1       7.953  -1.133  24.704  0.00  0.00    +0.173 A 
ATOM     26  N   UNL     1       8.892  -0.353  25.315  0.00  0.00    -0.241 N 
ATOM     27  H   UNL     1       9.473   0.391  24.949  0.00  0.00    +0.192 HD
ATOM     28  N   UNL     1       9.008  -0.702  26.603  0.00  0.00    -0.047 NA
ATOM     29  N   UNL     1       8.155  -1.702  26.770  0.00  0.00    -0.023 NA
ATOM     30  N   UNL     1       7.507  -1.997  25.596  0.00  0.00    -0.111 NA
ENDBRANCH  17  25
ENDBRANCH   1  17
TORSDOF 5
ENDMDL
MODEL 9
REMARK VINA RESULT:      -6.8      4.536      8.782
REMARK  Name = 
REMARK  6 active torsions:
REMARK  status: ('A' for Active; 'I' for Inactive)
REMARK    1  A    between atoms: C_2  and  N_3
REMARK    2  A    between atoms: C_2  and  C_18
REMARK    3  A    between atoms: C_2  and  C_23
REMARK    4  A    between atoms: C_10  and  C_11
REMARK    5  A    between atoms: C_14  and  C_15
REMARK    6  A    between atoms: C_15  and  C_16
REMARK                            x       y       z     vdW  Elec       q    Type
REMARK                         _______ _______ _______ _____ _____    ______ ____
ROOT
ATOM      1  N   UNL     1       8.600   1.634  25.141  0.00  0.00    -0.312 N 
ATOM      2  H   UNL     1       9.477   1.214  25.431  0.00  0.00    +0.149 HD
ATOM      3  C   UNL     1       7.485   1.058  25.653  0.00  0.00    +0.152 C 
ATOM      4  S   UNL     1       7.785  -0.280  26.721  0.00  0.00    -0.052 S 
ATOM      5  C   UNL     1       6.118  -0.686  26.637  0.00  0.00    +0.082 C 
ATOM      6  C   UNL     1       5.508  -1.862  26.838  0.00  0.00    +0.066 C 
ATOM      7  C   UNL     1       5.384   0.483  26.070  0.00  0.00    +0.276 C 
ATOM      8  O   UNL     1       4.168   0.611  26.124  0.00  0.00    -0.267 OA
ATOM      9  N   UNL     1       6.250   1.337  25.413  0.00  0.00    -0.154 NA
ENDROOT
BRANCH   6  10
ATOM     10  C   UNL     1       6.207  -3.086  27.047  0.00  0.00    +0.129 A 
ATOM     11  O   UNL     1       7.451  -3.357  26.529  0.00  0.00    -0.460 OA
ATOM     12  C   UNL     1       7.791  -4.635  26.815  0.00  0.00    +0.105 A 
ATOM     13  C   UNL     1       6.787  -5.230  27.537  0.00  0.00    +0.045 A 
ATOM     14  C   UNL     1       5.781  -4.241  27.693  0.00  0.00    +0.049 A 
BRANCH  12  15
ATOM     15  C   UNL     1       9.111  -5.079  26.299  0.00  0.00    +0.071 C 
ATOM     16  C   UNL     1       9.478  -4.377  25.002  0.00  0.00    +0.012 C 
ENDBRANCH  12  15
ENDBRANCH   6  10
BRANCH   1  17
ATOM     17  C   UNL     1       8.648   2.207  23.809  0.00  0.00    +0.172 C 
BRANCH  17  18
ATOM     18  C   UNL     1       9.636   3.364  23.831  0.00  0.00    -0.020 A 
ATOM     19  C   UNL     1      10.957   3.170  23.391  0.00  0.00    +0.009 A 
ATOM     20  C   UNL     1      11.863   4.229  23.399  0.00  0.00    +0.038 A 
ATOM     21  C   UNL     1      11.455   5.483  23.839  0.00  0.00    +0.123 A 
ATOM     22  F   UNL     1      12.329   6.496  23.841  0.00  0.00    -0.205 F 
ATOM     23  C   UNL     1      10.158   5.699  24.281  0.00  0.00    +0.038 A 
ATOM     24  C   UNL     1       9.248   4.644  24.279  0.00  0.00    +0.009 A 
ENDBRANCH  17  18
BRANCH  17  25
ATOM     25  C   UNL     1       9.007   1.205  22.754  0.00  0.00    +0.173 A 
ATOM     26  N   UNL     1       9.696   0.053  23.005  0.00  0.00    -0.241 N 
ATOM     27  H   UNL     1      10.085  -0.310  23.867  0.00  0.00    +0.192 HD
ATOM     28  N   UNL     1       9.844  -0.646  21.873  0.00  0.00    -0.047 NA
ATOM     29  N   UNL     1       9.263   0.086  20.934  0.00  0.00    -0.023 NA
ATOM     30  N   UNL     1       8.757   1.249  21.459  0.00  0.00    -0.111 NA
ENDBRANCH  17  25
ENDBRANCH   1  17
TORSDOF 5
ENDMDL
