MODEL 1
REMARK VINA RESULT:      -6.1      0.000      0.000
REMARK  Name = 
REMARK  4 active torsions:
REMARK  status: ('A' for Active; 'I' for Inactive)
REMARK    1  A    between atoms: C_2  and  N_3
REMARK    2  A    between atoms: C_2  and  C_4
REMARK    3  A    between atoms: C_2  and  C_15
REMARK    4  A    between atoms: C_4  and  C_5
REMARK                            x       y       z     vdW  Elec       q    Type
REMARK                         _______ _______ _______ _____ _____    ______ ____
ROOT
ATOM      1  C   UNL     1       9.040  -3.623  24.435  0.00  0.00    +0.063 C 
ENDROOT
BRANCH   1   2
ATOM      2  C   UNL     1       8.908  -2.132  24.733  0.00  0.00    -0.038 A 
ATOM      3  C   UNL     1       9.120  -1.141  23.724  0.00  0.00    -0.015 A 
ATOM      4  C   UNL     1       9.496  -1.424  22.387  0.00  0.00    +0.009 A 
ATOM      5  C   UNL     1       9.667  -0.414  21.434  0.00  0.00    +0.001 A 
ATOM      6  C   UNL     1       9.477   0.913  21.787  0.00  0.00    +0.001 A 
ATOM      7  C   UNL     1       9.126   1.232  23.095  0.00  0.00    +0.008 A 
ATOM      8  C   UNL     1       8.954   0.231  24.064  0.00  0.00    -0.018 A 
ATOM      9  C   UNL     1       8.624   0.595  25.373  0.00  0.00    +0.008 A 
ATOM     10  C   UNL     1       8.469  -0.367  26.361  0.00  0.00    +0.001 A 
ATOM     11  C   UNL     1       8.617  -1.712  26.046  0.00  0.00    +0.004 A 
ENDBRANCH   1   2
BRANCH   1  12
ATOM     12  C   UNL     1       9.211  -4.561  25.649  0.00  0.00    +0.142 C 
BRANCH  12  13
ATOM     13  C   UNL     1       7.905  -5.310  25.990  0.00  0.00    +0.228 C 
ATOM     14  O   UNL     1       6.931  -5.333  25.245  0.00  0.00    -0.274 OA
ATOM     15  N   UNL     1       7.850  -5.904  27.221  0.00  0.00    -0.328 N 
ATOM     16  H   UNL     1       7.031  -6.470  27.406  0.00  0.00    +0.145 HD
ATOM     17  H   UNL     1       8.677  -6.087  27.771  0.00  0.00    +0.145 HD
ENDBRANCH  12  13
BRANCH  12  18
ATOM     18  N   UNL     1      10.284  -5.559  25.407  0.00  0.00    -0.320 NA
ATOM     19  H   UNL     1      10.910  -5.539  26.216  0.00  0.00    +0.119 HD
ATOM     20  H   UNL     1       9.877  -6.494  25.416  0.00  0.00    +0.119 HD
ENDBRANCH  12  18
ENDBRANCH   1  12
TORSDOF 4
ENDMDL
MODEL 2
REMARK VINA RESULT:      -6.0      3.844      5.689
REMARK  Name = 
REMARK  4 active torsions:
REMARK  status: ('A' for Active; 'I' for Inactive)
REMARK    1  A    between atoms: C_2  and  N_3
REMARK    2  A    between atoms: C_2  and  C_4
REMARK    3  A    between atoms: C_2  and  C_15
REMARK    4  A    between atoms: C_4  and  C_5
REMARK                            x       y       z     vdW  Elec       q    Type
REMARK                         _______ _______ _______ _____ _____    ______ ____
ROOT
ATOM      1  C   UNL     1       8.122  -0.891  22.942  0.00  0.00    +0.063 C 
ENDROOT
BRANCH   1   2
ATOM      2  C   UNL     1       8.292  -2.327  23.431  0.00  0.00    -0.038 A 
ATOM      3  C   UNL     1       7.549  -3.408  22.863  0.00  0.00    -0.015 A 
ATOM      4  C   UNL     1       6.581  -3.266  21.839  0.00  0.00    +0.009 A 
ATOM      5  C   UNL     1       5.899  -4.365  21.303  0.00  0.00    +0.001 A 
ATOM      6  C   UNL     1       6.157  -5.642  21.780  0.00  0.00    +0.001 A 
ATOM      7  C   UNL     1       7.087  -5.819  22.800  0.00  0.00    +0.008 A 
ATOM      8  C   UNL     1       7.776  -4.726  23.350  0.00  0.00    -0.018 A 
ATOM      9  C   UNL     1       8.686  -4.945  24.388  0.00  0.00    +0.008 A 
ATOM     10  C   UNL     1       9.368  -3.886  24.971  0.00  0.00    +0.001 A 
ATOM     11  C   UNL     1       9.167  -2.592  24.503  0.00  0.00    +0.004 A 
ENDBRANCH   1   2
BRANCH   1  12
ATOM     12  C   UNL     1       9.118  -0.399  21.870  0.00  0.00    +0.142 C 
BRANCH  12  13
ATOM     13  C   UNL     1       9.953   0.801  22.362  0.00  0.00    +0.228 C 
ATOM     14  O   UNL     1      10.583   0.794  23.415  0.00  0.00    -0.274 OA
ATOM     15  N   UNL     1       9.904   1.931  21.592  0.00  0.00    -0.328 N 
ATOM     16  H   UNL     1      10.523   2.684  21.867  0.00  0.00    +0.145 HD
ATOM     17  H   UNL     1       9.578   1.921  20.636  0.00  0.00    +0.145 HD
ENDBRANCH  12  13
BRANCH  12  18
ATOM     18  N   UNL     1      10.042  -1.487  21.459  0.00  0.00    -0.320 NA
ATOM     19  H   UNL     1       9.472  -2.246  21.078  0.00  0.00    +0.119 HD
ATOM     20  H   UNL     1      10.607  -1.165  20.674  0.00  0.00    +0.119 HD
ENDBRANCH  12  18
ENDBRANCH   1  12
TORSDOF 4
ENDMDL
MODEL 3
REMARK VINA RESULT:      -5.8      1.517      2.072
REMARK  Name = 
REMARK  4 active torsions:
REMARK  status: ('A' for Active; 'I' for Inactive)
REMARK    1  A    between atoms: C_2  and  N_3
REMARK    2  A    between atoms: C_2  and  C_4
REMARK    3  A    between atoms: C_2  and  C_15
REMARK    4  A    between atoms: C_4  and  C_5
REMARK                            x       y       z     vdW  Elec       q    Type
REMARK                         _______ _______ _______ _____ _____    ______ ____
ROOT
ATOM      1  C   UNL     1       8.385  -3.225  26.354  0.00  0.00    +0.063 C 
ENDROOT
BRANCH   1   2
ATOM      2  C   UNL     1       7.785  -2.164  25.434  0.00  0.00    -0.038 A 
ATOM      3  C   UNL     1       8.484  -1.684  24.283  0.00  0.00    -0.015 A 
ATOM      4  C   UNL     1       9.783  -2.102  23.900  0.00  0.00    +0.009 A 
ATOM      5  C   UNL     1      10.411  -1.614  22.748  0.00  0.00    +0.001 A 
ATOM      6  C   UNL     1       9.765  -0.685  21.946  0.00  0.00    +0.001 A 
ATOM      7  C   UNL     1       8.496  -0.236  22.301  0.00  0.00    +0.008 A 
ATOM      8  C   UNL     1       7.855  -0.713  23.455  0.00  0.00    -0.018 A 
ATOM      9  C   UNL     1       6.590  -0.219  23.788  0.00  0.00    +0.008 A 
ATOM     10  C   UNL     1       5.937  -0.651  24.933  0.00  0.00    +0.001 A 
ATOM     11  C   UNL     1       6.531  -1.606  25.750  0.00  0.00    +0.004 A 
ENDBRANCH   1   2
BRANCH   1  12
ATOM     12  C   UNL     1       8.040  -4.696  26.036  0.00  0.00    +0.142 C 
BRANCH  12  13
ATOM     13  C   UNL     1       9.063  -5.335  25.072  0.00  0.00    +0.228 C 
ATOM     14  O   UNL     1       8.801  -5.617  23.907  0.00  0.00    -0.274 OA
ATOM     15  N   UNL     1      10.284  -5.647  25.602  0.00  0.00    -0.328 N 
ATOM     16  H   UNL     1      10.982  -5.980  24.948  0.00  0.00    +0.145 HD
ATOM     17  H   UNL     1      10.612  -5.256  26.474  0.00  0.00    +0.145 HD
ENDBRANCH  12  13
BRANCH  12  18
ATOM     18  N   UNL     1       7.979  -5.511  27.276  0.00  0.00    -0.320 NA
ATOM     19  H   UNL     1       8.209  -4.896  28.059  0.00  0.00    +0.119 HD
ATOM     20  H   UNL     1       7.013  -5.794  27.440  0.00  0.00    +0.119 HD
ENDBRANCH  12  18
ENDBRANCH   1  12
TORSDOF 4
ENDMDL
MODEL 4
REMARK VINA RESULT:      -5.6      3.656      5.956
REMARK  Name = 
REMARK  4 active torsions:
REMARK  status: ('A' for Active; 'I' for Inactive)
REMARK    1  A    between atoms: C_2  and  N_3
REMARK    2  A    between atoms: C_2  and  C_4
REMARK    3  A    between atoms: C_2  and  C_15
REMARK    4  A    between atoms: C_4  and  C_5
REMARK                            x       y       z     vdW  Elec       q    Type
REMARK                         _______ _______ _______ _____ _____    ______ ____
ROOT
ATOM      1  C   UNL     1       8.609  -0.980  23.580  0.00  0.00    +0.063 C 
ENDROOT
BRANCH   1   2
ATOM      2  C   UNL     1       7.609  -2.132  23.624  0.00  0.00    -0.038 A 
ATOM      3  C   UNL     1       7.716  -3.184  24.587  0.00  0.00    -0.015 A 
ATOM      4  C   UNL     1       8.747  -3.286  25.554  0.00  0.00    +0.009 A 
ATOM      5  C   UNL     1       8.789  -4.327  26.488  0.00  0.00    +0.001 A 
ATOM      6  C   UNL     1       7.806  -5.306  26.482  0.00  0.00    +0.001 A 
ATOM      7  C   UNL     1       6.788  -5.250  25.535  0.00  0.00    +0.008 A 
ATOM      8  C   UNL     1       6.734  -4.214  24.588  0.00  0.00    -0.018 A 
ATOM      9  C   UNL     1       5.707  -4.207  23.640  0.00  0.00    +0.008 A 
ATOM     10  C   UNL     1       5.636  -3.212  22.676  0.00  0.00    +0.001 A 
ATOM     11  C   UNL     1       6.580  -2.192  22.664  0.00  0.00    +0.004 A 
ENDBRANCH   1   2
BRANCH   1  12
ATOM     12  C   UNL     1       9.099  -0.538  22.184  0.00  0.00    +0.142 C 
BRANCH  12  13
ATOM     13  C   UNL     1       9.682   0.890  22.199  0.00  0.00    +0.228 C 
ATOM     14  O   UNL     1      10.476   1.281  23.050  0.00  0.00    -0.274 OA
ATOM     15  N   UNL     1       9.213   1.748  21.243  0.00  0.00    -0.328 N 
ATOM     16  H   UNL     1       9.663   2.654  21.198  0.00  0.00    +0.145 HD
ATOM     17  H   UNL     1       8.731   1.426  20.417  0.00  0.00    +0.145 HD
ENDBRANCH  12  13
BRANCH  12  18
ATOM     18  N   UNL     1      10.131  -1.470  21.660  0.00  0.00    -0.320 NA
ATOM     19  H   UNL     1       9.708  -2.399  21.609  0.00  0.00    +0.119 HD
ATOM     20  H   UNL     1      10.340  -1.225  20.692  0.00  0.00    +0.119 HD
ENDBRANCH  12  18
ENDBRANCH   1  12
TORSDOF 4
ENDMDL
MODEL 5
REMARK VINA RESULT:      -5.6      4.619      6.485
REMARK  Name = 
REMARK  4 active torsions:
REMARK  status: ('A' for Active; 'I' for Inactive)
REMARK    1  A    between atoms: C_2  and  N_3
REMARK    2  A    between atoms: C_2  and  C_4
REMARK    3  A    between atoms: C_2  and  C_15
REMARK    4  A    between atoms: C_4  and  C_5
REMARK                            x       y       z     vdW  Elec       q    Type
REMARK                         _______ _______ _______ _____ _____    ______ ____
ROOT
ATOM      1  C   UNL     1       9.914   1.856  23.577  0.00  0.00    +0.063 C 
ENDROOT
BRANCH   1   2
ATOM      2  C   UNL     1      10.350   3.318  23.629  0.00  0.00    -0.038 A 
ATOM      3  C   UNL     1       9.429   4.368  23.935  0.00  0.00    -0.015 A 
ATOM      4  C   UNL     1       8.047   4.176  24.184  0.00  0.00    +0.009 A 
ATOM      5  C   UNL     1       7.195   5.240  24.502  0.00  0.00    +0.001 A 
ATOM      6  C   UNL     1       7.694   6.532  24.573  0.00  0.00    +0.001 A 
ATOM      7  C   UNL     1       9.042   6.763  24.315  0.00  0.00    +0.008 A 
ATOM      8  C   UNL     1       9.908   5.707  23.991  0.00  0.00    -0.018 A 
ATOM      9  C   UNL     1      11.251   5.984  23.717  0.00  0.00    +0.008 A 
ATOM     10  C   UNL     1      12.131   4.968  23.371  0.00  0.00    +0.001 A 
ATOM     11  C   UNL     1      11.683   3.653  23.320  0.00  0.00    +0.004 A 
ENDBRANCH   1   2
BRANCH   1  12
ATOM     12  C   UNL     1       9.869   1.194  22.184  0.00  0.00    +0.142 C 
BRANCH  12  13
ATOM     13  C   UNL     1       9.338  -0.254  22.248  0.00  0.00    +0.228 C 
ATOM     14  O   UNL     1       8.481  -0.619  23.047  0.00  0.00    -0.274 OA
ATOM     15  N   UNL     1       9.927  -1.155  21.404  0.00  0.00    -0.328 N 
ATOM     16  H   UNL     1       9.516  -2.080  21.383  0.00  0.00    +0.145 HD
ATOM     17  H   UNL     1      10.475  -0.870  20.605  0.00  0.00    +0.145 HD
ENDBRANCH  12  13
BRANCH  12  18
ATOM     18  N   UNL     1       9.018   1.973  21.248  0.00  0.00    -0.320 NA
ATOM     19  H   UNL     1       8.879   2.899  21.659  0.00  0.00    +0.119 HD
ATOM     20  H   UNL     1       9.539   2.144  20.388  0.00  0.00    +0.119 HD
ENDBRANCH  12  18
ENDBRANCH   1  12
TORSDOF 4
ENDMDL
MODEL 6
REMARK VINA RESULT:      -5.6      2.354      2.666
REMARK  Name = 
REMARK  4 active torsions:
REMARK  status: ('A' for Active; 'I' for Inactive)
REMARK    1  A    between atoms: C_2  and  N_3
REMARK    2  A    between atoms: C_2  and  C_4
REMARK    3  A    between atoms: C_2  and  C_15
REMARK    4  A    between atoms: C_4  and  C_5
REMARK                            x       y       z     vdW  Elec       q    Type
REMARK                         _______ _______ _______ _____ _____    ______ ____
ROOT
ATOM      1  C   UNL     1       8.220  -2.857  22.603  0.00  0.00    +0.063 C 
ENDROOT
BRANCH   1   2
ATOM      2  C   UNL     1       8.564  -1.869  23.715  0.00  0.00    -0.038 A 
ATOM      3  C   UNL     1       9.122  -0.583  23.432  0.00  0.00    -0.015 A 
ATOM      4  C   UNL     1       9.439  -0.113  22.134  0.00  0.00    +0.009 A 
ATOM      5  C   UNL     1       9.964   1.166  21.914  0.00  0.00    +0.001 A 
ATOM      6  C   UNL     1      10.198   2.014  22.986  0.00  0.00    +0.001 A 
ATOM      7  C   UNL     1       9.917   1.580  24.279  0.00  0.00    +0.008 A 
ATOM      8  C   UNL     1       9.395   0.299  24.515  0.00  0.00    -0.018 A 
ATOM      9  C   UNL     1       9.149  -0.107  25.830  0.00  0.00    +0.008 A 
ATOM     10  C   UNL     1       8.653  -1.374  26.103  0.00  0.00    +0.001 A 
ATOM     11  C   UNL     1       8.372  -2.246  25.058  0.00  0.00    +0.004 A 
ENDBRANCH   1   2
BRANCH   1  12
ATOM     12  C   UNL     1       7.359  -4.076  22.999  0.00  0.00    +0.142 C 
BRANCH  12  13
ATOM     13  C   UNL     1       6.405  -4.503  21.864  0.00  0.00    +0.228 C 
ATOM     14  O   UNL     1       5.522  -3.775  21.420  0.00  0.00    -0.274 OA
ATOM     15  N   UNL     1       6.539  -5.786  21.408  0.00  0.00    -0.328 N 
ATOM     16  H   UNL     1       5.976  -6.034  20.603  0.00  0.00    +0.145 HD
ATOM     17  H   UNL     1       7.364  -6.340  21.589  0.00  0.00    +0.145 HD
ENDBRANCH  12  13
BRANCH  12  18
ATOM     18  N   UNL     1       8.211  -5.235  23.368  0.00  0.00    -0.320 NA
ATOM     19  H   UNL     1       8.018  -5.983  22.699  0.00  0.00    +0.119 HD
ATOM     20  H   UNL     1       9.189  -4.992  23.213  0.00  0.00    +0.119 HD
ENDBRANCH  12  18
ENDBRANCH   1  12
TORSDOF 4
ENDMDL
MODEL 7
REMARK VINA RESULT:      -5.3      3.108      5.129
REMARK  Name = 
REMARK  4 active torsions:
REMARK  status: ('A' for Active; 'I' for Inactive)
REMARK    1  A    between atoms: C_2  and  N_3
REMARK    2  A    between atoms: C_2  and  C_4
REMARK    3  A    between atoms: C_2  and  C_15
REMARK    4  A    between atoms: C_4  and  C_5
REMARK                            x       y       z     vdW  Elec       q    Type
REMARK                         _______ _______ _______ _____ _____    ______ ____
ROOT
ATOM      1  C   UNL     1       9.767  -2.718  24.110  0.00  0.00    +0.063 C 
ENDROOT
BRANCH   1   2
ATOM      2  C   UNL     1       8.711  -3.629  24.730  0.00  0.00    -0.038 A 
ATOM      3  C   UNL     1       7.706  -4.264  23.936  0.00  0.00    -0.015 A 
ATOM      4  C   UNL     1       7.563  -4.096  22.537  0.00  0.00    +0.009 A 
ATOM      5  C   UNL     1       6.572  -4.762  21.806  0.00  0.00    +0.001 A 
ATOM      6  C   UNL     1       5.685  -5.610  22.452  0.00  0.00    +0.001 A 
ATOM      7  C   UNL     1       5.782  -5.786  23.829  0.00  0.00    +0.008 A 
ATOM      8  C   UNL     1       6.768  -5.122  24.576  0.00  0.00    -0.018 A 
ATOM      9  C   UNL     1       6.816  -5.308  25.961  0.00  0.00    +0.008 A 
ATOM     10  C   UNL     1       7.762  -4.650  26.734  0.00  0.00    +0.001 A 
ATOM     11  C   UNL     1       8.693  -3.816  26.127  0.00  0.00    +0.004 A 
ENDBRANCH   1   2
BRANCH   1  12
ATOM     12  C   UNL     1       9.351  -1.256  23.840  0.00  0.00    +0.142 C 
BRANCH  12  13
ATOM     13  C   UNL     1       9.445  -0.383  25.109  0.00  0.00    +0.228 C 
ATOM     14  O   UNL     1       8.549  -0.315  25.945  0.00  0.00    -0.274 OA
ATOM     15  N   UNL     1      10.568   0.388  25.234  0.00  0.00    -0.328 N 
ATOM     16  H   UNL     1      10.670   0.888  26.109  0.00  0.00    +0.145 HD
ATOM     17  H   UNL     1      11.405   0.216  24.695  0.00  0.00    +0.145 HD
ENDBRANCH  12  13
BRANCH  12  18
ATOM     18  N   UNL     1      10.192  -0.647  22.779  0.00  0.00    -0.320 NA
ATOM     19  H   UNL     1      10.387  -1.375  22.087  0.00  0.00    +0.119 HD
ATOM     20  H   UNL     1       9.643   0.050  22.277  0.00  0.00    +0.119 HD
ENDBRANCH  12  18
ENDBRANCH   1  12
TORSDOF 4
ENDMDL
MODEL 8
REMARK VINA RESULT:      -5.3      1.749      2.926
REMARK  Name = 
REMARK  4 active torsions:
REMARK  status: ('A' for Active; 'I' for Inactive)
REMARK    1  A    between atoms: C_2  and  N_3
REMARK    2  A    between atoms: C_2  and  C_4
REMARK    3  A    between atoms: C_2  and  C_15
REMARK    4  A    between atoms: C_4  and  C_5
REMARK                            x       y       z     vdW  Elec       q    Type
REMARK                         _______ _______ _______ _____ _____    ______ ____
ROOT
ATOM      1  C   UNL     1       8.678  -2.240  25.260  0.00  0.00    +0.063 C 
ENDROOT
BRANCH   1   2
ATOM      2  C   UNL     1       8.916  -1.438  23.983  0.00  0.00    -0.038 A 
ATOM      3  C   UNL     1       8.087  -0.329  23.626  0.00  0.00    -0.015 A 
ATOM      4  C   UNL     1       6.969   0.112  24.376  0.00  0.00    +0.009 A 
ATOM      5  C   UNL     1       6.205   1.220  23.990  0.00  0.00    +0.001 A 
ATOM      6  C   UNL     1       6.529   1.918  22.836  0.00  0.00    +0.001 A 
ATOM      7  C   UNL     1       7.608   1.503  22.062  0.00  0.00    +0.008 A 
ATOM      8  C   UNL     1       8.381   0.391  22.434  0.00  0.00    -0.018 A 
ATOM      9  C   UNL     1       9.443  -0.007  21.617  0.00  0.00    +0.008 A 
ATOM     10  C   UNL     1      10.214  -1.114  21.942  0.00  0.00    +0.001 A 
ATOM     11  C   UNL     1       9.948  -1.825  23.106  0.00  0.00    +0.004 A 
ENDBRANCH   1   2
BRANCH   1  12
ATOM     12  C   UNL     1       8.050  -3.640  25.093  0.00  0.00    +0.142 C 
BRANCH  12  13
ATOM     13  C   UNL     1       9.035  -4.766  25.471  0.00  0.00    +0.228 C 
ATOM     14  O   UNL     1      10.145  -4.886  24.960  0.00  0.00    -0.274 OA
ATOM     15  N   UNL     1       8.584  -5.692  26.371  0.00  0.00    -0.328 N 
ATOM     16  H   UNL     1       9.262  -6.375  26.686  0.00  0.00    +0.145 HD
ATOM     17  H   UNL     1       7.781  -5.526  26.961  0.00  0.00    +0.145 HD
ENDBRANCH  12  13
BRANCH  12  18
ATOM     18  N   UNL     1       6.825  -3.779  25.923  0.00  0.00    -0.320 NA
ATOM     19  H   UNL     1       6.242  -4.500  25.491  0.00  0.00    +0.119 HD
ATOM     20  H   UNL     1       7.082  -4.161  26.833  0.00  0.00    +0.119 HD
ENDBRANCH  12  18
ENDBRANCH   1  12
TORSDOF 4
ENDMDL
MODEL 9
REMARK VINA RESULT:      -5.3      2.670      3.575
REMARK  Name = 
REMARK  4 active torsions:
REMARK  status: ('A' for Active; 'I' for Inactive)
REMARK    1  A    between atoms: C_2  and  N_3
REMARK    2  A    between atoms: C_2  and  C_4
REMARK    3  A    between atoms: C_2  and  C_15
REMARK    4  A    between atoms: C_4  and  C_5
REMARK                            x       y       z     vdW  Elec       q    Type
REMARK                         _______ _______ _______ _____ _____    ______ ____
ROOT
ATOM      1  C   UNL     1       9.902  -0.954  24.457  0.00  0.00    +0.063 C 
ENDROOT
BRANCH   1   2
ATOM      2  C   UNL     1       9.075   0.242  24.921  0.00  0.00    -0.038 A 
ATOM      3  C   UNL     1       9.402   1.579  24.534  0.00  0.00    -0.015 A 
ATOM      4  C   UNL     1      10.513   1.933  23.729  0.00  0.00    +0.009 A 
ATOM      5  C   UNL     1      10.772   3.258  23.362  0.00  0.00    +0.001 A 
ATOM      6  C   UNL     1       9.934   4.275  23.794  0.00  0.00    +0.001 A 
ATOM      7  C   UNL     1       8.843   3.969  24.602  0.00  0.00    +0.008 A 
ATOM      8  C   UNL     1       8.573   2.645  24.983  0.00  0.00    -0.018 A 
ATOM      9  C   UNL     1       7.480   2.382  25.814  0.00  0.00    +0.008 A 
ATOM     10  C   UNL     1       7.196   1.089  26.229  0.00  0.00    +0.001 A 
ATOM     11  C   UNL     1       7.988   0.033  25.794  0.00  0.00    +0.004 A 
ENDBRANCH   1   2
BRANCH   1  12
ATOM     12  C   UNL     1       9.120  -2.205  24.000  0.00  0.00    +0.142 C 
BRANCH  12  13
ATOM     13  C   UNL     1       8.683  -2.107  22.524  0.00  0.00    +0.228 C 
ATOM     14  O   UNL     1       9.318  -1.488  21.675  0.00  0.00    -0.274 OA
ATOM     15  N   UNL     1       7.490  -2.695  22.203  0.00  0.00    -0.328 N 
ATOM     16  H   UNL     1       7.251  -2.710  21.219  0.00  0.00    +0.145 HD
ATOM     17  H   UNL     1       7.045  -3.377  22.802  0.00  0.00    +0.145 HD
ENDBRANCH  12  13
BRANCH  12  18
ATOM     18  N   UNL     1       9.930  -3.436  24.178  0.00  0.00    -0.320 NA
ATOM     19  H   UNL     1      10.900  -3.202  23.952  0.00  0.00    +0.119 HD
ATOM     20  H   UNL     1       9.946  -3.685  25.167  0.00  0.00    +0.119 HD
ENDBRANCH  12  18
ENDBRANCH   1  12
TORSDOF 4
ENDMDL
