MODEL 1
REMARK VINA RESULT:      -7.3      0.000      0.000
REMARK  Name = 
REMARK  3 active torsions:
REMARK  status: ('A' for Active; 'I' for Inactive)
REMARK    1  A    between atoms: C_2  and  O_3
REMARK    2  A    between atoms: C_19  and  O_21
REMARK    3  A    between atoms: C_22  and  O_24
REMARK                            x       y       z     vdW  Elec       q    Type
REMARK                         _______ _______ _______ _____ _____    ______ ____
ROOT
ATOM      1  C   UNL     1       8.707   0.355  21.725  0.00  0.00    +0.150 C 
ATOM      2  C   UNL     1      10.019   0.888  22.287  0.00  0.00    +0.176 C 
ATOM      3  C   UNL     1       9.944   0.957  23.822  0.00  0.00    +0.176 C 
ATOM      4  C   UNL     1       9.285  -0.249  24.472  0.00  0.00    -0.013 A 
ATOM      5  C   UNL     1       9.278  -0.306  25.865  0.00  0.00    +0.007 A 
ATOM      6  C   UNL     1       8.606  -1.324  26.524  0.00  0.00    +0.009 A 
ATOM      7  C   UNL     1       7.964  -2.345  25.814  0.00  0.00    -0.017 A 
ATOM      8  C   UNL     1       7.261  -3.291  26.563  0.00  0.00    +0.009 A 
ATOM      9  C   UNL     1       6.576  -4.328  25.947  0.00  0.00    +0.009 A 
ATOM     10  C   UNL     1       6.647  -4.501  24.570  0.00  0.00    -0.017 A 
ATOM     11  C   UNL     1       5.975  -5.599  24.000  0.00  0.00    +0.008 A 
ATOM     12  C   UNL     1       6.076  -5.882  22.645  0.00  0.00    +0.001 A 
ATOM     13  C   UNL     1       6.882  -5.089  21.851  0.00  0.00    +0.001 A 
ATOM     14  C   UNL     1       7.534  -3.985  22.412  0.00  0.00    +0.009 A 
ATOM     15  C   UNL     1       7.404  -3.598  23.774  0.00  0.00    -0.010 A 
ATOM     16  C   UNL     1       8.005  -2.408  24.393  0.00  0.00    -0.007 A 
ATOM     17  C   UNL     1       8.612  -1.260  23.734  0.00  0.00    -0.031 A 
ATOM     18  C   UNL     1       8.483  -1.069  22.231  0.00  0.00    +0.070 C 
ENDROOT
BRANCH   2  19
ATOM     19  O   UNL     1      10.263   2.188  21.725  0.00  0.00    -0.386 OA
ATOM     20  H   UNL     1       9.386   2.617  21.670  0.00  0.00    +0.210 HD
ENDBRANCH   2  19
BRANCH   3  21
ATOM     21  O   UNL     1      11.271   1.108  24.347  0.00  0.00    -0.385 OA
ATOM     22  H   UNL     1      11.677   0.225  24.355  0.00  0.00    +0.210 HD
ENDBRANCH   3  21
BRANCH   1  23
ATOM     23  O   UNL     1       7.634   1.234  22.093  0.00  0.00    -0.389 OA
ATOM     24  H   UNL     1       6.806   0.718  22.076  0.00  0.00    +0.210 HD
ENDBRANCH   1  23
TORSDOF 3
ENDMDL
MODEL 2
REMARK VINA RESULT:      -6.9      1.831      2.317
REMARK  Name = 
REMARK  3 active torsions:
REMARK  status: ('A' for Active; 'I' for Inactive)
REMARK    1  A    between atoms: C_2  and  O_3
REMARK    2  A    between atoms: C_19  and  O_21
REMARK    3  A    between atoms: C_22  and  O_24
REMARK                            x       y       z     vdW  Elec       q    Type
REMARK                         _______ _______ _______ _____ _____    ______ ____
ROOT
ATOM      1  C   UNL     1       6.675   1.763  22.682  0.00  0.00    +0.150 C 
ATOM      2  C   UNL     1       7.803   2.373  21.861  0.00  0.00    +0.176 C 
ATOM      3  C   UNL     1       9.164   1.964  22.451  0.00  0.00    +0.176 C 
ATOM      4  C   UNL     1       9.251   0.508  22.878  0.00  0.00    -0.013 A 
ATOM      5  C   UNL     1      10.486   0.039  23.322  0.00  0.00    +0.007 A 
ATOM      6  C   UNL     1      10.611  -1.248  23.823  0.00  0.00    +0.009 A 
ATOM      7  C   UNL     1       9.521  -2.124  23.847  0.00  0.00    -0.017 A 
ATOM      8  C   UNL     1       9.728  -3.377  24.427  0.00  0.00    +0.009 A 
ATOM      9  C   UNL     1       8.702  -4.305  24.516  0.00  0.00    +0.009 A 
ATOM     10  C   UNL     1       7.461  -4.042  23.948  0.00  0.00    -0.017 A 
ATOM     11  C   UNL     1       6.469  -5.038  24.022  0.00  0.00    +0.008 A 
ATOM     12  C   UNL     1       5.238  -4.877  23.401  0.00  0.00    +0.001 A 
ATOM     13  C   UNL     1       5.001  -3.730  22.667  0.00  0.00    +0.001 A 
ATOM     14  C   UNL     1       5.978  -2.731  22.610  0.00  0.00    +0.009 A 
ATOM     15  C   UNL     1       7.224  -2.804  23.292  0.00  0.00    -0.010 A 
ATOM     16  C   UNL     1       8.250  -1.752  23.326  0.00  0.00    -0.007 A 
ATOM     17  C   UNL     1       8.124  -0.357  22.924  0.00  0.00    -0.031 A 
ATOM     18  C   UNL     1       6.762   0.239  22.608  0.00  0.00    +0.070 C 
ENDROOT
BRANCH   2  19
ATOM     19  O   UNL     1       7.650   3.801  21.862  0.00  0.00    -0.386 OA
ATOM     20  H   UNL     1       8.385   4.143  21.316  0.00  0.00    +0.210 HD
ENDBRANCH   2  19
BRANCH   3  21
ATOM     21  O   UNL     1      10.190   2.233  21.485  0.00  0.00    -0.385 OA
ATOM     22  H   UNL     1       9.748   2.369  20.630  0.00  0.00    +0.210 HD
ENDBRANCH   3  21
BRANCH   1  23
ATOM     23  O   UNL     1       6.751   2.241  24.034  0.00  0.00    -0.389 OA
ATOM     24  H   UNL     1       7.406   1.696  24.507  0.00  0.00    +0.210 HD
ENDBRANCH   1  23
TORSDOF 3
ENDMDL
MODEL 3
REMARK VINA RESULT:      -6.9      2.958      5.708
REMARK  Name = 
REMARK  3 active torsions:
REMARK  status: ('A' for Active; 'I' for Inactive)
REMARK    1  A    between atoms: C_2  and  O_3
REMARK    2  A    between atoms: C_19  and  O_21
REMARK    3  A    between atoms: C_22  and  O_24
REMARK                            x       y       z     vdW  Elec       q    Type
REMARK                         _______ _______ _______ _____ _____    ______ ____
ROOT
ATOM      1  C   UNL     1       6.909  -4.739  21.875  0.00  0.00    +0.150 C 
ATOM      2  C   UNL     1       5.586  -5.103  22.536  0.00  0.00    +0.176 C 
ATOM      3  C   UNL     1       5.735  -5.062  24.068  0.00  0.00    +0.176 C 
ATOM      4  C   UNL     1       6.533  -3.877  24.588  0.00  0.00    -0.013 A 
ATOM      5  C   UNL     1       6.618  -3.715  25.970  0.00  0.00    +0.007 A 
ATOM      6  C   UNL     1       7.413  -2.717  26.513  0.00  0.00    +0.009 A 
ATOM      7  C   UNL     1       8.104  -1.817  25.696  0.00  0.00    -0.017 A 
ATOM      8  C   UNL     1       8.928  -0.887  26.333  0.00  0.00    +0.009 A 
ATOM      9  C   UNL     1       9.669   0.032  25.605  0.00  0.00    +0.009 A 
ATOM     10  C   UNL     1       9.541   0.106  24.223  0.00  0.00    -0.017 A 
ATOM     11  C   UNL     1      10.278   1.090  23.537  0.00  0.00    +0.008 A 
ATOM     12  C   UNL     1      10.132   1.277  22.170  0.00  0.00    +0.001 A 
ATOM     13  C   UNL     1       9.218   0.505  21.480  0.00  0.00    +0.001 A 
ATOM     14  C   UNL     1       8.500  -0.487  22.156  0.00  0.00    +0.009 A 
ATOM     15  C   UNL     1       8.666  -0.780  23.538  0.00  0.00    -0.010 A 
ATOM     16  C   UNL     1       7.995  -1.858  24.277  0.00  0.00    -0.007 A 
ATOM     17  C   UNL     1       7.253  -2.992  23.741  0.00  0.00    -0.031 A 
ATOM     18  C   UNL     1       7.286  -3.308  22.254  0.00  0.00    +0.070 C 
ENDROOT
BRANCH   2  19
ATOM     19  O   UNL     1       5.198  -6.414  22.093  0.00  0.00    -0.386 OA
ATOM     20  H   UNL     1       5.114  -6.950  22.905  0.00  0.00    +0.210 HD
ENDBRANCH   2  19
BRANCH   3  21
ATOM     21  O   UNL     1       4.430  -5.049  24.662  0.00  0.00    -0.385 OA
ATOM     22  H   UNL     1       3.785  -5.109  23.937  0.00  0.00    +0.210 HD
ENDBRANCH   3  21
BRANCH   1  23
ATOM     23  O   UNL     1       7.918  -5.683  22.263  0.00  0.00    -0.389 OA
ATOM     24  H   UNL     1       7.475  -6.529  22.462  0.00  0.00    +0.210 HD
ENDBRANCH   1  23
TORSDOF 3
ENDMDL
MODEL 4
REMARK VINA RESULT:      -6.7      3.244      5.912
REMARK  Name = 
REMARK  3 active torsions:
REMARK  status: ('A' for Active; 'I' for Inactive)
REMARK    1  A    between atoms: C_2  and  O_3
REMARK    2  A    between atoms: C_19  and  O_21
REMARK    3  A    between atoms: C_22  and  O_24
REMARK                            x       y       z     vdW  Elec       q    Type
REMARK                         _______ _______ _______ _____ _____    ______ ____
ROOT
ATOM      1  C   UNL     1       7.317  -4.722  22.154  0.00  0.00    +0.150 C 
ATOM      2  C   UNL     1       5.842  -5.073  22.012  0.00  0.00    +0.176 C 
ATOM      3  C   UNL     1       5.071  -4.629  23.267  0.00  0.00    +0.176 C 
ATOM      4  C   UNL     1       5.468  -3.260  23.795  0.00  0.00    -0.013 A 
ATOM      5  C   UNL     1       4.738  -2.746  24.866  0.00  0.00    +0.007 A 
ATOM      6  C   UNL     1       5.111  -1.551  25.462  0.00  0.00    +0.009 A 
ATOM      7  C   UNL     1       6.189  -0.805  24.975  0.00  0.00    -0.017 A 
ATOM      8  C   UNL     1       6.528   0.352  25.679  0.00  0.00    +0.009 A 
ATOM      9  C   UNL     1       7.595   1.145  25.285  0.00  0.00    +0.009 A 
ATOM     10  C   UNL     1       8.301   0.852  24.124  0.00  0.00    -0.017 A 
ATOM     11  C   UNL     1       9.343   1.717  23.741  0.00  0.00    +0.008 A 
ATOM     12  C   UNL     1      10.031   1.535  22.550  0.00  0.00    +0.001 A 
ATOM     13  C   UNL     1       9.657   0.504  21.709  0.00  0.00    +0.001 A 
ATOM     14  C   UNL     1       8.636  -0.369  22.098  0.00  0.00    +0.009 A 
ATOM     15  C   UNL     1       7.951  -0.282  23.341  0.00  0.00    -0.010 A 
ATOM     16  C   UNL     1       6.926  -1.216  23.829  0.00  0.00    -0.007 A 
ATOM     17  C   UNL     1       6.586  -2.533  23.307  0.00  0.00    -0.031 A 
ATOM     18  C   UNL     1       7.466  -3.205  22.265  0.00  0.00    +0.070 C 
ENDROOT
BRANCH   2  19
ATOM     19  O   UNL     1       5.726  -6.491  21.812  0.00  0.00    -0.386 OA
ATOM     20  H   UNL     1       6.047  -6.898  22.641  0.00  0.00    +0.210 HD
ENDBRANCH   2  19
BRANCH   3  21
ATOM     21  O   UNL     1       3.666  -4.634  22.977  0.00  0.00    -0.385 OA
ATOM     22  H   UNL     1       3.217  -5.026  23.746  0.00  0.00    +0.210 HD
ENDBRANCH   3  21
BRANCH   1  23
ATOM     23  O   UNL     1       7.865  -5.402  23.293  0.00  0.00    -0.389 OA
ATOM     24  H   UNL     1       8.279  -4.734  23.870  0.00  0.00    +0.210 HD
ENDBRANCH   1  23
TORSDOF 3
ENDMDL
MODEL 5
REMARK VINA RESULT:      -6.6      3.489      5.959
REMARK  Name = 
REMARK  3 active torsions:
REMARK  status: ('A' for Active; 'I' for Inactive)
REMARK    1  A    between atoms: C_2  and  O_3
REMARK    2  A    between atoms: C_19  and  O_21
REMARK    3  A    between atoms: C_22  and  O_24
REMARK                            x       y       z     vdW  Elec       q    Type
REMARK                         _______ _______ _______ _____ _____    ______ ____
ROOT
ATOM      1  C   UNL     1       4.602  -3.811  23.424  0.00  0.00    +0.150 C 
ATOM      2  C   UNL     1       4.656  -4.560  24.749  0.00  0.00    +0.176 C 
ATOM      3  C   UNL     1       6.064  -5.142  24.968  0.00  0.00    +0.176 C 
ATOM      4  C   UNL     1       7.197  -4.200  24.592  0.00  0.00    -0.013 A 
ATOM      5  C   UNL     1       8.499  -4.619  24.864  0.00  0.00    +0.007 A 
ATOM      6  C   UNL     1       9.582  -3.856  24.455  0.00  0.00    +0.009 A 
ATOM      7  C   UNL     1       9.400  -2.628  23.810  0.00  0.00    -0.017 A 
ATOM      8  C   UNL     1      10.549  -1.962  23.381  0.00  0.00    +0.009 A 
ATOM      9  C   UNL     1      10.469  -0.749  22.714  0.00  0.00    +0.009 A 
ATOM     10  C   UNL     1       9.241  -0.122  22.535  0.00  0.00    -0.017 A 
ATOM     11  C   UNL     1       9.220   1.132  21.896  0.00  0.00    +0.008 A 
ATOM     12  C   UNL     1       8.041   1.854  21.763  0.00  0.00    +0.001 A 
ATOM     13  C   UNL     1       6.876   1.342  22.301  0.00  0.00    +0.001 A 
ATOM     14  C   UNL     1       6.892   0.087  22.917  0.00  0.00    +0.009 A 
ATOM     15  C   UNL     1       8.050  -0.734  23.012  0.00  0.00    -0.010 A 
ATOM     16  C   UNL     1       8.103  -2.088  23.580  0.00  0.00    -0.007 A 
ATOM     17  C   UNL     1       6.992  -2.971  23.910  0.00  0.00    -0.031 A 
ATOM     18  C   UNL     1       5.576  -2.635  23.469  0.00  0.00    +0.070 C 
ENDROOT
BRANCH   2  19
ATOM     19  O   UNL     1       3.667  -5.602  24.726  0.00  0.00    -0.386 OA
ATOM     20  H   UNL     1       3.843  -6.146  25.518  0.00  0.00    +0.210 HD
ENDBRANCH   2  19
BRANCH   3  21
ATOM     21  O   UNL     1       6.202  -5.520  26.344  0.00  0.00    -0.385 OA
ATOM     22  H   UNL     1       5.314  -5.492  26.739  0.00  0.00    +0.210 HD
ENDBRANCH   3  21
BRANCH   1  23
ATOM     23  O   UNL     1       4.897  -4.714  22.348  0.00  0.00    -0.389 OA
ATOM     24  H   UNL     1       4.600  -4.298  21.518  0.00  0.00    +0.210 HD
ENDBRANCH   1  23
TORSDOF 3
ENDMDL
MODEL 6
REMARK VINA RESULT:      -6.5      3.392      6.313
REMARK  Name = 
REMARK  3 active torsions:
REMARK  status: ('A' for Active; 'I' for Inactive)
REMARK    1  A    between atoms: C_2  and  O_3
REMARK    2  A    between atoms: C_19  and  O_21
REMARK    3  A    between atoms: C_22  and  O_24
REMARK                            x       y       z     vdW  Elec       q    Type
REMARK                         _______ _______ _______ _____ _____    ______ ____
ROOT
ATOM      1  C   UNL     1       6.872  -3.828  26.721  0.00  0.00    +0.150 C 
ATOM      2  C   UNL     1       8.063  -4.775  26.785  0.00  0.00    +0.176 C 
ATOM      3  C   UNL     1       8.912  -4.640  25.508  0.00  0.00    +0.176 C 
ATOM      4  C   UNL     1       9.117  -3.208  25.041  0.00  0.00    -0.013 A 
ATOM      5  C   UNL     1       9.964  -3.001  23.953  0.00  0.00    +0.007 A 
ATOM      6  C   UNL     1      10.116  -1.734  23.412  0.00  0.00    +0.009 A 
ATOM      7  C   UNL     1       9.469  -0.626  23.970  0.00  0.00    -0.017 A 
ATOM      8  C   UNL     1       9.633   0.598  23.318  0.00  0.00    +0.009 A 
ATOM      9  C   UNL     1       9.014   1.747  23.784  0.00  0.00    +0.009 A 
ATOM     10  C   UNL     1       8.284   1.726  24.967  0.00  0.00    -0.017 A 
ATOM     11  C   UNL     1       7.719   2.932  25.423  0.00  0.00    +0.008 A 
ATOM     12  C   UNL     1       7.053   3.001  26.640  0.00  0.00    +0.001 A 
ATOM     13  C   UNL     1       6.980   1.870  27.430  0.00  0.00    +0.001 A 
ATOM     14  C   UNL     1       7.523   0.667  26.969  0.00  0.00    +0.009 A 
ATOM     15  C   UNL     1       8.144   0.515  25.698  0.00  0.00    -0.010 A 
ATOM     16  C   UNL     1       8.662  -0.740  25.136  0.00  0.00    -0.007 A 
ATOM     17  C   UNL     1       8.427  -2.100  25.602  0.00  0.00    -0.031 A 
ATOM     18  C   UNL     1       7.376  -2.386  26.663  0.00  0.00    +0.070 C 
ENDROOT
BRANCH   2  19
ATOM     19  O   UNL     1       7.572  -6.117  26.936  0.00  0.00    -0.386 OA
ATOM     20  H   UNL     1       7.866  -6.404  27.823  0.00  0.00    +0.210 HD
ENDBRANCH   2  19
BRANCH   3  21
ATOM     21  O   UNL     1      10.190  -5.250  25.733  0.00  0.00    -0.385 OA
ATOM     22  H   UNL     1      10.081  -5.880  26.465  0.00  0.00    +0.210 HD
ENDBRANCH   3  21
BRANCH   1  23
ATOM     23  O   UNL     1       6.054  -4.158  25.589  0.00  0.00    -0.389 OA
ATOM     24  H   UNL     1       5.783  -5.090  25.678  0.00  0.00    +0.210 HD
ENDBRANCH   1  23
TORSDOF 3
ENDMDL
MODEL 7
REMARK VINA RESULT:      -6.5      3.046      6.319
REMARK  Name = 
REMARK  3 active torsions:
REMARK  status: ('A' for Active; 'I' for Inactive)
REMARK    1  A    between atoms: C_2  and  O_3
REMARK    2  A    between atoms: C_19  and  O_21
REMARK    3  A    between atoms: C_22  and  O_24
REMARK                            x       y       z     vdW  Elec       q    Type
REMARK                         _______ _______ _______ _____ _____    ______ ____
ROOT
ATOM      1  C   UNL     1       7.051  -1.796  23.642  0.00  0.00    +0.150 C 
ATOM      2  C   UNL     1       8.305  -2.439  23.066  0.00  0.00    +0.176 C 
ATOM      3  C   UNL     1       9.018  -1.452  22.125  0.00  0.00    +0.176 C 
ATOM      4  C   UNL     1       9.078  -0.024  22.643  0.00  0.00    -0.013 A 
ATOM      5  C   UNL     1       9.802   0.903  21.895  0.00  0.00    +0.007 A 
ATOM      6  C   UNL     1       9.812   2.242  22.255  0.00  0.00    +0.009 A 
ATOM      7  C   UNL     1       9.146   2.689  23.400  0.00  0.00    -0.017 A 
ATOM      8  C   UNL     1       9.162   4.063  23.646  0.00  0.00    +0.009 A 
ATOM      9  C   UNL     1       8.511   4.602  24.746  0.00  0.00    +0.009 A 
ATOM     10  C   UNL     1       7.901   3.775  25.681  0.00  0.00    -0.017 A 
ATOM     11  C   UNL     1       7.299   4.370  26.805  0.00  0.00    +0.008 A 
ATOM     12  C   UNL     1       6.748   3.600  27.821  0.00  0.00    +0.001 A 
ATOM     13  C   UNL     1       6.829   2.223  27.738  0.00  0.00    +0.001 A 
ATOM     14  C   UNL     1       7.409   1.630  26.612  0.00  0.00    +0.009 A 
ATOM     15  C   UNL     1       7.915   2.365  25.504  0.00  0.00    -0.010 A 
ATOM     16  C   UNL     1       8.463   1.790  24.267  0.00  0.00    -0.007 A 
ATOM     17  C   UNL     1       8.369   0.416  23.793  0.00  0.00    -0.031 A 
ATOM     18  C   UNL     1       7.446  -0.580  24.478  0.00  0.00    +0.070 C 
ENDROOT
BRANCH   2  19
ATOM     19  O   UNL     1       7.926  -3.635  22.365  0.00  0.00    -0.386 OA
ATOM     20  H   UNL     1       7.342  -4.123  22.979  0.00  0.00    +0.210 HD
ENDBRANCH   2  19
BRANCH   3  21
ATOM     21  O   UNL     1      10.351  -1.921  21.881  0.00  0.00    -0.385 OA
ATOM     22  H   UNL     1      10.443  -2.031  20.919  0.00  0.00    +0.210 HD
ENDBRANCH   3  21
BRANCH   1  23
ATOM     23  O   UNL     1       6.154  -1.450  22.577  0.00  0.00    -0.389 OA
ATOM     24  H   UNL     1       5.419  -2.091  22.584  0.00  0.00    +0.210 HD
ENDBRANCH   1  23
TORSDOF 3
ENDMDL
MODEL 8
REMARK VINA RESULT:      -6.5      3.572      7.481
REMARK  Name = 
REMARK  3 active torsions:
REMARK  status: ('A' for Active; 'I' for Inactive)
REMARK    1  A    between atoms: C_2  and  O_3
REMARK    2  A    between atoms: C_19  and  O_21
REMARK    3  A    between atoms: C_22  and  O_24
REMARK                            x       y       z     vdW  Elec       q    Type
REMARK                         _______ _______ _______ _____ _____    ______ ____
ROOT
ATOM      1  C   UNL     1       9.829  -0.429  24.771  0.00  0.00    +0.150 C 
ATOM      2  C   UNL     1       8.775  -1.167  23.957  0.00  0.00    +0.176 C 
ATOM      3  C   UNL     1       7.424  -0.437  24.059  0.00  0.00    +0.176 C 
ATOM      4  C   UNL     1       7.521   1.077  23.963  0.00  0.00    -0.013 A 
ATOM      5  C   UNL     1       6.329   1.799  23.939  0.00  0.00    +0.007 A 
ATOM      6  C   UNL     1       6.346   3.186  23.956  0.00  0.00    +0.009 A 
ATOM      7  C   UNL     1       7.552   3.895  23.943  0.00  0.00    -0.017 A 
ATOM      8  C   UNL     1       7.469   5.286  24.024  0.00  0.00    +0.009 A 
ATOM      9  C   UNL     1       8.611   6.073  24.039  0.00  0.00    +0.009 A 
ATOM     10  C   UNL     1       9.867   5.498  23.884  0.00  0.00    -0.017 A 
ATOM     11  C   UNL     1      10.989   6.346  23.855  0.00  0.00    +0.008 A 
ATOM     12  C   UNL     1      12.263   5.849  23.615  0.00  0.00    +0.001 A 
ATOM     13  C   UNL     1      12.421   4.499  23.365  0.00  0.00    +0.001 A 
ATOM     14  C   UNL     1      11.309   3.652  23.413  0.00  0.00    +0.009 A 
ATOM     15  C   UNL     1       9.994   4.090  23.734  0.00  0.00    -0.010 A 
ATOM     16  C   UNL     1       8.809   3.232  23.872  0.00  0.00    -0.007 A 
ATOM     17  C   UNL     1       8.756   1.780  23.981  0.00  0.00    -0.031 A 
ATOM     18  C   UNL     1      10.027   0.971  24.191  0.00  0.00    +0.070 C 
ENDROOT
BRANCH   2  19
ATOM     19  O   UNL     1       8.671  -2.511  24.453  0.00  0.00    -0.386 OA
ATOM     20  H   UNL     1       9.060  -2.489  25.350  0.00  0.00    +0.210 HD
ENDBRANCH   2  19
BRANCH   3  21
ATOM     21  O   UNL     1       6.554  -0.919  23.025  0.00  0.00    -0.385 OA
ATOM     22  H   UNL     1       5.653  -0.925  23.391  0.00  0.00    +0.210 HD
ENDBRANCH   3  21
BRANCH   1  23
ATOM     23  O   UNL     1       9.432  -0.390  26.150  0.00  0.00    -0.389 OA
ATOM     24  H   UNL     1       8.583  -0.863  26.230  0.00  0.00    +0.210 HD
ENDBRANCH   1  23
TORSDOF 3
ENDMDL
MODEL 9
REMARK VINA RESULT:      -6.4      3.180      5.990
REMARK  Name = 
REMARK  3 active torsions:
REMARK  status: ('A' for Active; 'I' for Inactive)
REMARK    1  A    between atoms: C_2  and  O_3
REMARK    2  A    between atoms: C_19  and  O_21
REMARK    3  A    between atoms: C_22  and  O_24
REMARK                            x       y       z     vdW  Elec       q    Type
REMARK                         _______ _______ _______ _____ _____    ______ ____
ROOT
ATOM      1  C   UNL     1       5.720  -3.169  24.766  0.00  0.00    +0.150 C 
ATOM      2  C   UNL     1       6.714  -3.838  25.707  0.00  0.00    +0.176 C 
ATOM      3  C   UNL     1       8.096  -3.927  25.036  0.00  0.00    +0.176 C 
ATOM      4  C   UNL     1       8.507  -2.674  24.278  0.00  0.00    -0.013 A 
ATOM      5  C   UNL     1       9.790  -2.642  23.735  0.00  0.00    +0.007 A 
ATOM      6  C   UNL     1      10.193  -1.575  22.946  0.00  0.00    +0.009 A 
ATOM      7  C   UNL     1       9.348  -0.484  22.718  0.00  0.00    -0.017 A 
ATOM      8  C   UNL     1       9.818   0.512  21.860  0.00  0.00    +0.009 A 
ATOM      9  C   UNL     1       9.043   1.621  21.557  0.00  0.00    +0.009 A 
ATOM     10  C   UNL     1       7.812   1.812  22.172  0.00  0.00    -0.017 A 
ATOM     11  C   UNL     1       7.088   2.980  21.867  0.00  0.00    +0.008 A 
ATOM     12  C   UNL     1       5.894   3.277  22.509  0.00  0.00    +0.001 A 
ATOM     13  C   UNL     1       5.430   2.423  23.492  0.00  0.00    +0.001 A 
ATOM     14  C   UNL     1       6.137   1.252  23.781  0.00  0.00    +0.009 A 
ATOM     15  C   UNL     1       7.321   0.854  23.100  0.00  0.00    -0.010 A 
ATOM     16  C   UNL     1       8.058  -0.399  23.313  0.00  0.00    -0.007 A 
ATOM     17  C   UNL     1       7.623  -1.590  24.031  0.00  0.00    -0.031 A 
ATOM     18  C   UNL     1       6.178  -1.740  24.481  0.00  0.00    +0.070 C 
ENDROOT
BRANCH   2  19
ATOM     19  O   UNL     1       6.219  -5.145  26.041  0.00  0.00    -0.386 OA
ATOM     20  H   UNL     1       6.971  -5.753  25.896  0.00  0.00    +0.210 HD
ENDBRANCH   2  19
BRANCH   3  21
ATOM     21  O   UNL     1       9.082  -4.216  26.037  0.00  0.00    -0.385 OA
ATOM     22  H   UNL     1       9.399  -5.120  25.871  0.00  0.00    +0.210 HD
ENDBRANCH   3  21
BRANCH   1  23
ATOM     23  O   UNL     1       5.597  -3.945  23.565  0.00  0.00    -0.389 OA
ATOM     24  H   UNL     1       5.134  -4.773  23.789  0.00  0.00    +0.210 HD
ENDBRANCH   1  23
TORSDOF 3
ENDMDL
