MODEL 1
REMARK VINA RESULT:      -5.3      0.000      0.000
REMARK  Name = 
REMARK  15 active torsions:
REMARK  status: ('A' for Active; 'I' for Inactive)
REMARK    1  A    between atoms: N_1  and  C_2
REMARK    2  A    between atoms: C_2  and  C_4
REMARK    3  A    between atoms: C_2  and  C_22
REMARK    4  A    between atoms: C_4  and  C_5
REMARK    5  A    between atoms: C_5  and  C_6
REMARK    6  A    between atoms: N_8  and  C_9
REMARK    7  A    between atoms: C_9  and  C_11
REMARK    8  A    between atoms: C_9  and  C_15
REMARK    9  A    between atoms: C_11  and  S_12
REMARK   10  A    between atoms: S_12  and  C_13
REMARK   11  A    between atoms: C_13  and  O_14
REMARK   12  A    between atoms: N_17  and  CA_18
REMARK   13  A    between atoms: CA_18  and  C_19
REMARK   14  A    between atoms: C_19  and  O_20
REMARK   15  A    between atoms: C_22  and  O_23
REMARK                            x       y       z     vdW  Elec       q    Type
REMARK                         _______ _______ _______ _____ _____    ______ ____
ROOT
ATOM      1  C   UNK A   1       9.033  -1.836  25.037  0.00  0.00    +0.169 C 
ENDROOT
BRANCH   1   3
ATOM      2  C   UNK A   1       8.718  -4.198  24.243  0.00  0.00    +0.214 C 
ATOM      3  N   UNK A   1       8.312  -2.890  24.303  0.00  0.00    -0.303 N 
ATOM      4  H   UNK A   1       7.495  -2.600  23.779  0.00  0.00    +0.149 HD
ATOM      5  O   UNK A   1       9.756  -4.623  24.732  0.00  0.00    -0.276 OA
BRANCH   2   6
ATOM      6  C   UNK A   1       7.801  -5.098  23.441  0.00  0.00    +0.098 C 
BRANCH   6   7
ATOM      7  C   UNK A   1       6.394  -5.247  24.032  0.00  0.00    +0.039 C 
BRANCH   7   8
ATOM      8  C   UNK A   1       5.215  -4.835  23.136  0.00  0.00    +0.161 C 
BRANCH   8   9
ATOM      9  N   UNK A   1       4.587  -5.970  22.414  0.00  0.00    -0.318 NA
ATOM     10  H   UNK A   1       3.583  -6.009  22.607  0.00  0.00    +0.119 HD
ATOM     11  H   UNK A   1       4.639  -5.769  21.409  0.00  0.00    +0.119 HD
ENDBRANCH   8   9
BRANCH   8  12
ATOM     12  C   UNK A   1       5.587  -3.737  22.124  0.00  0.00    +0.322 C 
ATOM     13  O   UNK A   1       5.760  -2.555  22.404  0.00  0.00    -0.249 OA
BRANCH  12  14
ATOM     14  O   UNK A   1       5.712  -4.216  20.867  0.00  0.00    -0.480 OA
ATOM     15  H   UNK A   1       6.673  -4.140  20.637  0.00  0.00    +0.295 HD
ENDBRANCH  12  14
ENDBRANCH   8  12
ENDBRANCH   7   8
ENDBRANCH   6   7
ENDBRANCH   2   6
ENDBRANCH   1   3
BRANCH   1  16
ATOM     16  C   UNK A   1       9.664  -0.908  23.968  0.00  0.00    +0.235 C 
ATOM     17  N   GLY A   2       9.085  -0.997  22.718  0.00  0.00    -0.303 N 
ATOM     18  H   GLY A   2       8.594  -1.870  22.526  0.00  0.00    +0.149 HD
ATOM     19  O   UNK A   1      10.612  -0.161  24.194  0.00  0.00    -0.274 OA
BRANCH  17  20
ATOM     20  CA  GLY A   2       9.569  -0.143  21.642  0.00  0.00    +0.224 C 
BRANCH  20  21
ATOM     21  C   GLY A   2       9.111   1.314  21.579  0.00  0.00    +0.322 C 
ATOM     22  OXT GLY A   2       7.929   1.635  21.578  0.00  0.00    -0.249 OA
BRANCH  21  23
ATOM     23  O   GLY A   2      10.083   2.246  21.515  0.00  0.00    -0.480 OA
ATOM     24  H   GLY A   2      10.104   2.782  20.692  0.00  0.00    +0.295 HD
ENDBRANCH  21  23
ENDBRANCH  20  21
ENDBRANCH  17  20
ENDBRANCH   1  16
BRANCH   1  25
ATOM     25  C   UNK A   1       8.133  -0.980  25.949  0.00  0.00    +0.103 C 
BRANCH  25  26
ATOM     26  S   UNK A   1       6.328  -1.096  25.683  0.00  0.00    -0.131 S 
BRANCH  26  27
ATOM     27  C   UNK A   1       6.070   0.368  24.653  0.00  0.00    +0.225 C 
BRANCH  27  28
ATOM     28  O   UNK A   1       6.237   0.065  23.279  0.00  0.00    -0.385 OA
ATOM     29  H   UNK A   1       7.013   0.561  22.971  0.00  0.00    +0.211 HD
ENDBRANCH  27  28
ENDBRANCH  26  27
ENDBRANCH  25  26
ENDBRANCH   1  25
TORSDOF 15
ENDMDL
MODEL 2
REMARK VINA RESULT:      -5.2      1.724      2.617
REMARK  Name = 
REMARK  15 active torsions:
REMARK  status: ('A' for Active; 'I' for Inactive)
REMARK    1  A    between atoms: N_1  and  C_2
REMARK    2  A    between atoms: C_2  and  C_4
REMARK    3  A    between atoms: C_2  and  C_22
REMARK    4  A    between atoms: C_4  and  C_5
REMARK    5  A    between atoms: C_5  and  C_6
REMARK    6  A    between atoms: N_8  and  C_9
REMARK    7  A    between atoms: C_9  and  C_11
REMARK    8  A    between atoms: C_9  and  C_15
REMARK    9  A    between atoms: C_11  and  S_12
REMARK   10  A    between atoms: S_12  and  C_13
REMARK   11  A    between atoms: C_13  and  O_14
REMARK   12  A    between atoms: N_17  and  CA_18
REMARK   13  A    between atoms: CA_18  and  C_19
REMARK   14  A    between atoms: C_19  and  O_20
REMARK   15  A    between atoms: C_22  and  O_23
REMARK                            x       y       z     vdW  Elec       q    Type
REMARK                         _______ _______ _______ _____ _____    ______ ____
ROOT
ATOM      1  C   UNK A   1       8.597  -2.823  24.153  0.00  0.00    +0.169 C 
ENDROOT
BRANCH   1   3
ATOM      2  C   UNK A   1       7.809  -4.847  22.893  0.00  0.00    +0.214 C 
ATOM      3  N   UNK A   1       7.825  -3.491  23.092  0.00  0.00    -0.303 N 
ATOM      4  H   UNK A   1       7.320  -2.890  22.452  0.00  0.00    +0.149 HD
ATOM      5  O   UNK A   1       8.483  -5.647  23.527  0.00  0.00    -0.276 OA
BRANCH   2   6
ATOM      6  C   UNK A   1       6.926  -5.298  21.748  0.00  0.00    +0.098 C 
BRANCH   6   7
ATOM      7  C   UNK A   1       5.880  -6.349  22.140  0.00  0.00    +0.039 C 
BRANCH   7   8
ATOM      8  C   UNK A   1       5.105  -6.108  23.445  0.00  0.00    +0.161 C 
BRANCH   8   9
ATOM      9  N   UNK A   1       4.428  -7.319  23.973  0.00  0.00    -0.318 NA
ATOM     10  H   UNK A   1       3.417  -7.258  23.831  0.00  0.00    +0.119 HD
ATOM     11  H   UNK A   1       4.713  -8.115  23.392  0.00  0.00    +0.119 HD
ENDBRANCH   8   9
BRANCH   8  12
ATOM     12  C   UNK A   1       4.080  -4.965  23.330  0.00  0.00    +0.322 C 
ATOM     13  O   UNK A   1       2.927  -5.095  22.934  0.00  0.00    -0.249 OA
BRANCH  12  14
ATOM     14  O   UNK A   1       4.590  -3.777  23.723  0.00  0.00    -0.480 OA
ATOM     15  H   UNK A   1       4.241  -3.615  24.637  0.00  0.00    +0.295 HD
ENDBRANCH  12  14
ENDBRANCH   8  12
ENDBRANCH   7   8
ENDBRANCH   6   7
ENDBRANCH   2   6
ENDBRANCH   1   3
BRANCH   1  16
ATOM     16  C   UNK A   1       9.349  -1.648  23.478  0.00  0.00    +0.235 C 
ATOM     17  N   GLY A   2       8.925  -1.356  22.197  0.00  0.00    -0.303 N 
ATOM     18  H   GLY A   2       8.463  -2.121  21.706  0.00  0.00    +0.149 HD
ATOM     19  O   UNK A   1      10.261  -1.027  24.019  0.00  0.00    -0.274 OA
BRANCH  17  20
ATOM     20  CA  GLY A   2       9.531  -0.246  21.477  0.00  0.00    +0.224 C 
BRANCH  20  21
ATOM     21  C   GLY A   2       8.961   1.162  21.653  0.00  0.00    +0.322 C 
ATOM     22  OXT GLY A   2       7.785   1.368  21.930  0.00  0.00    -0.249 OA
BRANCH  21  23
ATOM     23  O   GLY A   2       9.822   2.184  21.479  0.00  0.00    -0.480 OA
ATOM     24  H   GLY A   2      10.692   2.087  21.925  0.00  0.00    +0.295 HD
ENDBRANCH  21  23
ENDBRANCH  20  21
ENDBRANCH  17  20
ENDBRANCH   1  16
BRANCH   1  25
ATOM     25  C   UNK A   1       7.731  -2.251  25.293  0.00  0.00    +0.103 C 
BRANCH  25  26
ATOM     26  S   UNK A   1       7.079  -3.441  26.518  0.00  0.00    -0.131 S 
BRANCH  26  27
ATOM     27  C   UNK A   1       8.528  -4.502  26.725  0.00  0.00    +0.225 C 
BRANCH  27  28
ATOM     28  O   UNK A   1       8.200  -5.866  26.524  0.00  0.00    -0.385 OA
ATOM     29  H   UNK A   1       7.399  -6.045  27.042  0.00  0.00    +0.211 HD
ENDBRANCH  27  28
ENDBRANCH  26  27
ENDBRANCH  25  26
ENDBRANCH   1  25
TORSDOF 15
ENDMDL
MODEL 3
REMARK VINA RESULT:      -5.2      2.517      6.116
REMARK  Name = 
REMARK  15 active torsions:
REMARK  status: ('A' for Active; 'I' for Inactive)
REMARK    1  A    between atoms: N_1  and  C_2
REMARK    2  A    between atoms: C_2  and  C_4
REMARK    3  A    between atoms: C_2  and  C_22
REMARK    4  A    between atoms: C_4  and  C_5
REMARK    5  A    between atoms: C_5  and  C_6
REMARK    6  A    between atoms: N_8  and  C_9
REMARK    7  A    between atoms: C_9  and  C_11
REMARK    8  A    between atoms: C_9  and  C_15
REMARK    9  A    between atoms: C_11  and  S_12
REMARK   10  A    between atoms: S_12  and  C_13
REMARK   11  A    between atoms: C_13  and  O_14
REMARK   12  A    between atoms: N_17  and  CA_18
REMARK   13  A    between atoms: CA_18  and  C_19
REMARK   14  A    between atoms: C_19  and  O_20
REMARK   15  A    between atoms: C_22  and  O_23
REMARK                            x       y       z     vdW  Elec       q    Type
REMARK                         _______ _______ _______ _____ _____    ______ ____
ROOT
ATOM      1  C   UNK A   1       8.304  -3.044  22.760  0.00  0.00    +0.169 C 
ENDROOT
BRANCH   1   3
ATOM      2  C   UNK A   1       9.812  -1.080  22.341  0.00  0.00    +0.214 C 
ATOM      3  N   UNK A   1       8.583  -1.602  22.649  0.00  0.00    -0.303 N 
ATOM      4  H   UNK A   1       7.818  -0.974  22.865  0.00  0.00    +0.149 HD
ATOM      5  O   UNK A   1      10.828  -1.745  22.189  0.00  0.00    -0.276 OA
BRANCH   2   6
ATOM      6  C   UNK A   1       9.847   0.432  22.269  0.00  0.00    +0.098 C 
BRANCH   6   7
ATOM      7  C   UNK A   1       8.847   1.036  21.274  0.00  0.00    +0.039 C 
BRANCH   7   8
ATOM      8  C   UNK A   1       7.846   2.062  21.829  0.00  0.00    +0.161 C 
BRANCH   8   9
ATOM      9  N   UNK A   1       8.458   3.368  22.179  0.00  0.00    -0.318 NA
ATOM     10  H   UNK A   1       8.140   3.680  23.100  0.00  0.00    +0.119 HD
ATOM     11  H   UNK A   1       9.466   3.218  22.301  0.00  0.00    +0.119 HD
ENDBRANCH   8   9
BRANCH   8  12
ATOM     12  C   UNK A   1       7.055   1.533  23.039  0.00  0.00    +0.322 C 
ATOM     13  O   UNK A   1       7.050   2.048  24.152  0.00  0.00    -0.249 OA
BRANCH  12  14
ATOM     14  O   UNK A   1       6.348   0.420  22.744  0.00  0.00    -0.480 OA
ATOM     15  H   UNK A   1       6.500   0.244  21.780  0.00  0.00    +0.295 HD
ENDBRANCH  12  14
ENDBRANCH   8  12
ENDBRANCH   7   8
ENDBRANCH   6   7
ENDBRANCH   2   6
ENDBRANCH   1   3
BRANCH   1  16
ATOM     16  C   UNK A   1       8.738  -3.469  24.185  0.00  0.00    +0.235 C 
ATOM     17  N   GLY A   2       7.818  -3.183  25.174  0.00  0.00    -0.303 N 
ATOM     18  H   GLY A   2       7.162  -2.432  24.956  0.00  0.00    +0.149 HD
ATOM     19  O   UNK A   1       9.815  -4.004  24.434  0.00  0.00    -0.274 OA
BRANCH  17  20
ATOM     20  CA  GLY A   2       8.099  -3.571  26.549  0.00  0.00    +0.224 C 
BRANCH  20  21
ATOM     21  C   GLY A   2       7.748  -4.985  27.013  0.00  0.00    +0.322 C 
ATOM     22  OXT GLY A   2       6.977  -5.203  27.939  0.00  0.00    -0.249 OA
BRANCH  21  23
ATOM     23  O   GLY A   2       8.343  -5.998  26.353  0.00  0.00    -0.480 OA
ATOM     24  H   GLY A   2       7.907  -6.875  26.436  0.00  0.00    +0.295 HD
ENDBRANCH  21  23
ENDBRANCH  20  21
ENDBRANCH  17  20
ENDBRANCH   1  16
BRANCH   1  25
ATOM     25  C   UNK A   1       6.817  -3.410  22.578  0.00  0.00    +0.103 C 
BRANCH  25  26
ATOM     26  S   UNK A   1       6.448  -5.002  21.760  0.00  0.00    -0.131 S 
BRANCH  26  27
ATOM     27  C   UNK A   1       5.412  -5.771  23.028  0.00  0.00    +0.225 C 
BRANCH  27  28
ATOM     28  O   UNK A   1       5.996  -5.647  24.313  0.00  0.00    -0.385 OA
ATOM     29  H   UNK A   1       5.284  -5.405  24.926  0.00  0.00    +0.211 HD
ENDBRANCH  27  28
ENDBRANCH  26  27
ENDBRANCH  25  26
ENDBRANCH   1  25
TORSDOF 15
ENDMDL
MODEL 4
REMARK VINA RESULT:      -5.1      2.867      6.414
REMARK  Name = 
REMARK  15 active torsions:
REMARK  status: ('A' for Active; 'I' for Inactive)
REMARK    1  A    between atoms: N_1  and  C_2
REMARK    2  A    between atoms: C_2  and  C_4
REMARK    3  A    between atoms: C_2  and  C_22
REMARK    4  A    between atoms: C_4  and  C_5
REMARK    5  A    between atoms: C_5  and  C_6
REMARK    6  A    between atoms: N_8  and  C_9
REMARK    7  A    between atoms: C_9  and  C_11
REMARK    8  A    between atoms: C_9  and  C_15
REMARK    9  A    between atoms: C_11  and  S_12
REMARK   10  A    between atoms: S_12  and  C_13
REMARK   11  A    between atoms: C_13  and  O_14
REMARK   12  A    between atoms: N_17  and  CA_18
REMARK   13  A    between atoms: CA_18  and  C_19
REMARK   14  A    between atoms: C_19  and  O_20
REMARK   15  A    between atoms: C_22  and  O_23
REMARK                            x       y       z     vdW  Elec       q    Type
REMARK                         _______ _______ _______ _____ _____    ______ ____
ROOT
ATOM      1  C   UNK A   1       8.053  -3.089  22.613  0.00  0.00    +0.169 C 
ENDROOT
BRANCH   1   3
ATOM      2  C   UNK A   1       9.487  -1.153  21.907  0.00  0.00    +0.214 C 
ATOM      3  N   UNK A   1       8.257  -1.710  22.140  0.00  0.00    -0.303 N 
ATOM      4  H   UNK A   1       7.426  -1.140  22.034  0.00  0.00    +0.149 HD
ATOM      5  O   UNK A   1      10.553  -1.711  22.127  0.00  0.00    -0.276 OA
BRANCH   2   6
ATOM      6  C   UNK A   1       9.439   0.277  21.408  0.00  0.00    +0.098 C 
BRANCH   6   7
ATOM      7  C   UNK A   1       9.935   1.312  22.426  0.00  0.00    +0.039 C 
BRANCH   7   8
ATOM      8  C   UNK A   1       9.331   1.246  23.838  0.00  0.00    +0.161 C 
BRANCH   8   9
ATOM      9  N   UNK A   1       8.875   2.559  24.357  0.00  0.00    -0.318 NA
ATOM     10  H   UNK A   1       8.371   2.443  25.240  0.00  0.00    +0.119 HD
ATOM     11  H   UNK A   1       9.707   3.100  24.616  0.00  0.00    +0.119 HD
ENDBRANCH   8   9
BRANCH   8  12
ATOM     12  C   UNK A   1      10.278   0.598  24.863  0.00  0.00    +0.322 C 
ATOM     13  O   UNK A   1      11.502   0.579  24.773  0.00  0.00    -0.249 OA
BRANCH  12  14
ATOM     14  O   UNK A   1       9.612   0.042  25.899  0.00  0.00    -0.480 OA
ATOM     15  H   UNK A   1      10.275  -0.063  26.629  0.00  0.00    +0.295 HD
ENDBRANCH  12  14
ENDBRANCH   8  12
ENDBRANCH   7   8
ENDBRANCH   6   7
ENDBRANCH   2   6
ENDBRANCH   1   3
BRANCH   1  16
ATOM     16  C   UNK A   1       8.086  -3.034  24.162  0.00  0.00    +0.235 C 
ATOM     17  N   GLY A   2       8.508  -4.201  24.767  0.00  0.00    -0.303 N 
ATOM     18  H   GLY A   2       8.398  -5.047  24.209  0.00  0.00    +0.149 HD
ATOM     19  O   UNK A   1       7.753  -2.048  24.812  0.00  0.00    -0.274 OA
BRANCH  17  20
ATOM     20  CA  GLY A   2       8.618  -4.256  26.218  0.00  0.00    +0.224 C 
BRANCH  20  21
ATOM     21  C   GLY A   2       7.480  -4.873  27.032  0.00  0.00    +0.322 C 
ATOM     22  OXT GLY A   2       6.364  -4.372  27.091  0.00  0.00    -0.249 OA
BRANCH  21  23
ATOM     23  O   GLY A   2       7.767  -6.008  27.700  0.00  0.00    -0.480 OA
ATOM     24  H   GLY A   2       6.994  -6.558  27.957  0.00  0.00    +0.295 HD
ENDBRANCH  21  23
ENDBRANCH  20  21
ENDBRANCH  17  20
ENDBRANCH   1  16
BRANCH   1  25
ATOM     25  C   UNK A   1       6.710  -3.708  22.180  0.00  0.00    +0.103 C 
BRANCH  25  26
ATOM     26  S   UNK A   1       6.699  -5.499  21.816  0.00  0.00    -0.131 S 
BRANCH  26  27
ATOM     27  C   UNK A   1       5.437  -6.049  22.989  0.00  0.00    +0.225 C 
BRANCH  27  28
ATOM     28  O   UNK A   1       5.780  -5.690  24.317  0.00  0.00    -0.385 OA
ATOM     29  H   UNK A   1       5.415  -4.804  24.475  0.00  0.00    +0.211 HD
ENDBRANCH  27  28
ENDBRANCH  26  27
ENDBRANCH  25  26
ENDBRANCH   1  25
TORSDOF 15
ENDMDL
MODEL 5
REMARK VINA RESULT:      -5.0      2.848      6.717
REMARK  Name = 
REMARK  15 active torsions:
REMARK  status: ('A' for Active; 'I' for Inactive)
REMARK    1  A    between atoms: N_1  and  C_2
REMARK    2  A    between atoms: C_2  and  C_4
REMARK    3  A    between atoms: C_2  and  C_22
REMARK    4  A    between atoms: C_4  and  C_5
REMARK    5  A    between atoms: C_5  and  C_6
REMARK    6  A    between atoms: N_8  and  C_9
REMARK    7  A    between atoms: C_9  and  C_11
REMARK    8  A    between atoms: C_9  and  C_15
REMARK    9  A    between atoms: C_11  and  S_12
REMARK   10  A    between atoms: S_12  and  C_13
REMARK   11  A    between atoms: C_13  and  O_14
REMARK   12  A    between atoms: N_17  and  CA_18
REMARK   13  A    between atoms: CA_18  and  C_19
REMARK   14  A    between atoms: C_19  and  O_20
REMARK   15  A    between atoms: C_22  and  O_23
REMARK                            x       y       z     vdW  Elec       q    Type
REMARK                         _______ _______ _______ _____ _____    ______ ____
ROOT
ATOM      1  C   UNK A   1       8.137  -4.456  24.396  0.00  0.00    +0.169 C 
ENDROOT
BRANCH   1   3
ATOM      2  C   UNK A   1       9.564  -2.404  24.143  0.00  0.00    +0.214 C 
ATOM      3  N   UNK A   1       8.495  -3.059  24.697  0.00  0.00    -0.303 N 
ATOM      4  H   UNK A   1       7.932  -2.588  25.396  0.00  0.00    +0.149 HD
ATOM      5  O   UNK A   1      10.378  -2.922  23.391  0.00  0.00    -0.276 OA
BRANCH   2   6
ATOM      6  C   UNK A   1       9.717  -0.967  24.597  0.00  0.00    +0.098 C 
BRANCH   6   7
ATOM      7  C   UNK A   1      10.122   0.003  23.480  0.00  0.00    +0.039 C 
BRANCH   7   8
ATOM      8  C   UNK A   1       9.212   0.060  22.243  0.00  0.00    +0.161 C 
BRANCH   8   9
ATOM      9  N   UNK A   1       9.673  -0.795  21.120  0.00  0.00    -0.318 NA
ATOM     10  H   UNK A   1       9.801  -0.239  20.272  0.00  0.00    +0.119 HD
ATOM     11  H   UNK A   1      10.619  -1.125  21.345  0.00  0.00    +0.119 HD
ENDBRANCH   8   9
BRANCH   8  12
ATOM     12  C   UNK A   1       8.991   1.493  21.729  0.00  0.00    +0.322 C 
ATOM     13  O   UNK A   1       7.896   1.989  21.485  0.00  0.00    -0.249 OA
BRANCH  12  14
ATOM     14  O   UNK A   1      10.151   2.167  21.572  0.00  0.00    -0.480 OA
ATOM     15  H   UNK A   1      10.417   2.473  22.477  0.00  0.00    +0.295 HD
ENDBRANCH  12  14
ENDBRANCH   8  12
ENDBRANCH   7   8
ENDBRANCH   6   7
ENDBRANCH   2   6
ENDBRANCH   1   3
BRANCH   1  16
ATOM     16  C   UNK A   1       7.592  -5.066  25.712  0.00  0.00    +0.235 C 
ATOM     17  N   GLY A   2       6.265  -4.784  25.968  0.00  0.00    -0.303 N 
ATOM     18  H   GLY A   2       5.899  -3.951  25.508  0.00  0.00    +0.149 HD
ATOM     19  O   UNK A   1       8.276  -5.734  26.484  0.00  0.00    -0.274 OA
BRANCH  17  20
ATOM     20  CA  GLY A   2       5.631  -5.337  27.156  0.00  0.00    +0.224 C 
BRANCH  20  21
ATOM     21  C   GLY A   2       5.030  -6.741  27.100  0.00  0.00    +0.322 C 
ATOM     22  OXT GLY A   2       4.359  -7.135  26.154  0.00  0.00    -0.249 OA
BRANCH  21  23
ATOM     23  O   GLY A   2       5.268  -7.538  28.161  0.00  0.00    -0.480 OA
ATOM     24  H   GLY A   2       5.896  -7.183  28.828  0.00  0.00    +0.295 HD
ENDBRANCH  21  23
ENDBRANCH  20  21
ENDBRANCH  17  20
ENDBRANCH   1  16
BRANCH   1  25
ATOM     25  C   UNK A   1       7.054  -4.605  23.309  0.00  0.00    +0.103 C 
BRANCH  25  26
ATOM     26  S   UNK A   1       7.088  -6.131  22.305  0.00  0.00    -0.131 S 
BRANCH  26  27
ATOM     27  C   UNK A   1       6.188  -5.563  20.843  0.00  0.00    +0.225 C 
BRANCH  27  28
ATOM     28  O   UNK A   1       5.642  -4.271  21.046  0.00  0.00    -0.385 OA
ATOM     29  H   UNK A   1       5.023  -4.106  20.316  0.00  0.00    +0.211 HD
ENDBRANCH  27  28
ENDBRANCH  26  27
ENDBRANCH  25  26
ENDBRANCH   1  25
TORSDOF 15
ENDMDL
MODEL 6
REMARK VINA RESULT:      -5.0      2.306      5.175
REMARK  Name = 
REMARK  15 active torsions:
REMARK  status: ('A' for Active; 'I' for Inactive)
REMARK    1  A    between atoms: N_1  and  C_2
REMARK    2  A    between atoms: C_2  and  C_4
REMARK    3  A    between atoms: C_2  and  C_22
REMARK    4  A    between atoms: C_4  and  C_5
REMARK    5  A    between atoms: C_5  and  C_6
REMARK    6  A    between atoms: N_8  and  C_9
REMARK    7  A    between atoms: C_9  and  C_11
REMARK    8  A    between atoms: C_9  and  C_15
REMARK    9  A    between atoms: C_11  and  S_12
REMARK   10  A    between atoms: S_12  and  C_13
REMARK   11  A    between atoms: C_13  and  O_14
REMARK   12  A    between atoms: N_17  and  CA_18
REMARK   13  A    between atoms: CA_18  and  C_19
REMARK   14  A    between atoms: C_19  and  O_20
REMARK   15  A    between atoms: C_22  and  O_23
REMARK                            x       y       z     vdW  Elec       q    Type
REMARK                         _______ _______ _______ _____ _____    ______ ____
ROOT
ATOM      1  C   UNK A   1       8.838  -3.119  23.957  0.00  0.00    +0.169 C 
ENDROOT
BRANCH   1   3
ATOM      2  C   UNK A   1       9.734  -1.452  22.307  0.00  0.00    +0.214 C 
ATOM      3  N   UNK A   1       8.715  -1.942  23.081  0.00  0.00    -0.303 N 
ATOM      4  H   UNK A   1       7.829  -1.451  23.103  0.00  0.00    +0.149 HD
ATOM      5  O   UNK A   1      10.876  -1.892  22.306  0.00  0.00    -0.276 OA
BRANCH   2   6
ATOM      6  C   UNK A   1       9.360  -0.241  21.477  0.00  0.00    +0.098 C 
BRANCH   6   7
ATOM      7  C   UNK A   1       9.764   1.098  22.105  0.00  0.00    +0.039 C 
BRANCH   7   8
ATOM      8  C   UNK A   1       8.887   1.623  23.254  0.00  0.00    +0.161 C 
BRANCH   8   9
ATOM      9  N   UNK A   1       9.221   1.040  24.577  0.00  0.00    -0.318 NA
ATOM     10  H   UNK A   1       8.968   0.050  24.610  0.00  0.00    +0.119 HD
ATOM     11  H   UNK A   1      10.243   1.038  24.669  0.00  0.00    +0.119 HD
ENDBRANCH   8   9
BRANCH   8  12
ATOM     12  C   UNK A   1       7.383   1.443  22.987  0.00  0.00    +0.322 C 
ATOM     13  O   UNK A   1       6.676   0.585  23.506  0.00  0.00    -0.249 OA
BRANCH  12  14
ATOM     14  O   UNK A   1       6.905   2.349  22.106  0.00  0.00    -0.480 OA
ATOM     15  H   UNK A   1       6.174   2.829  22.572  0.00  0.00    +0.295 HD
ENDBRANCH  12  14
ENDBRANCH   8  12
ENDBRANCH   7   8
ENDBRANCH   6   7
ENDBRANCH   2   6
ENDBRANCH   1   3
BRANCH   1  16
ATOM     16  C   UNK A   1       8.351  -2.678  25.361  0.00  0.00    +0.235 C 
ATOM     17  N   GLY A   2       7.515  -1.579  25.357  0.00  0.00    -0.303 N 
ATOM     18  H   GLY A   2       7.596  -0.971  24.542  0.00  0.00    +0.149 HD
ATOM     19  O   UNK A   1       8.684  -3.238  26.401  0.00  0.00    -0.274 OA
BRANCH  17  20
ATOM     20  CA  GLY A   2       6.961  -1.096  26.614  0.00  0.00    +0.224 C 
BRANCH  20  21
ATOM     21  C   GLY A   2       7.746  -0.071  27.433  0.00  0.00    +0.322 C 
ATOM     22  OXT GLY A   2       7.231   0.939  27.896  0.00  0.00    -0.249 OA
BRANCH  21  23
ATOM     23  O   GLY A   2       9.057  -0.328  27.618  0.00  0.00    -0.480 OA
ATOM     24  H   GLY A   2       9.587   0.411  27.988  0.00  0.00    +0.295 HD
ENDBRANCH  21  23
ENDBRANCH  20  21
ENDBRANCH  17  20
ENDBRANCH   1  16
BRANCH   1  25
ATOM     25  C   UNK A   1       7.991  -4.326  23.509  0.00  0.00    +0.103 C 
BRANCH  25  26
ATOM     26  S   UNK A   1       6.901  -4.084  22.062  0.00  0.00    -0.131 S 
BRANCH  26  27
ATOM     27  C   UNK A   1       5.461  -3.351  22.874  0.00  0.00    +0.225 C 
BRANCH  27  28
ATOM     28  O   UNK A   1       5.640  -1.960  23.078  0.00  0.00    -0.385 OA
ATOM     29  H   UNK A   1       6.156  -1.627  22.327  0.00  0.00    +0.211 HD
ENDBRANCH  27  28
ENDBRANCH  26  27
ENDBRANCH  25  26
ENDBRANCH   1  25
TORSDOF 15
ENDMDL
MODEL 7
REMARK VINA RESULT:      -5.0      2.228      5.921
REMARK  Name = 
REMARK  15 active torsions:
REMARK  status: ('A' for Active; 'I' for Inactive)
REMARK    1  A    between atoms: N_1  and  C_2
REMARK    2  A    between atoms: C_2  and  C_4
REMARK    3  A    between atoms: C_2  and  C_22
REMARK    4  A    between atoms: C_4  and  C_5
REMARK    5  A    between atoms: C_5  and  C_6
REMARK    6  A    between atoms: N_8  and  C_9
REMARK    7  A    between atoms: C_9  and  C_11
REMARK    8  A    between atoms: C_9  and  C_15
REMARK    9  A    between atoms: C_11  and  S_12
REMARK   10  A    between atoms: S_12  and  C_13
REMARK   11  A    between atoms: C_13  and  O_14
REMARK   12  A    between atoms: N_17  and  CA_18
REMARK   13  A    between atoms: CA_18  and  C_19
REMARK   14  A    between atoms: C_19  and  O_20
REMARK   15  A    between atoms: C_22  and  O_23
REMARK                            x       y       z     vdW  Elec       q    Type
REMARK                         _______ _______ _______ _____ _____    ______ ____
ROOT
ATOM      1  C   UNK A   1       8.365  -2.616  24.559  0.00  0.00    +0.169 C 
ENDROOT
BRANCH   1   3
ATOM      2  C   UNK A   1       9.395  -0.446  25.289  0.00  0.00    +0.214 C 
ATOM      3  N   UNK A   1       9.020  -1.322  24.305  0.00  0.00    -0.303 N 
ATOM      4  H   UNK A   1       9.148  -1.061  23.334  0.00  0.00    +0.149 HD
ATOM      5  O   UNK A   1       9.170  -0.606  26.481  0.00  0.00    -0.276 OA
BRANCH   2   6
ATOM      6  C   UNK A   1      10.067   0.813  24.780  0.00  0.00    +0.098 C 
BRANCH   6   7
ATOM      7  C   UNK A   1       9.089   1.911  24.343  0.00  0.00    +0.039 C 
BRANCH   7   8
ATOM      8  C   UNK A   1       8.474   1.778  22.940  0.00  0.00    +0.161 C 
BRANCH   8   9
ATOM      9  N   UNK A   1       7.277   0.902  22.892  0.00  0.00    -0.318 NA
ATOM     10  H   UNK A   1       6.422   1.453  22.996  0.00  0.00    +0.119 HD
ATOM     11  H   UNK A   1       7.210   0.516  21.943  0.00  0.00    +0.119 HD
ENDBRANCH   8   9
BRANCH   8  12
ATOM     12  C   UNK A   1       9.489   1.306  21.884  0.00  0.00    +0.322 C 
ATOM     13  O   UNK A   1       9.531   0.177  21.407  0.00  0.00    -0.249 OA
BRANCH  12  14
ATOM     14  O   UNK A   1      10.348   2.285  21.524  0.00  0.00    -0.480 OA
ATOM     15  H   UNK A   1      10.102   2.540  20.597  0.00  0.00    +0.295 HD
ENDBRANCH  12  14
ENDBRANCH   8  12
ENDBRANCH   7   8
ENDBRANCH   6   7
ENDBRANCH   2   6
ENDBRANCH   1   3
BRANCH   1  16
ATOM     16  C   UNK A   1       7.611  -2.992  23.258  0.00  0.00    +0.235 C 
ATOM     17  N   GLY A   2       7.613  -4.341  22.964  0.00  0.00    -0.303 N 
ATOM     18  H   GLY A   2       8.373  -4.877  23.382  0.00  0.00    +0.149 HD
ATOM     19  O   UNK A   1       7.065  -2.168  22.529  0.00  0.00    -0.274 OA
BRANCH  17  20
ATOM     20  CA  GLY A   2       6.903  -4.819  21.787  0.00  0.00    +0.224 C 
BRANCH  20  21
ATOM     21  C   GLY A   2       5.706  -5.753  21.963  0.00  0.00    +0.322 C 
ATOM     22  OXT GLY A   2       5.136  -5.901  23.037  0.00  0.00    -0.249 OA
BRANCH  21  23
ATOM     23  O   GLY A   2       5.303  -6.426  20.865  0.00  0.00    -0.480 OA
ATOM     24  H   GLY A   2       5.892  -7.156  20.574  0.00  0.00    +0.295 HD
ENDBRANCH  21  23
ENDBRANCH  20  21
ENDBRANCH  17  20
ENDBRANCH   1  16
BRANCH   1  25
ATOM     25  C   UNK A   1       9.344  -3.758  24.897  0.00  0.00    +0.103 C 
BRANCH  25  26
ATOM     26  S   UNK A   1       9.040  -4.681  26.445  0.00  0.00    -0.131 S 
BRANCH  26  27
ATOM     27  C   UNK A   1       7.237  -4.575  26.523  0.00  0.00    +0.225 C 
BRANCH  27  28
ATOM     28  O   UNK A   1       6.629  -5.500  25.638  0.00  0.00    -0.385 OA
ATOM     29  H   UNK A   1       7.173  -6.304  25.650  0.00  0.00    +0.211 HD
ENDBRANCH  27  28
ENDBRANCH  26  27
ENDBRANCH  25  26
ENDBRANCH   1  25
TORSDOF 15
ENDMDL
MODEL 8
REMARK VINA RESULT:      -5.0      2.827      5.956
REMARK  Name = 
REMARK  15 active torsions:
REMARK  status: ('A' for Active; 'I' for Inactive)
REMARK    1  A    between atoms: N_1  and  C_2
REMARK    2  A    between atoms: C_2  and  C_4
REMARK    3  A    between atoms: C_2  and  C_22
REMARK    4  A    between atoms: C_4  and  C_5
REMARK    5  A    between atoms: C_5  and  C_6
REMARK    6  A    between atoms: N_8  and  C_9
REMARK    7  A    between atoms: C_9  and  C_11
REMARK    8  A    between atoms: C_9  and  C_15
REMARK    9  A    between atoms: C_11  and  S_12
REMARK   10  A    between atoms: S_12  and  C_13
REMARK   11  A    between atoms: C_13  and  O_14
REMARK   12  A    between atoms: N_17  and  CA_18
REMARK   13  A    between atoms: CA_18  and  C_19
REMARK   14  A    between atoms: C_19  and  O_20
REMARK   15  A    between atoms: C_22  and  O_23
REMARK                            x       y       z     vdW  Elec       q    Type
REMARK                         _______ _______ _______ _____ _____    ______ ____
ROOT
ATOM      1  C   UNK A   1       7.929  -3.125  22.665  0.00  0.00    +0.169 C 
ENDROOT
BRANCH   1   3
ATOM      2  C   UNK A   1       9.525  -1.286  22.050  0.00  0.00    +0.214 C 
ATOM      3  N   UNK A   1       8.252  -1.783  22.151  0.00  0.00    -0.303 N 
ATOM      4  H   UNK A   1       7.467  -1.190  21.908  0.00  0.00    +0.149 HD
ATOM      5  O   UNK A   1      10.529  -1.870  22.435  0.00  0.00    -0.276 OA
BRANCH   2   6
ATOM      6  C   UNK A   1       9.604   0.113  21.475  0.00  0.00    +0.098 C 
BRANCH   6   7
ATOM      7  C   UNK A   1       8.649   1.116  22.135  0.00  0.00    +0.039 C 
BRANCH   7   8
ATOM      8  C   UNK A   1       9.270   2.137  23.102  0.00  0.00    +0.161 C 
BRANCH   8   9
ATOM      9  N   UNK A   1      10.507   2.775  22.587  0.00  0.00    -0.318 NA
ATOM     10  H   UNK A   1      11.168   2.067  22.259  0.00  0.00    +0.119 HD
ATOM     11  H   UNK A   1      10.260   3.297  21.739  0.00  0.00    +0.119 HD
ENDBRANCH   8   9
BRANCH   8  12
ATOM     12  C   UNK A   1       9.547   1.548  24.496  0.00  0.00    +0.322 C 
ATOM     13  O   UNK A   1      10.473   0.789  24.765  0.00  0.00    -0.249 OA
BRANCH  12  14
ATOM     14  O   UNK A   1       8.651   1.963  25.418  0.00  0.00    -0.480 OA
ATOM     15  H   UNK A   1       8.825   2.930  25.556  0.00  0.00    +0.295 HD
ENDBRANCH  12  14
ENDBRANCH   8  12
ENDBRANCH   7   8
ENDBRANCH   6   7
ENDBRANCH   2   6
ENDBRANCH   1   3
BRANCH   1  16
ATOM     16  C   UNK A   1       7.576  -2.950  24.164  0.00  0.00    +0.235 C 
ATOM     17  N   GLY A   2       8.650  -2.635  24.972  0.00  0.00    -0.303 N 
ATOM     18  H   GLY A   2       9.564  -2.904  24.609  0.00  0.00    +0.149 HD
ATOM     19  O   UNK A   1       6.442  -3.093  24.614  0.00  0.00    -0.274 OA
BRANCH  17  20
ATOM     20  CA  GLY A   2       8.434  -2.408  26.394  0.00  0.00    +0.224 C 
BRANCH  20  21
ATOM     21  C   GLY A   2       8.247  -0.979  26.904  0.00  0.00    +0.322 C 
ATOM     22  OXT GLY A   2       7.187  -0.375  26.801  0.00  0.00    -0.249 OA
BRANCH  21  23
ATOM     23  O   GLY A   2       9.323  -0.401  27.475  0.00  0.00    -0.480 OA
ATOM     24  H   GLY A   2      10.196  -0.726  27.163  0.00  0.00    +0.295 HD
ENDBRANCH  21  23
ENDBRANCH  20  21
ENDBRANCH  17  20
ENDBRANCH   1  16
BRANCH   1  25
ATOM     25  C   UNK A   1       6.732  -3.794  21.961  0.00  0.00    +0.103 C 
BRANCH  25  26
ATOM     26  S   UNK A   1       6.741  -5.619  21.862  0.00  0.00    -0.131 S 
BRANCH  26  27
ATOM     27  C   UNK A   1       5.303  -5.995  22.892  0.00  0.00    +0.225 C 
BRANCH  27  28
ATOM     28  O   UNK A   1       5.612  -5.871  24.269  0.00  0.00    -0.385 OA
ATOM     29  H   UNK A   1       4.773  -5.724  24.736  0.00  0.00    +0.211 HD
ENDBRANCH  27  28
ENDBRANCH  26  27
ENDBRANCH  25  26
ENDBRANCH   1  25
TORSDOF 15
ENDMDL
MODEL 9
REMARK VINA RESULT:      -5.0      2.822      4.359
REMARK  Name = 
REMARK  15 active torsions:
REMARK  status: ('A' for Active; 'I' for Inactive)
REMARK    1  A    between atoms: N_1  and  C_2
REMARK    2  A    between atoms: C_2  and  C_4
REMARK    3  A    between atoms: C_2  and  C_22
REMARK    4  A    between atoms: C_4  and  C_5
REMARK    5  A    between atoms: C_5  and  C_6
REMARK    6  A    between atoms: N_8  and  C_9
REMARK    7  A    between atoms: C_9  and  C_11
REMARK    8  A    between atoms: C_9  and  C_15
REMARK    9  A    between atoms: C_11  and  S_12
REMARK   10  A    between atoms: S_12  and  C_13
REMARK   11  A    between atoms: C_13  and  O_14
REMARK   12  A    between atoms: N_17  and  CA_18
REMARK   13  A    between atoms: CA_18  and  C_19
REMARK   14  A    between atoms: C_19  and  O_20
REMARK   15  A    between atoms: C_22  and  O_23
REMARK                            x       y       z     vdW  Elec       q    Type
REMARK                         _______ _______ _______ _____ _____    ______ ____
ROOT
ATOM      1  C   UNK A   1       7.990  -3.727  26.112  0.00  0.00    +0.169 C 
ENDROOT
BRANCH   1   3
ATOM      2  C   UNK A   1       6.489  -5.287  27.386  0.00  0.00    +0.214 C 
ATOM      3  N   UNK A   1       6.672  -4.264  26.492  0.00  0.00    -0.303 N 
ATOM      4  H   UNK A   1       5.868  -3.872  26.016  0.00  0.00    +0.149 HD
ATOM      5  O   UNK A   1       7.397  -5.912  27.916  0.00  0.00    -0.276 OA
BRANCH   2   6
ATOM      6  C   UNK A   1       5.039  -5.652  27.626  0.00  0.00    +0.098 C 
BRANCH   6   7
ATOM      7  C   UNK A   1       4.621  -6.994  27.013  0.00  0.00    +0.039 C 
BRANCH   7   8
ATOM      8  C   UNK A   1       3.675  -6.943  25.802  0.00  0.00    +0.161 C 
BRANCH   8   9
ATOM      9  N   UNK A   1       3.082  -8.257  25.449  0.00  0.00    -0.318 NA
ATOM     10  H   UNK A   1       2.649  -8.690  26.268  0.00  0.00    +0.119 HD
ATOM     11  H   UNK A   1       2.296  -8.085  24.813  0.00  0.00    +0.119 HD
ENDBRANCH   8   9
BRANCH   8  12
ATOM     12  C   UNK A   1       4.335  -6.334  24.553  0.00  0.00    +0.322 C 
ATOM     13  O   UNK A   1       4.498  -5.133  24.361  0.00  0.00    -0.249 OA
BRANCH  12  14
ATOM     14  O   UNK A   1       4.731  -7.276  23.670  0.00  0.00    -0.480 OA
ATOM     15  H   UNK A   1       5.366  -7.862  24.157  0.00  0.00    +0.295 HD
ENDBRANCH  12  14
ENDBRANCH   8  12
ENDBRANCH   7   8
ENDBRANCH   6   7
ENDBRANCH   2   6
ENDBRANCH   1   3
BRANCH   1  16
ATOM     16  C   UNK A   1       8.335  -4.339  24.731  0.00  0.00    +0.235 C 
ATOM     17  N   GLY A   2       7.291  -4.341  23.828  0.00  0.00    -0.303 N 
ATOM     18  H   GLY A   2       6.358  -4.299  24.239  0.00  0.00    +0.149 HD
ATOM     19  O   UNK A   1       9.437  -4.804  24.452  0.00  0.00    -0.274 OA
BRANCH  17  20
ATOM     20  CA  GLY A   2       7.507  -4.856  22.484  0.00  0.00    +0.224 C 
BRANCH  20  21
ATOM     21  C   GLY A   2       6.319  -4.977  21.528  0.00  0.00    +0.322 C 
ATOM     22  OXT GLY A   2       5.920  -6.055  21.105  0.00  0.00    -0.249 OA
BRANCH  21  23
ATOM     23  O   GLY A   2       5.727  -3.824  21.159  0.00  0.00    -0.480 OA
ATOM     24  H   GLY A   2       5.100  -3.440  21.811  0.00  0.00    +0.295 HD
ENDBRANCH  21  23
ENDBRANCH  20  21
ENDBRANCH  17  20
ENDBRANCH   1  16
BRANCH   1  25
ATOM     25  C   UNK A   1       8.026  -2.191  25.982  0.00  0.00    +0.103 C 
BRANCH  25  26
ATOM     26  S   UNK A   1       6.421  -1.331  25.836  0.00  0.00    -0.131 S 
BRANCH  26  27
ATOM     27  C   UNK A   1       6.485  -0.844  24.095  0.00  0.00    +0.225 C 
BRANCH  27  28
ATOM     28  O   UNK A   1       5.836  -1.797  23.271  0.00  0.00    -0.385 OA
ATOM     29  H   UNK A   1       6.471  -2.058  22.585  0.00  0.00    +0.211 HD
ENDBRANCH  27  28
ENDBRANCH  26  27
ENDBRANCH  25  26
ENDBRANCH   1  25
TORSDOF 15
ENDMDL
