MODEL 1
REMARK VINA RESULT:      -7.1      0.000      0.000
REMARK  Name = 
REMARK  8 active torsions:
REMARK  status: ('A' for Active; 'I' for Inactive)
REMARK    1  A    between atoms: C_1  and  N_2
REMARK    2  A    between atoms: N_2  and  C_3
REMARK    3  A    between atoms: C_7  and  O_9
REMARK    4  A    between atoms: O_9  and  C_10
REMARK    5  A    between atoms: C_10  and  C_12
REMARK    6  A    between atoms: C_12  and  O_13
REMARK    7  A    between atoms: C_12  and  C_14
REMARK    8  A    between atoms: C_12  and  C_20
REMARK                            x       y       z     vdW  Elec       q    Type
REMARK                         _______ _______ _______ _____ _____    ______ ____
ROOT
ATOM      1  C   UNL     1       7.941  -4.527  24.747  0.00  0.00    +0.213 C 
ENDROOT
BRANCH   1   2
ATOM      2  C   UNL     1       7.348  -4.598  23.328  0.00  0.00    -0.001 A 
ATOM      3  C   UNL     1       7.530  -5.738  22.520  0.00  0.00    +0.007 A 
ATOM      4  C   UNL     1       6.873  -5.876  21.293  0.00  0.00    +0.000 A 
ATOM      5  C   UNL     1       6.036  -4.863  20.832  0.00  0.00    +0.000 A 
ATOM      6  C   UNL     1       5.874  -3.709  21.586  0.00  0.00    +0.000 A 
ATOM      7  C   UNL     1       6.521  -3.576  22.819  0.00  0.00    +0.007 A 
ENDBRANCH   1   2
BRANCH   1   8
ATOM      8  C   UNL     1       7.095  -5.216  25.827  0.00  0.00    -0.001 A 
ATOM      9  C   UNL     1       7.582  -5.361  27.141  0.00  0.00    +0.007 A 
ATOM     10  C   UNL     1       6.775  -5.885  28.155  0.00  0.00    +0.000 A 
ATOM     11  C   UNL     1       5.480  -6.307  27.869  0.00  0.00    +0.000 A 
ATOM     12  C   UNL     1       5.000  -6.231  26.565  0.00  0.00    +0.000 A 
ATOM     13  C   UNL     1       5.801  -5.699  25.553  0.00  0.00    +0.007 A 
ENDBRANCH   1   8
BRANCH   1  14
ATOM     14  C   UNL     1       8.211  -3.030  25.133  0.00  0.00    +0.349 C 
ATOM     15  O   UNL     1       7.518  -2.344  25.883  0.00  0.00    -0.247 OA
BRANCH  14  16
ATOM     16  O   UNL     1       9.356  -2.530  24.542  0.00  0.00    -0.453 OA
BRANCH  16  20
ATOM     17  C   UNL     1      10.590   2.231  23.918  0.00  0.00    +0.192 C 
ATOM     18  N   UNL     1       9.649   1.125  23.424  0.00  0.00    +0.242 N 
ATOM     19  C   UNL     1       9.831  -0.121  24.330  0.00  0.00    +0.178 C 
ATOM     20  C   UNL     1       9.098  -1.347  23.767  0.00  0.00    +0.222 C 
ATOM     21  C   UNL     1       9.567  -1.625  22.339  0.00  0.00    +0.055 C 
ATOM     22  C   UNL     1       9.311  -0.427  21.446  0.00  0.00    +0.055 C 
ATOM     23  C   UNL     1      10.023   0.812  21.966  0.00  0.00    +0.133 C 
ATOM     24  C   UNL     1       8.222   1.670  23.517  0.00  0.00    +0.192 C 
ENDBRANCH  16  20
ENDBRANCH  14  16
ENDBRANCH   1  14
BRANCH   1  25
ATOM     25  O   UNL     1       9.250  -5.152  24.727  0.00  0.00    -0.370 OA
ATOM     26  H   UNL     1       9.774  -4.707  25.415  0.00  0.00    +0.212 HD
ENDBRANCH   1  25
TORSDOF 6
ENDMDL
MODEL 2
REMARK VINA RESULT:      -7.1      3.070      7.775
REMARK  Name = 
REMARK  8 active torsions:
REMARK  status: ('A' for Active; 'I' for Inactive)
REMARK    1  A    between atoms: C_1  and  N_2
REMARK    2  A    between atoms: N_2  and  C_3
REMARK    3  A    between atoms: C_7  and  O_9
REMARK    4  A    between atoms: O_9  and  C_10
REMARK    5  A    between atoms: C_10  and  C_12
REMARK    6  A    between atoms: C_12  and  O_13
REMARK    7  A    between atoms: C_12  and  C_14
REMARK    8  A    between atoms: C_12  and  C_20
REMARK                            x       y       z     vdW  Elec       q    Type
REMARK                         _______ _______ _______ _____ _____    ______ ____
ROOT
ATOM      1  C   UNL     1       9.545   2.358  22.948  0.00  0.00    +0.213 C 
ENDROOT
BRANCH   1   2
ATOM      2  C   UNL     1      10.281   3.617  23.439  0.00  0.00    -0.001 A 
ATOM      3  C   UNL     1      11.654   3.805  23.178  0.00  0.00    +0.007 A 
ATOM      4  C   UNL     1      12.298   5.008  23.486  0.00  0.00    +0.000 A 
ATOM      5  C   UNL     1      11.589   6.044  24.086  0.00  0.00    +0.000 A 
ATOM      6  C   UNL     1      10.247   5.870  24.397  0.00  0.00    +0.000 A 
ATOM      7  C   UNL     1       9.600   4.672  24.079  0.00  0.00    +0.007 A 
ENDBRANCH   1   2
BRANCH   1   8
ATOM      8  C   UNL     1       8.019   2.410  23.105  0.00  0.00    -0.001 A 
ATOM      9  C   UNL     1       7.396   1.914  24.267  0.00  0.00    +0.007 A 
ATOM     10  C   UNL     1       6.020   2.060  24.465  0.00  0.00    +0.000 A 
ATOM     11  C   UNL     1       5.235   2.672  23.492  0.00  0.00    +0.000 A 
ATOM     12  C   UNL     1       5.820   3.112  22.309  0.00  0.00    +0.000 A 
ATOM     13  C   UNL     1       7.195   2.977  22.113  0.00  0.00    +0.007 A 
ENDBRANCH   1   8
BRANCH   1  14
ATOM     14  C   UNL     1      10.128   1.090  23.667  0.00  0.00    +0.349 C 
ATOM     15  O   UNL     1      10.622   1.064  24.793  0.00  0.00    -0.247 OA
BRANCH  14  16
ATOM     16  O   UNL     1      10.020  -0.052  22.894  0.00  0.00    -0.453 OA
BRANCH  16  20
ATOM     17  C   UNL     1       6.055  -2.957  22.249  0.00  0.00    +0.192 C 
ATOM     18  N   UNL     1       7.126  -2.538  23.263  0.00  0.00    +0.242 N 
ATOM     19  C   UNL     1       7.955  -1.376  22.658  0.00  0.00    +0.178 C 
ATOM     20  C   UNL     1       9.191  -1.051  23.510  0.00  0.00    +0.222 C 
ATOM     21  C   UNL     1      10.044  -2.306  23.690  0.00  0.00    +0.055 C 
ATOM     22  C   UNL     1       9.244  -3.409  24.355  0.00  0.00    +0.055 C 
ATOM     23  C   UNL     1       8.011  -3.765  23.541  0.00  0.00    +0.133 C 
ATOM     24  C   UNL     1       6.397  -2.091  24.533  0.00  0.00    +0.192 C 
ENDBRANCH  16  20
ENDBRANCH  14  16
ENDBRANCH   1  14
BRANCH   1  25
ATOM     25  O   UNL     1       9.851   2.167  21.543  0.00  0.00    -0.370 OA
ATOM     26  H   UNL     1       9.567   1.263  21.323  0.00  0.00    +0.212 HD
ENDBRANCH   1  25
TORSDOF 6
ENDMDL
MODEL 3
REMARK VINA RESULT:      -6.8      2.367      6.470
REMARK  Name = 
REMARK  8 active torsions:
REMARK  status: ('A' for Active; 'I' for Inactive)
REMARK    1  A    between atoms: C_1  and  N_2
REMARK    2  A    between atoms: N_2  and  C_3
REMARK    3  A    between atoms: C_7  and  O_9
REMARK    4  A    between atoms: O_9  and  C_10
REMARK    5  A    between atoms: C_10  and  C_12
REMARK    6  A    between atoms: C_12  and  O_13
REMARK    7  A    between atoms: C_12  and  C_14
REMARK    8  A    between atoms: C_12  and  C_20
REMARK                            x       y       z     vdW  Elec       q    Type
REMARK                         _______ _______ _______ _____ _____    ______ ____
ROOT
ATOM      1  C   UNL     1       8.848  -3.628  24.537  0.00  0.00    +0.213 C 
ENDROOT
BRANCH   1   2
ATOM      2  C   UNL     1       9.221  -2.139  24.426  0.00  0.00    -0.001 A 
ATOM      3  C   UNL     1       8.834  -1.216  25.419  0.00  0.00    +0.007 A 
ATOM      4  C   UNL     1       9.293   0.105  25.407  0.00  0.00    +0.000 A 
ATOM      5  C   UNL     1      10.130   0.543  24.385  0.00  0.00    +0.000 A 
ATOM      6  C   UNL     1      10.489  -0.331  23.368  0.00  0.00    +0.000 A 
ATOM      7  C   UNL     1      10.041  -1.656  23.386  0.00  0.00    +0.007 A 
ENDBRANCH   1   2
BRANCH   1   8
ATOM      8  C   UNL     1       7.893  -4.130  23.445  0.00  0.00    -0.001 A 
ATOM      9  C   UNL     1       7.845  -5.495  23.100  0.00  0.00    +0.007 A 
ATOM     10  C   UNL     1       6.901  -5.975  22.188  0.00  0.00    +0.000 A 
ATOM     11  C   UNL     1       6.010  -5.097  21.578  0.00  0.00    +0.000 A 
ATOM     12  C   UNL     1       6.081  -3.736  21.857  0.00  0.00    +0.000 A 
ATOM     13  C   UNL     1       7.016  -3.255  22.774  0.00  0.00    +0.007 A 
ENDBRANCH   1   8
BRANCH   1  14
ATOM     14  C   UNL     1       8.256  -3.921  25.961  0.00  0.00    +0.349 C 
ATOM     15  O   UNL     1       8.907  -4.186  26.971  0.00  0.00    -0.247 OA
BRANCH  14  16
ATOM     16  O   UNL     1       6.876  -3.838  25.987  0.00  0.00    -0.453 OA
BRANCH  16  20
ATOM     17  C   UNL     1       3.816  -4.888  29.744  0.00  0.00    +0.192 C 
ATOM     18  N   UNL     1       4.754  -5.514  28.704  0.00  0.00    +0.242 N 
ATOM     19  C   UNL     1       5.496  -4.375  27.957  0.00  0.00    +0.178 C 
ATOM     20  C   UNL     1       6.280  -4.903  26.746  0.00  0.00    +0.222 C 
ATOM     21  C   UNL     1       5.343  -5.663  25.809  0.00  0.00    +0.055 C 
ATOM     22  C   UNL     1       4.684  -6.822  26.532  0.00  0.00    +0.055 C 
ATOM     23  C   UNL     1       3.893  -6.344  27.738  0.00  0.00    +0.133 C 
ATOM     24  C   UNL     1       5.739  -6.408  29.462  0.00  0.00    +0.192 C 
ENDBRANCH  16  20
ENDBRANCH  14  16
ENDBRANCH   1  14
BRANCH   1  25
ATOM     25  O   UNL     1      10.067  -4.411  24.469  0.00  0.00    -0.370 OA
ATOM     26  H   UNL     1      10.141  -4.874  25.322  0.00  0.00    +0.212 HD
ENDBRANCH   1  25
TORSDOF 6
ENDMDL
MODEL 4
REMARK VINA RESULT:      -6.7      1.148      2.065
REMARK  Name = 
REMARK  8 active torsions:
REMARK  status: ('A' for Active; 'I' for Inactive)
REMARK    1  A    between atoms: C_1  and  N_2
REMARK    2  A    between atoms: N_2  and  C_3
REMARK    3  A    between atoms: C_7  and  O_9
REMARK    4  A    between atoms: O_9  and  C_10
REMARK    5  A    between atoms: C_10  and  C_12
REMARK    6  A    between atoms: C_12  and  O_13
REMARK    7  A    between atoms: C_12  and  C_14
REMARK    8  A    between atoms: C_12  and  C_20
REMARK                            x       y       z     vdW  Elec       q    Type
REMARK                         _______ _______ _______ _____ _____    ______ ____
ROOT
ATOM      1  C   UNL     1       8.440  -4.554  24.355  0.00  0.00    +0.213 C 
ENDROOT
BRANCH   1   2
ATOM      2  C   UNL     1       7.688  -4.743  23.026  0.00  0.00    -0.001 A 
ATOM      3  C   UNL     1       7.411  -6.031  22.523  0.00  0.00    +0.007 A 
ATOM      4  C   UNL     1       6.600  -6.217  21.398  0.00  0.00    +0.000 A 
ATOM      5  C   UNL     1       6.068  -5.117  20.732  0.00  0.00    +0.000 A 
ATOM      6  C   UNL     1       6.362  -3.835  21.177  0.00  0.00    +0.000 A 
ATOM      7  C   UNL     1       7.162  -3.648  22.309  0.00  0.00    +0.007 A 
ENDBRANCH   1   2
BRANCH   1   8
ATOM      8  C   UNL     1       7.541  -4.538  25.599  0.00  0.00    -0.001 A 
ATOM      9  C   UNL     1       6.330  -3.818  25.605  0.00  0.00    +0.007 A 
ATOM     10  C   UNL     1       5.454  -3.890  26.692  0.00  0.00    +0.000 A 
ATOM     11  C   UNL     1       5.786  -4.653  27.807  0.00  0.00    +0.000 A 
ATOM     12  C   UNL     1       7.005  -5.323  27.849  0.00  0.00    +0.000 A 
ATOM     13  C   UNL     1       7.877  -5.261  26.760  0.00  0.00    +0.007 A 
ENDBRANCH   1   8
BRANCH   1  14
ATOM     14  C   UNL     1       9.311  -3.250  24.290  0.00  0.00    +0.349 C 
ATOM     15  O   UNL     1      10.457  -3.172  23.850  0.00  0.00    -0.247 OA
BRANCH  14  16
ATOM     16  O   UNL     1       8.643  -2.143  24.779  0.00  0.00    -0.453 OA
BRANCH  16  20
ATOM     17  C   UNL     1       6.912   1.865  22.429  0.00  0.00    +0.192 C 
ATOM     18  N   UNL     1       8.196   1.128  22.831  0.00  0.00    +0.242 N 
ATOM     19  C   UNL     1       7.809  -0.236  23.460  0.00  0.00    +0.178 C 
ATOM     20  C   UNL     1       9.019  -0.934  24.098  0.00  0.00    +0.222 C 
ATOM     21  C   UNL     1       9.669  -0.013  25.129  0.00  0.00    +0.055 C 
ATOM     22  C   UNL     1      10.114   1.285  24.484  0.00  0.00    +0.055 C 
ATOM     23  C   UNL     1       8.945   2.013  23.841  0.00  0.00    +0.133 C 
ATOM     24  C   UNL     1       9.024   0.932  21.558  0.00  0.00    +0.192 C 
ENDBRANCH  16  20
ENDBRANCH  14  16
ENDBRANCH   1  14
BRANCH   1  25
ATOM     25  O   UNL     1       9.395  -5.636  24.499  0.00  0.00    -0.370 OA
ATOM     26  H   UNL     1      10.075  -5.491  23.819  0.00  0.00    +0.212 HD
ENDBRANCH   1  25
TORSDOF 6
ENDMDL
MODEL 5
REMARK VINA RESULT:      -6.4      2.238      3.147
REMARK  Name = 
REMARK  8 active torsions:
REMARK  status: ('A' for Active; 'I' for Inactive)
REMARK    1  A    between atoms: C_1  and  N_2
REMARK    2  A    between atoms: N_2  and  C_3
REMARK    3  A    between atoms: C_7  and  O_9
REMARK    4  A    between atoms: O_9  and  C_10
REMARK    5  A    between atoms: C_10  and  C_12
REMARK    6  A    between atoms: C_12  and  O_13
REMARK    7  A    between atoms: C_12  and  C_14
REMARK    8  A    between atoms: C_12  and  C_20
REMARK                            x       y       z     vdW  Elec       q    Type
REMARK                         _______ _______ _______ _____ _____    ______ ____
ROOT
ATOM      1  C   UNL     1       6.137  -4.891  23.277  0.00  0.00    +0.213 C 
ENDROOT
BRANCH   1   2
ATOM      2  C   UNL     1       4.745  -5.448  23.624  0.00  0.00    -0.001 A 
ATOM      3  C   UNL     1       4.573  -6.798  23.992  0.00  0.00    +0.007 A 
ATOM      4  C   UNL     1       3.343  -7.278  24.453  0.00  0.00    +0.000 A 
ATOM      5  C   UNL     1       2.246  -6.424  24.533  0.00  0.00    +0.000 A 
ATOM      6  C   UNL     1       2.374  -5.101  24.133  0.00  0.00    +0.000 A 
ATOM      7  C   UNL     1       3.607  -4.617  23.683  0.00  0.00    +0.007 A 
ENDBRANCH   1   2
BRANCH   1   8
ATOM      8  C   UNL     1       7.121  -4.855  24.455  0.00  0.00    -0.001 A 
ATOM      9  C   UNL     1       8.489  -5.130  24.260  0.00  0.00    +0.007 A 
ATOM     10  C   UNL     1       9.408  -4.989  25.304  0.00  0.00    +0.000 A 
ATOM     11  C   UNL     1       8.974  -4.607  26.570  0.00  0.00    +0.000 A 
ATOM     12  C   UNL     1       7.618  -4.391  26.800  0.00  0.00    +0.000 A 
ATOM     13  C   UNL     1       6.700  -4.521  25.757  0.00  0.00    +0.007 A 
ENDBRANCH   1   8
BRANCH   1  14
ATOM     14  C   UNL     1       5.992  -3.464  22.639  0.00  0.00    +0.349 C 
ATOM     15  O   UNL     1       5.569  -3.220  21.510  0.00  0.00    -0.247 OA
BRANCH  14  16
ATOM     16  O   UNL     1       6.386  -2.457  23.501  0.00  0.00    -0.453 OA
BRANCH  16  20
ATOM     17  C   UNL     1       8.716   1.876  24.107  0.00  0.00    +0.192 C 
ATOM     18  N   UNL     1       8.332   0.816  23.067  0.00  0.00    +0.242 N 
ATOM     19  C   UNL     1       7.401  -0.225  23.741  0.00  0.00    +0.178 C 
ATOM     20  C   UNL     1       7.156  -1.442  22.837  0.00  0.00    +0.222 C 
ATOM     21  C   UNL     1       8.490  -2.069  22.436  0.00  0.00    +0.055 C 
ATOM     22  C   UNL     1       9.360  -1.063  21.708  0.00  0.00    +0.055 C 
ATOM     23  C   UNL     1       9.631   0.160  22.570  0.00  0.00    +0.133 C 
ATOM     24  C   UNL     1       7.614   1.541  21.926  0.00  0.00    +0.192 C 
ENDBRANCH  16  20
ENDBRANCH  14  16
ENDBRANCH   1  14
BRANCH   1  25
ATOM     25  O   UNL     1       6.711  -5.713  22.230  0.00  0.00    -0.370 OA
ATOM     26  H   UNL     1       7.067  -6.505  22.669  0.00  0.00    +0.212 HD
ENDBRANCH   1  25
TORSDOF 6
ENDMDL
MODEL 6
REMARK VINA RESULT:      -6.3      2.259      6.103
REMARK  Name = 
REMARK  8 active torsions:
REMARK  status: ('A' for Active; 'I' for Inactive)
REMARK    1  A    between atoms: C_1  and  N_2
REMARK    2  A    between atoms: N_2  and  C_3
REMARK    3  A    between atoms: C_7  and  O_9
REMARK    4  A    between atoms: O_9  and  C_10
REMARK    5  A    between atoms: C_10  and  C_12
REMARK    6  A    between atoms: C_12  and  O_13
REMARK    7  A    between atoms: C_12  and  C_14
REMARK    8  A    between atoms: C_12  and  C_20
REMARK                            x       y       z     vdW  Elec       q    Type
REMARK                         _______ _______ _______ _____ _____    ______ ____
ROOT
ATOM      1  C   UNL     1       8.422  -2.858  23.844  0.00  0.00    +0.213 C 
ENDROOT
BRANCH   1   2
ATOM      2  C   UNL     1       8.619  -1.480  23.188  0.00  0.00    -0.001 A 
ATOM      3  C   UNL     1       9.616  -1.274  22.214  0.00  0.00    +0.007 A 
ATOM      4  C   UNL     1       9.707  -0.073  21.504  0.00  0.00    +0.000 A 
ATOM      5  C   UNL     1       8.817   0.964  21.770  0.00  0.00    +0.000 A 
ATOM      6  C   UNL     1       7.853   0.806  22.757  0.00  0.00    +0.000 A 
ATOM      7  C   UNL     1       7.754  -0.400  23.459  0.00  0.00    +0.007 A 
ENDBRANCH   1   2
BRANCH   1   8
ATOM      8  C   UNL     1       7.614  -3.856  23.001  0.00  0.00    -0.001 A 
ATOM      9  C   UNL     1       6.652  -3.406  22.077  0.00  0.00    +0.007 A 
ATOM     10  C   UNL     1       5.995  -4.302  21.227  0.00  0.00    +0.000 A 
ATOM     11  C   UNL     1       6.261  -5.665  21.310  0.00  0.00    +0.000 A 
ATOM     12  C   UNL     1       7.162  -6.138  22.259  0.00  0.00    +0.000 A 
ATOM     13  C   UNL     1       7.827  -5.245  23.101  0.00  0.00    +0.007 A 
ENDBRANCH   1   8
BRANCH   1  14
ATOM     14  C   UNL     1       7.769  -2.682  25.261  0.00  0.00    +0.349 C 
ATOM     15  O   UNL     1       8.327  -2.229  26.259  0.00  0.00    -0.247 OA
BRANCH  14  16
ATOM     16  O   UNL     1       6.447  -3.085  25.288  0.00  0.00    -0.453 OA
BRANCH  16  20
ATOM     17  C   UNL     1       2.729  -5.106  27.871  0.00  0.00    +0.192 C 
ATOM     18  N   UNL     1       4.213  -4.725  27.937  0.00  0.00    +0.242 N 
ATOM     19  C   UNL     1       4.580  -3.936  26.652  0.00  0.00    +0.178 C 
ATOM     20  C   UNL     1       6.095  -3.716  26.530  0.00  0.00    +0.222 C 
ATOM     21  C   UNL     1       6.822  -5.058  26.583  0.00  0.00    +0.055 C 
ATOM     22  C   UNL     1       6.518  -5.784  27.879  0.00  0.00    +0.055 C 
ATOM     23  C   UNL     1       5.026  -6.026  28.040  0.00  0.00    +0.133 C 
ATOM     24  C   UNL     1       4.404  -3.861  29.186  0.00  0.00    +0.192 C 
ENDBRANCH  16  20
ENDBRANCH  14  16
ENDBRANCH   1  14
BRANCH   1  25
ATOM     25  O   UNL     1       9.728  -3.434  24.102  0.00  0.00    -0.370 OA
ATOM     26  H   UNL     1      10.224  -3.368  23.268  0.00  0.00    +0.212 HD
ENDBRANCH   1  25
TORSDOF 6
ENDMDL
MODEL 7
REMARK VINA RESULT:      -6.2      4.295      8.114
REMARK  Name = 
REMARK  8 active torsions:
REMARK  status: ('A' for Active; 'I' for Inactive)
REMARK    1  A    between atoms: C_1  and  N_2
REMARK    2  A    between atoms: N_2  and  C_3
REMARK    3  A    between atoms: C_7  and  O_9
REMARK    4  A    between atoms: O_9  and  C_10
REMARK    5  A    between atoms: C_10  and  C_12
REMARK    6  A    between atoms: C_12  and  O_13
REMARK    7  A    between atoms: C_12  and  C_14
REMARK    8  A    between atoms: C_12  and  C_20
REMARK                            x       y       z     vdW  Elec       q    Type
REMARK                         _______ _______ _______ _____ _____    ______ ____
ROOT
ATOM      1  C   UNL     1       9.009   2.994  23.340  0.00  0.00    +0.213 C 
ENDROOT
BRANCH   1   2
ATOM      2  C   UNL     1       9.515   1.577  23.017  0.00  0.00    -0.001 A 
ATOM      3  C   UNL     1      10.069   0.756  24.020  0.00  0.00    +0.007 A 
ATOM      4  C   UNL     1      10.392  -0.582  23.773  0.00  0.00    +0.000 A 
ATOM      5  C   UNL     1      10.194  -1.126  22.507  0.00  0.00    +0.000 A 
ATOM      6  C   UNL     1       9.693  -0.327  21.487  0.00  0.00    +0.000 A 
ATOM      7  C   UNL     1       9.358   1.007  21.737  0.00  0.00    +0.007 A 
ENDBRANCH   1   2
BRANCH   1   8
ATOM      8  C   UNL     1      10.119   4.027  23.583  0.00  0.00    -0.001 A 
ATOM      9  C   UNL     1      11.458   3.738  23.256  0.00  0.00    +0.007 A 
ATOM     10  C   UNL     1      12.454   4.712  23.368  0.00  0.00    +0.000 A 
ATOM     11  C   UNL     1      12.138   5.982  23.843  0.00  0.00    +0.000 A 
ATOM     12  C   UNL     1      10.833   6.270  24.230  0.00  0.00    +0.000 A 
ATOM     13  C   UNL     1       9.835   5.302  24.109  0.00  0.00    +0.007 A 
ENDBRANCH   1   8
BRANCH   1  14
ATOM     14  C   UNL     1       8.031   2.940  24.567  0.00  0.00    +0.349 C 
ATOM     15  O   UNL     1       8.265   3.376  25.693  0.00  0.00    -0.247 OA
BRANCH  14  16
ATOM     16  O   UNL     1       6.823   2.345  24.254  0.00  0.00    -0.453 OA
BRANCH  16  20
ATOM     17  C   UNL     1       3.476   0.129  27.164  0.00  0.00    +0.192 C 
ATOM     18  N   UNL     1       4.903   0.012  26.612  0.00  0.00    +0.242 N 
ATOM     19  C   UNL     1       5.243   1.312  25.837  0.00  0.00    +0.178 C 
ATOM     20  C   UNL     1       6.562   1.184  25.060  0.00  0.00    +0.222 C 
ATOM     21  C   UNL     1       6.500  -0.020  24.122  0.00  0.00    +0.055 C 
ATOM     22  C   UNL     1       6.244  -1.295  24.900  0.00  0.00    +0.055 C 
ATOM     23  C   UNL     1       4.944  -1.214  25.684  0.00  0.00    +0.133 C 
ATOM     24  C   UNL     1       5.838  -0.178  27.809  0.00  0.00    +0.192 C 
ENDBRANCH  16  20
ENDBRANCH  14  16
ENDBRANCH   1  14
BRANCH   1  25
ATOM     25  O   UNL     1       8.195   3.453  22.231  0.00  0.00    -0.370 OA
ATOM     26  H   UNL     1       7.837   2.655  21.806  0.00  0.00    +0.212 HD
ENDBRANCH   1  25
TORSDOF 6
ENDMDL
MODEL 8
REMARK VINA RESULT:      -6.1      1.458      2.259
REMARK  Name = 
REMARK  8 active torsions:
REMARK  status: ('A' for Active; 'I' for Inactive)
REMARK    1  A    between atoms: C_1  and  N_2
REMARK    2  A    between atoms: N_2  and  C_3
REMARK    3  A    between atoms: C_7  and  O_9
REMARK    4  A    between atoms: O_9  and  C_10
REMARK    5  A    between atoms: C_10  and  C_12
REMARK    6  A    between atoms: C_12  and  O_13
REMARK    7  A    between atoms: C_12  and  C_14
REMARK    8  A    between atoms: C_12  and  C_20
REMARK                            x       y       z     vdW  Elec       q    Type
REMARK                         _______ _______ _______ _____ _____    ______ ____
ROOT
ATOM      1  C   UNL     1       7.156  -4.889  25.789  0.00  0.00    +0.213 C 
ENDROOT
BRANCH   1   2
ATOM      2  C   UNL     1       6.726  -5.145  24.334  0.00  0.00    -0.001 A 
ATOM      3  C   UNL     1       7.680  -5.384  23.324  0.00  0.00    +0.007 A 
ATOM      4  C   UNL     1       7.298  -5.766  22.034  0.00  0.00    +0.000 A 
ATOM      5  C   UNL     1       5.950  -5.893  21.714  0.00  0.00    +0.000 A 
ATOM      6  C   UNL     1       4.987  -5.618  22.676  0.00  0.00    +0.000 A 
ATOM      7  C   UNL     1       5.368  -5.248  23.969  0.00  0.00    +0.007 A 
ENDBRANCH   1   2
BRANCH   1   8
ATOM      8  C   UNL     1       6.046  -5.098  26.829  0.00  0.00    -0.001 A 
ATOM      9  C   UNL     1       5.587  -6.393  27.143  0.00  0.00    +0.007 A 
ATOM     10  C   UNL     1       4.659  -6.599  28.167  0.00  0.00    +0.000 A 
ATOM     11  C   UNL     1       4.145  -5.516  28.873  0.00  0.00    +0.000 A 
ATOM     12  C   UNL     1       4.537  -4.223  28.537  0.00  0.00    +0.000 A 
ATOM     13  C   UNL     1       5.472  -4.015  27.522  0.00  0.00    +0.007 A 
ENDBRANCH   1   8
BRANCH   1  14
ATOM     14  C   UNL     1       7.762  -3.446  25.915  0.00  0.00    +0.349 C 
ATOM     15  O   UNL     1       8.713  -3.125  26.626  0.00  0.00    -0.247 OA
BRANCH  14  16
ATOM     16  O   UNL     1       7.112  -2.527  25.112  0.00  0.00    -0.453 OA
BRANCH  16  20
ATOM     17  C   UNL     1       9.382   0.022  21.518  0.00  0.00    +0.192 C 
ATOM     18  N   UNL     1       9.162  -0.044  23.034  0.00  0.00    +0.242 N 
ATOM     19  C   UNL     1       8.387  -1.345  23.366  0.00  0.00    +0.178 C 
ATOM     20  C   UNL     1       7.926  -1.377  24.831  0.00  0.00    +0.222 C 
ATOM     21  C   UNL     1       7.087  -0.138  25.140  0.00  0.00    +0.055 C 
ATOM     22  C   UNL     1       7.883   1.128  24.885  0.00  0.00    +0.055 C 
ATOM     23  C   UNL     1       8.358   1.202  23.443  0.00  0.00    +0.133 C 
ATOM     24  C   UNL     1      10.544  -0.042  23.693  0.00  0.00    +0.192 C 
ENDBRANCH  16  20
ENDBRANCH  14  16
ENDBRANCH   1  14
BRANCH   1  25
ATOM     25  O   UNL     1       8.252  -5.784  26.107  0.00  0.00    -0.370 OA
ATOM     26  H   UNL     1       8.821  -5.810  25.318  0.00  0.00    +0.212 HD
ENDBRANCH   1  25
TORSDOF 6
ENDMDL
MODEL 9
REMARK VINA RESULT:      -6.1      1.289      4.192
REMARK  Name = 
REMARK  8 active torsions:
REMARK  status: ('A' for Active; 'I' for Inactive)
REMARK    1  A    between atoms: C_1  and  N_2
REMARK    2  A    between atoms: N_2  and  C_3
REMARK    3  A    between atoms: C_7  and  O_9
REMARK    4  A    between atoms: O_9  and  C_10
REMARK    5  A    between atoms: C_10  and  C_12
REMARK    6  A    between atoms: C_12  and  O_13
REMARK    7  A    between atoms: C_12  and  C_14
REMARK    8  A    between atoms: C_12  and  C_20
REMARK                            x       y       z     vdW  Elec       q    Type
REMARK                         _______ _______ _______ _____ _____    ______ ____
ROOT
ATOM      1  C   UNL     1       6.309  -3.669  25.350  0.00  0.00    +0.213 C 
ENDROOT
BRANCH   1   2
ATOM      2  C   UNL     1       5.748  -4.669  26.376  0.00  0.00    -0.001 A 
ATOM      3  C   UNL     1       5.191  -5.898  25.965  0.00  0.00    +0.007 A 
ATOM      4  C   UNL     1       4.816  -6.876  26.892  0.00  0.00    +0.000 A 
ATOM      5  C   UNL     1       4.965  -6.638  28.256  0.00  0.00    +0.000 A 
ATOM      6  C   UNL     1       5.467  -5.419  28.690  0.00  0.00    +0.000 A 
ATOM      7  C   UNL     1       5.854  -4.446  27.764  0.00  0.00    +0.007 A 
ENDBRANCH   1   2
BRANCH   1   8
ATOM      8  C   UNL     1       6.475  -4.236  23.932  0.00  0.00    -0.001 A 
ATOM      9  C   UNL     1       7.424  -5.242  23.664  0.00  0.00    +0.007 A 
ATOM     10  C   UNL     1       7.503  -5.840  22.403  0.00  0.00    +0.000 A 
ATOM     11  C   UNL     1       6.660  -5.422  21.377  0.00  0.00    +0.000 A 
ATOM     12  C   UNL     1       5.758  -4.386  21.603  0.00  0.00    +0.000 A 
ATOM     13  C   UNL     1       5.671  -3.794  22.864  0.00  0.00    +0.007 A 
ENDBRANCH   1   8
BRANCH   1  14
ATOM     14  C   UNL     1       7.670  -3.085  25.870  0.00  0.00    +0.349 C 
ATOM     15  O   UNL     1       8.606  -3.739  26.328  0.00  0.00    -0.247 OA
BRANCH  14  16
ATOM     16  O   UNL     1       7.734  -1.709  25.752  0.00  0.00    -0.453 OA
BRANCH  16  20
ATOM     17  C   UNL     1       9.027   0.332  21.423  0.00  0.00    +0.192 C 
ATOM     18  N   UNL     1       9.584  -0.282  22.713  0.00  0.00    +0.242 N 
ATOM     19  C   UNL     1       8.403  -0.856  23.539  0.00  0.00    +0.178 C 
ATOM     20  C   UNL     1       8.846  -1.282  24.947  0.00  0.00    +0.222 C 
ATOM     21  C   UNL     1       9.504  -0.105  25.665  0.00  0.00    +0.055 C 
ATOM     22  C   UNL     1      10.704   0.397  24.886  0.00  0.00    +0.055 C 
ATOM     23  C   UNL     1      10.311   0.833  23.484  0.00  0.00    +0.133 C 
ATOM     24  C   UNL     1      10.560  -1.389  22.304  0.00  0.00    +0.192 C 
ENDBRANCH  16  20
ENDBRANCH  14  16
ENDBRANCH   1  14
BRANCH   1  25
ATOM     25  O   UNL     1       5.413  -2.531  25.282  0.00  0.00    -0.370 OA
ATOM     26  H   UNL     1       5.122  -2.469  24.356  0.00  0.00    +0.212 HD
ENDBRANCH   1  25
TORSDOF 6
ENDMDL
