MODEL 1
REMARK VINA RESULT:      -4.9      0.000      0.000
REMARK  Name = 
REMARK  9 active torsions:
REMARK  status: ('A' for Active; 'I' for Inactive)
REMARK    1  A    between atoms: C_2  and  N_3
REMARK    2  A    between atoms: C_2  and  C_4
REMARK    3  A    between atoms: C_2  and  C_8
REMARK    4  A    between atoms: C_4  and  C_5
REMARK    5  A    between atoms: C_5  and  S_6
REMARK    6  A    between atoms: S_6  and  C_7
REMARK    7  A    between atoms: C_8  and  O_9
REMARK    8  A    between atoms: C_8  and  O_10
REMARK    9  A    between atoms: C_8  and  C_11
REMARK                            x       y       z     vdW  Elec       q    Type
REMARK                         _______ _______ _______ _____ _____    ______ ____
ROOT
ATOM      1  C   UNL     1       9.339   2.079  24.064  0.00  0.00    +0.298 C 
ENDROOT
BRANCH   1   2
ATOM      2  C   UNL     1      10.075   3.413  23.886  0.00  0.00    +0.125 A 
ATOM      3  N   UNL     1      11.371   3.341  23.462  0.00  0.00    -0.252 NA
ATOM      4  C   UNL     1      12.031   4.505  23.276  0.00  0.00    +0.111 A 
ATOM      5  C   UNL     1      11.465   5.748  23.481  0.00  0.00    +0.020 A 
ATOM      6  C   UNL     1      10.145   5.811  23.914  0.00  0.00    +0.003 A 
ATOM      7  C   UNL     1       9.438   4.632  24.124  0.00  0.00    +0.031 A 
ENDBRANCH   1   2
BRANCH   1   8
ATOM      8  O   UNL     1      10.096   1.228  24.934  0.00  0.00    -0.500 OA
ATOM      9  H   UNL     1      10.151   1.738  25.767  0.00  0.00    +0.288 HD
ENDBRANCH   1   8
BRANCH   1  10
ATOM     10  O   UNL     1       8.104   2.351  24.720  0.00  0.00    -0.500 OA
ATOM     11  H   UNL     1       7.931   3.300  24.630  0.00  0.00    +0.288 HD
ENDBRANCH   1  10
BRANCH   1  12
ATOM     12  C   UNL     1       9.168   1.316  22.690  0.00  0.00    +0.143 C 
BRANCH  12  13
ATOM     13  N   UNL     1       9.487   2.172  21.510  0.00  0.00    -0.321 NA
ATOM     14  H   UNL     1      10.350   2.685  21.691  0.00  0.00    +0.119 HD
ATOM     15  H   UNL     1       9.725   1.540  20.740  0.00  0.00    +0.119 HD
ENDBRANCH  12  13
BRANCH  12  16
ATOM     16  C   UNL     1      10.061   0.061  22.561  0.00  0.00    +0.037 C 
BRANCH  16  17
ATOM     17  C   UNL     1       9.512  -1.096  21.722  0.00  0.00    +0.070 C 
BRANCH  17  18
ATOM     18  S   UNL     1       8.483  -2.232  22.716  0.00  0.00    -0.164 S 
ATOM     19  C   UNL     1       9.699  -2.674  23.976  0.00  0.00    +0.084 C 
ENDBRANCH  17  18
ENDBRANCH  16  17
ENDBRANCH  12  16
ENDBRANCH   1  12
TORSDOF 8
ENDMDL
MODEL 2
REMARK VINA RESULT:      -4.9      2.852      4.072
REMARK  Name = 
REMARK  9 active torsions:
REMARK  status: ('A' for Active; 'I' for Inactive)
REMARK    1  A    between atoms: C_2  and  N_3
REMARK    2  A    between atoms: C_2  and  C_4
REMARK    3  A    between atoms: C_2  and  C_8
REMARK    4  A    between atoms: C_4  and  C_5
REMARK    5  A    between atoms: C_5  and  S_6
REMARK    6  A    between atoms: S_6  and  C_7
REMARK    7  A    between atoms: C_8  and  O_9
REMARK    8  A    between atoms: C_8  and  O_10
REMARK    9  A    between atoms: C_8  and  C_11
REMARK                            x       y       z     vdW  Elec       q    Type
REMARK                         _______ _______ _______ _____ _____    ______ ____
ROOT
ATOM      1  C   UNL     1       9.571  -1.700  22.592  0.00  0.00    +0.298 C 
ENDROOT
BRANCH   1   2
ATOM      2  C   UNL     1       9.938  -0.242  22.901  0.00  0.00    +0.125 A 
ATOM      3  N   UNL     1       9.737   0.662  21.898  0.00  0.00    -0.252 NA
ATOM      4  C   UNL     1      10.031   1.955  22.158  0.00  0.00    +0.111 A 
ATOM      5  C   UNL     1      10.510   2.402  23.373  0.00  0.00    +0.020 A 
ATOM      6  C   UNL     1      10.713   1.473  24.388  0.00  0.00    +0.003 A 
ATOM      7  C   UNL     1      10.428   0.133  24.153  0.00  0.00    +0.031 A 
ENDBRANCH   1   2
BRANCH   1   8
ATOM      8  O   UNL     1       9.574  -1.902  21.173  0.00  0.00    -0.500 OA
ATOM      9  H   UNL     1      10.385  -2.426  21.015  0.00  0.00    +0.288 HD
ENDBRANCH   1   8
BRANCH   1  10
ATOM     10  O   UNL     1      10.596  -2.529  23.132  0.00  0.00    -0.500 OA
ATOM     11  H   UNL     1      10.194  -3.070  23.828  0.00  0.00    +0.288 HD
ENDBRANCH   1  10
BRANCH   1  12
ATOM     12  C   UNL     1       8.125  -2.064  23.116  0.00  0.00    +0.143 C 
BRANCH  12  13
ATOM     13  N   UNL     1       7.139  -0.966  22.901  0.00  0.00    -0.321 NA
ATOM     14  H   UNL     1       7.313  -0.220  23.576  0.00  0.00    +0.119 HD
ATOM     15  H   UNL     1       7.359  -0.542  21.995  0.00  0.00    +0.119 HD
ENDBRANCH  12  13
BRANCH  12  16
ATOM     16  C   UNL     1       7.519  -3.320  22.447  0.00  0.00    +0.037 C 
BRANCH  16  17
ATOM     17  C   UNL     1       7.645  -4.641  23.212  0.00  0.00    +0.070 C 
BRANCH  17  18
ATOM     18  S   UNL     1       7.773  -4.376  25.015  0.00  0.00    -0.164 S 
ATOM     19  C   UNL     1       9.394  -5.125  25.290  0.00  0.00    +0.084 C 
ENDBRANCH  17  18
ENDBRANCH  16  17
ENDBRANCH  12  16
ENDBRANCH   1  12
TORSDOF 8
ENDMDL
MODEL 3
REMARK VINA RESULT:      -4.9      2.972      4.128
REMARK  Name = 
REMARK  9 active torsions:
REMARK  status: ('A' for Active; 'I' for Inactive)
REMARK    1  A    between atoms: C_2  and  N_3
REMARK    2  A    between atoms: C_2  and  C_4
REMARK    3  A    between atoms: C_2  and  C_8
REMARK    4  A    between atoms: C_4  and  C_5
REMARK    5  A    between atoms: C_5  and  S_6
REMARK    6  A    between atoms: S_6  and  C_7
REMARK    7  A    between atoms: C_8  and  O_9
REMARK    8  A    between atoms: C_8  and  O_10
REMARK    9  A    between atoms: C_8  and  C_11
REMARK                            x       y       z     vdW  Elec       q    Type
REMARK                         _______ _______ _______ _____ _____    ______ ____
ROOT
ATOM      1  C   UNL     1       9.513  -1.711  22.609  0.00  0.00    +0.298 C 
ENDROOT
BRANCH   1   2
ATOM      2  C   UNL     1       9.788  -0.232  22.910  0.00  0.00    +0.125 A 
ATOM      3  N   UNL     1       9.970   0.099  24.222  0.00  0.00    -0.252 NA
ATOM      4  C   UNL     1      10.236   1.392  24.507  0.00  0.00    +0.111 A 
ATOM      5  C   UNL     1      10.340   2.382  23.550  0.00  0.00    +0.020 A 
ATOM      6  C   UNL     1      10.152   2.035  22.215  0.00  0.00    +0.003 A 
ATOM      7  C   UNL     1       9.869   0.715  21.887  0.00  0.00    +0.031 A 
ENDBRANCH   1   2
BRANCH   1   8
ATOM      8  O   UNL     1       9.424  -1.901  21.191  0.00  0.00    -0.500 OA
ATOM      9  H   UNL     1      10.027  -1.222  20.828  0.00  0.00    +0.288 HD
ENDBRANCH   1   8
BRANCH   1  10
ATOM     10  O   UNL     1      10.638  -2.461  23.059  0.00  0.00    -0.500 OA
ATOM     11  H   UNL     1      11.375  -2.263  22.462  0.00  0.00    +0.288 HD
ENDBRANCH   1  10
BRANCH   1  12
ATOM     12  C   UNL     1       8.144  -2.193  23.237  0.00  0.00    +0.143 C 
BRANCH  12  13
ATOM     13  N   UNL     1       7.077  -1.153  23.161  0.00  0.00    -0.321 NA
ATOM     14  H   UNL     1       6.914  -0.770  24.093  0.00  0.00    +0.119 HD
ATOM     15  H   UNL     1       7.464  -0.367  22.630  0.00  0.00    +0.119 HD
ENDBRANCH  12  13
BRANCH  12  16
ATOM     16  C   UNL     1       7.560  -3.455  22.560  0.00  0.00    +0.037 C 
BRANCH  16  17
ATOM     17  C   UNL     1       7.663  -4.769  23.340  0.00  0.00    +0.070 C 
BRANCH  17  18
ATOM     18  S   UNL     1       7.857  -4.484  25.134  0.00  0.00    -0.164 S 
ATOM     19  C   UNL     1       9.548  -5.089  25.327  0.00  0.00    +0.084 C 
ENDBRANCH  17  18
ENDBRANCH  16  17
ENDBRANCH  12  16
ENDBRANCH   1  12
TORSDOF 8
ENDMDL
MODEL 4
REMARK VINA RESULT:      -4.8      6.914      8.133
REMARK  Name = 
REMARK  9 active torsions:
REMARK  status: ('A' for Active; 'I' for Inactive)
REMARK    1  A    between atoms: C_2  and  N_3
REMARK    2  A    between atoms: C_2  and  C_4
REMARK    3  A    between atoms: C_2  and  C_8
REMARK    4  A    between atoms: C_4  and  C_5
REMARK    5  A    between atoms: C_5  and  S_6
REMARK    6  A    between atoms: S_6  and  C_7
REMARK    7  A    between atoms: C_8  and  O_9
REMARK    8  A    between atoms: C_8  and  O_10
REMARK    9  A    between atoms: C_8  and  C_11
REMARK                            x       y       z     vdW  Elec       q    Type
REMARK                         _______ _______ _______ _____ _____    ______ ____
ROOT
ATOM      1  C   UNL     1       9.111  -4.318  24.637  0.00  0.00    +0.298 C 
ENDROOT
BRANCH   1   2
ATOM      2  C   UNL     1       8.003  -4.365  23.576  0.00  0.00    +0.125 A 
ATOM      3  N   UNL     1       7.486  -3.165  23.182  0.00  0.00    -0.252 NA
ATOM      4  C   UNL     1       6.526  -3.183  22.231  0.00  0.00    +0.111 A 
ATOM      5  C   UNL     1       6.054  -4.338  21.641  0.00  0.00    +0.020 A 
ATOM      6  C   UNL     1       6.586  -5.557  22.050  0.00  0.00    +0.003 A 
ATOM      7  C   UNL     1       7.570  -5.576  23.032  0.00  0.00    +0.031 A 
ENDBRANCH   1   2
BRANCH   1   8
ATOM      8  O   UNL     1       9.770  -5.589  24.696  0.00  0.00    -0.500 OA
ATOM      9  H   UNL     1       9.048  -6.231  24.544  0.00  0.00    +0.288 HD
ENDBRANCH   1   8
BRANCH   1  10
ATOM     10  O   UNL     1      10.080  -3.366  24.208  0.00  0.00    -0.500 OA
ATOM     11  H   UNL     1       9.787  -2.495  24.517  0.00  0.00    +0.288 HD
ENDBRANCH   1  10
BRANCH   1  12
ATOM     12  C   UNL     1       8.531  -4.021  26.077  0.00  0.00    +0.143 C 
BRANCH  12  13
ATOM     13  N   UNL     1       7.504  -2.938  26.074  0.00  0.00    -0.321 NA
ATOM     14  H   UNL     1       6.694  -3.241  26.616  0.00  0.00    +0.119 HD
ATOM     15  H   UNL     1       7.891  -2.160  26.616  0.00  0.00    +0.119 HD
ENDBRANCH  12  13
BRANCH  12  16
ATOM     16  C   UNL     1       7.859  -5.245  26.742  0.00  0.00    +0.037 C 
BRANCH  16  17
ATOM     17  C   UNL     1       6.383  -5.101  27.124  0.00  0.00    +0.070 C 
BRANCH  17  18
ATOM     18  S   UNL     1       5.301  -6.121  26.063  0.00  0.00    -0.164 S 
ATOM     19  C   UNL     1       4.514  -4.796  25.119  0.00  0.00    +0.084 C 
ENDBRANCH  17  18
ENDBRANCH  16  17
ENDBRANCH  12  16
ENDBRANCH   1  12
TORSDOF 8
ENDMDL
MODEL 5
REMARK VINA RESULT:      -4.7      5.273      8.228
REMARK  Name = 
REMARK  9 active torsions:
REMARK  status: ('A' for Active; 'I' for Inactive)
REMARK    1  A    between atoms: C_2  and  N_3
REMARK    2  A    between atoms: C_2  and  C_4
REMARK    3  A    between atoms: C_2  and  C_8
REMARK    4  A    between atoms: C_4  and  C_5
REMARK    5  A    between atoms: C_5  and  S_6
REMARK    6  A    between atoms: S_6  and  C_7
REMARK    7  A    between atoms: C_8  and  O_9
REMARK    8  A    between atoms: C_8  and  O_10
REMARK    9  A    between atoms: C_8  and  C_11
REMARK                            x       y       z     vdW  Elec       q    Type
REMARK                         _______ _______ _______ _____ _____    ______ ____
ROOT
ATOM      1  C   UNL     1       8.770  -4.707  24.480  0.00  0.00    +0.298 C 
ENDROOT
BRANCH   1   2
ATOM      2  C   UNL     1       7.786  -4.745  23.303  0.00  0.00    +0.125 A 
ATOM      3  N   UNL     1       7.164  -3.569  22.993  0.00  0.00    -0.252 NA
ATOM      4  C   UNL     1       6.311  -3.575  21.946  0.00  0.00    +0.111 A 
ATOM      5  C   UNL     1       6.047  -4.692  21.178  0.00  0.00    +0.020 A 
ATOM      6  C   UNL     1       6.686  -5.885  21.502  0.00  0.00    +0.003 A 
ATOM      7  C   UNL     1       7.564  -5.917  22.579  0.00  0.00    +0.031 A 
ENDBRANCH   1   2
BRANCH   1   8
ATOM      8  O   UNL     1       9.518  -5.930  24.516  0.00  0.00    -0.500 OA
ATOM      9  H   UNL     1      10.390  -5.679  24.151  0.00  0.00    +0.288 HD
ENDBRANCH   1   8
BRANCH   1  10
ATOM     10  O   UNL     1       9.701  -3.658  24.233  0.00  0.00    -0.500 OA
ATOM     11  H   UNL     1      10.557  -4.069  24.038  0.00  0.00    +0.288 HD
ENDBRANCH   1  10
BRANCH   1  12
ATOM     12  C   UNL     1       8.022  -4.572  25.866  0.00  0.00    +0.143 C 
BRANCH  12  13
ATOM     13  N   UNL     1       8.366  -5.668  26.818  0.00  0.00    -0.321 NA
ATOM     14  H   UNL     1       9.222  -6.129  26.505  0.00  0.00    +0.119 HD
ATOM     15  H   UNL     1       8.629  -5.222  27.702  0.00  0.00    +0.119 HD
ENDBRANCH  12  13
BRANCH  12  16
ATOM     16  C   UNL     1       8.324  -3.250  26.609  0.00  0.00    +0.037 C 
BRANCH  16  17
ATOM     17  C   UNL     1       7.266  -2.146  26.516  0.00  0.00    +0.070 C 
BRANCH  17  18
ATOM     18  S   UNL     1       7.960  -0.502  26.908  0.00  0.00    -0.164 S 
ATOM     19  C   UNL     1       9.236  -0.430  25.631  0.00  0.00    +0.084 C 
ENDBRANCH  17  18
ENDBRANCH  16  17
ENDBRANCH  12  16
ENDBRANCH   1  12
TORSDOF 8
ENDMDL
MODEL 6
REMARK VINA RESULT:      -4.7      1.672      2.366
REMARK  Name = 
REMARK  9 active torsions:
REMARK  status: ('A' for Active; 'I' for Inactive)
REMARK    1  A    between atoms: C_2  and  N_3
REMARK    2  A    between atoms: C_2  and  C_4
REMARK    3  A    between atoms: C_2  and  C_8
REMARK    4  A    between atoms: C_4  and  C_5
REMARK    5  A    between atoms: C_5  and  S_6
REMARK    6  A    between atoms: S_6  and  C_7
REMARK    7  A    between atoms: C_8  and  O_9
REMARK    8  A    between atoms: C_8  and  O_10
REMARK    9  A    between atoms: C_8  and  C_11
REMARK                            x       y       z     vdW  Elec       q    Type
REMARK                         _______ _______ _______ _____ _____    ______ ____
ROOT
ATOM      1  C   UNL     1       9.945   2.572  23.136  0.00  0.00    +0.298 C 
ENDROOT
BRANCH   1   2
ATOM      2  C   UNL     1      10.535   3.936  23.519  0.00  0.00    +0.125 A 
ATOM      3  N   UNL     1       9.682   4.824  24.108  0.00  0.00    -0.252 NA
ATOM      4  C   UNL     1      10.187   6.022  24.475  0.00  0.00    +0.111 A 
ATOM      5  C   UNL     1      11.507   6.385  24.293  0.00  0.00    +0.020 A 
ATOM      6  C   UNL     1      12.368   5.474  23.691  0.00  0.00    +0.003 A 
ATOM      7  C   UNL     1      11.880   4.234  23.294  0.00  0.00    +0.031 A 
ENDBRANCH   1   2
BRANCH   1   8
ATOM      8  O   UNL     1       8.514   2.660  23.112  0.00  0.00    -0.500 OA
ATOM      9  H   UNL     1       8.309   2.838  22.172  0.00  0.00    +0.288 HD
ENDBRANCH   1   8
BRANCH   1  10
ATOM     10  O   UNL     1      10.365   2.275  21.808  0.00  0.00    -0.500 OA
ATOM     11  H   UNL     1      11.087   1.631  21.869  0.00  0.00    +0.288 HD
ENDBRANCH   1  10
BRANCH   1  12
ATOM     12  C   UNL     1      10.330   1.452  24.183  0.00  0.00    +0.143 C 
BRANCH  12  13
ATOM     13  N   UNL     1       9.275   1.240  25.217  0.00  0.00    -0.321 NA
ATOM     14  H   UNL     1       8.385   1.048  24.755  0.00  0.00    +0.119 HD
ATOM     15  H   UNL     1       9.503   0.366  25.699  0.00  0.00    +0.119 HD
ENDBRANCH  12  13
BRANCH  12  16
ATOM     16  C   UNL     1      10.588   0.067  23.546  0.00  0.00    +0.037 C 
BRANCH  16  17
ATOM     17  C   UNL     1       9.886  -1.133  24.189  0.00  0.00    +0.070 C 
BRANCH  17  18
ATOM     18  S   UNL     1       8.729  -1.947  23.033  0.00  0.00    -0.164 S 
ATOM     19  C   UNL     1       9.196  -1.079  21.519  0.00  0.00    +0.084 C 
ENDBRANCH  17  18
ENDBRANCH  16  17
ENDBRANCH  12  16
ENDBRANCH   1  12
TORSDOF 8
ENDMDL
MODEL 7
REMARK VINA RESULT:      -4.7      4.814      8.247
REMARK  Name = 
REMARK  9 active torsions:
REMARK  status: ('A' for Active; 'I' for Inactive)
REMARK    1  A    between atoms: C_2  and  N_3
REMARK    2  A    between atoms: C_2  and  C_4
REMARK    3  A    between atoms: C_2  and  C_8
REMARK    4  A    between atoms: C_4  and  C_5
REMARK    5  A    between atoms: C_5  and  S_6
REMARK    6  A    between atoms: S_6  and  C_7
REMARK    7  A    between atoms: C_8  and  O_9
REMARK    8  A    between atoms: C_8  and  O_10
REMARK    9  A    between atoms: C_8  and  C_11
REMARK                            x       y       z     vdW  Elec       q    Type
REMARK                         _______ _______ _______ _____ _____    ______ ____
ROOT
ATOM      1  C   UNL     1       8.891  -4.991  25.392  0.00  0.00    +0.298 C 
ENDROOT
BRANCH   1   2
ATOM      2  C   UNL     1       7.731  -5.281  24.429  0.00  0.00    +0.125 A 
ATOM      3  N   UNL     1       8.059  -5.442  23.113  0.00  0.00    -0.252 NA
ATOM      4  C   UNL     1       7.055  -5.721  22.253  0.00  0.00    +0.111 A 
ATOM      5  C   UNL     1       5.735  -5.859  22.633  0.00  0.00    +0.020 A 
ATOM      6  C   UNL     1       5.412  -5.692  23.976  0.00  0.00    +0.003 A 
ATOM      7  C   UNL     1       6.418  -5.396  24.888  0.00  0.00    +0.031 A 
ENDBRANCH   1   2
BRANCH   1   8
ATOM      8  O   UNL     1       8.455  -5.200  26.741  0.00  0.00    -0.500 OA
ATOM      9  H   UNL     1       9.281  -5.410  27.221  0.00  0.00    +0.288 HD
ENDBRANCH   1   8
BRANCH   1  10
ATOM     10  O   UNL     1       9.917  -5.945  25.133  0.00  0.00    -0.500 OA
ATOM     11  H   UNL     1      10.552  -5.531  24.529  0.00  0.00    +0.288 HD
ENDBRANCH   1  10
BRANCH   1  12
ATOM     12  C   UNL     1       9.383  -3.493  25.283  0.00  0.00    +0.143 C 
BRANCH  12  13
ATOM     13  N   UNL     1       9.996  -3.181  23.959  0.00  0.00    -0.321 NA
ATOM     14  H   UNL     1      10.188  -4.052  23.463  0.00  0.00    +0.119 HD
ATOM     15  H   UNL     1       9.272  -2.725  23.395  0.00  0.00    +0.119 HD
ENDBRANCH  12  13
BRANCH  12  16
ATOM     16  C   UNL     1       8.257  -2.452  25.487  0.00  0.00    +0.037 C 
BRANCH  16  17
ATOM     17  C   UNL     1       8.200  -1.289  24.493  0.00  0.00    +0.070 C 
BRANCH  17  18
ATOM     18  S   UNL     1       8.657   0.298  25.273  0.00  0.00    -0.164 S 
ATOM     19  C   UNL     1      10.414   0.317  24.853  0.00  0.00    +0.084 C 
ENDBRANCH  17  18
ENDBRANCH  16  17
ENDBRANCH  12  16
ENDBRANCH   1  12
TORSDOF 8
ENDMDL
MODEL 8
REMARK VINA RESULT:      -4.7      5.275      6.975
REMARK  Name = 
REMARK  9 active torsions:
REMARK  status: ('A' for Active; 'I' for Inactive)
REMARK    1  A    between atoms: C_2  and  N_3
REMARK    2  A    between atoms: C_2  and  C_4
REMARK    3  A    between atoms: C_2  and  C_8
REMARK    4  A    between atoms: C_4  and  C_5
REMARK    5  A    between atoms: C_5  and  S_6
REMARK    6  A    between atoms: S_6  and  C_7
REMARK    7  A    between atoms: C_8  and  O_9
REMARK    8  A    between atoms: C_8  and  O_10
REMARK    9  A    between atoms: C_8  and  C_11
REMARK                            x       y       z     vdW  Elec       q    Type
REMARK                         _______ _______ _______ _____ _____    ______ ____
ROOT
ATOM      1  C   UNL     1       9.039  -4.846  25.665  0.00  0.00    +0.298 C 
ENDROOT
BRANCH   1   2
ATOM      2  C   UNL     1       9.106  -3.353  25.315  0.00  0.00    +0.125 A 
ATOM      3  N   UNL     1       8.631  -2.486  26.256  0.00  0.00    -0.252 NA
ATOM      4  C   UNL     1       8.703  -1.166  25.977  0.00  0.00    +0.111 A 
ATOM      5  C   UNL     1       9.234  -0.657  24.809  0.00  0.00    +0.020 A 
ATOM      6  C   UNL     1       9.716  -1.549  23.856  0.00  0.00    +0.003 A 
ATOM      7  C   UNL     1       9.650  -2.915  24.107  0.00  0.00    +0.031 A 
ENDBRANCH   1   2
BRANCH   1   8
ATOM      8  O   UNL     1       9.485  -5.620  24.544  0.00  0.00    -0.500 OA
ATOM      9  H   UNL     1       8.902  -5.328  23.814  0.00  0.00    +0.288 HD
ENDBRANCH   1   8
BRANCH   1  10
ATOM     10  O   UNL     1       9.957  -5.084  26.727  0.00  0.00    -0.500 OA
ATOM     11  H   UNL     1       9.959  -6.038  26.900  0.00  0.00    +0.288 HD
ENDBRANCH   1  10
BRANCH   1  12
ATOM     12  C   UNL     1       7.562  -5.304  25.995  0.00  0.00    +0.143 C 
BRANCH  12  13
ATOM     13  N   UNL     1       7.136  -4.929  27.375  0.00  0.00    -0.321 NA
ATOM     14  H   UNL     1       7.813  -4.275  27.770  0.00  0.00    +0.119 HD
ATOM     15  H   UNL     1       6.278  -4.377  27.281  0.00  0.00    +0.119 HD
ENDBRANCH  12  13
BRANCH  12  16
ATOM     16  C   UNL     1       6.499  -4.709  25.043  0.00  0.00    +0.037 C 
BRANCH  16  17
ATOM     17  C   UNL     1       5.734  -5.695  24.156  0.00  0.00    +0.070 C 
BRANCH  17  18
ATOM     18  S   UNL     1       6.445  -5.797  22.477  0.00  0.00    -0.164 S 
ATOM     19  C   UNL     1       6.741  -4.037  22.196  0.00  0.00    +0.084 C 
ENDBRANCH  17  18
ENDBRANCH  16  17
ENDBRANCH  12  16
ENDBRANCH   1  12
TORSDOF 8
ENDMDL
MODEL 9
REMARK VINA RESULT:      -4.6      3.153      6.468
REMARK  Name = 
REMARK  9 active torsions:
REMARK  status: ('A' for Active; 'I' for Inactive)
REMARK    1  A    between atoms: C_2  and  N_3
REMARK    2  A    between atoms: C_2  and  C_4
REMARK    3  A    between atoms: C_2  and  C_8
REMARK    4  A    between atoms: C_4  and  C_5
REMARK    5  A    between atoms: C_5  and  S_6
REMARK    6  A    between atoms: S_6  and  C_7
REMARK    7  A    between atoms: C_8  and  O_9
REMARK    8  A    between atoms: C_8  and  O_10
REMARK    9  A    between atoms: C_8  and  C_11
REMARK                            x       y       z     vdW  Elec       q    Type
REMARK                         _______ _______ _______ _____ _____    ______ ____
ROOT
ATOM      1  C   UNL     1       8.480  -0.901  23.394  0.00  0.00    +0.298 C 
ENDROOT
BRANCH   1   2
ATOM      2  C   UNL     1       8.289  -2.420  23.500  0.00  0.00    +0.125 A 
ATOM      3  N   UNL     1       7.504  -3.002  22.547  0.00  0.00    -0.252 NA
ATOM      4  C   UNL     1       7.341  -4.342  22.608  0.00  0.00    +0.111 A 
ATOM      5  C   UNL     1       7.929  -5.142  23.567  0.00  0.00    +0.020 A 
ATOM      6  C   UNL     1       8.726  -4.540  24.535  0.00  0.00    +0.003 A 
ATOM      7  C   UNL     1       8.909  -3.162  24.507  0.00  0.00    +0.031 A 
ENDBRANCH   1   2
BRANCH   1   8
ATOM      8  O   UNL     1       7.318  -0.314  22.796  0.00  0.00    -0.500 OA
ATOM      9  H   UNL     1       7.367  -0.604  21.862  0.00  0.00    +0.288 HD
ENDBRANCH   1   8
BRANCH   1  10
ATOM     10  O   UNL     1       8.573  -0.383  24.718  0.00  0.00    -0.500 OA
ATOM     11  H   UNL     1       8.341  -1.101  25.327  0.00  0.00    +0.288 HD
ENDBRANCH   1  10
BRANCH   1  12
ATOM     12  C   UNL     1       9.718  -0.529  22.484  0.00  0.00    +0.143 C 
BRANCH  12  13
ATOM     13  N   UNL     1       9.983  -1.546  21.425  0.00  0.00    -0.321 NA
ATOM     14  H   UNL     1       9.585  -2.441  21.711  0.00  0.00    +0.119 HD
ATOM     15  H   UNL     1       9.429  -1.274  20.607  0.00  0.00    +0.119 HD
ENDBRANCH  12  13
BRANCH  12  16
ATOM     16  C   UNL     1       9.564   0.823  21.749  0.00  0.00    +0.037 C 
BRANCH  16  17
ATOM     17  C   UNL     1      10.171   2.054  22.429  0.00  0.00    +0.070 C 
BRANCH  17  18
ATOM     18  S   UNL     1       8.911   3.031  23.321  0.00  0.00    -0.164 S 
ATOM     19  C   UNL     1       7.622   3.040  22.055  0.00  0.00    +0.084 C 
ENDBRANCH  17  18
ENDBRANCH  16  17
ENDBRANCH  12  16
ENDBRANCH   1  12
TORSDOF 8
ENDMDL
