MODEL 1
REMARK VINA RESULT:      -4.7      0.000      0.000
REMARK  Name = 
REMARK  8 active torsions:
REMARK  status: ('A' for Active; 'I' for Inactive)
REMARK    1  A    between atoms: O_1  and  C_2
REMARK    2  A    between atoms: C_2  and  C_4
REMARK    3  A    between atoms: C_2  and  C_11
REMARK    4  A    between atoms: C_4  and  C_5
REMARK    5  A    between atoms: C_5  and  O_7
REMARK    6  A    between atoms: C_5  and  C_8
REMARK    7  A    between atoms: C_11  and  O_13
REMARK    8  A    between atoms: C_11  and  C_14
REMARK                            x       y       z     vdW  Elec       q    Type
REMARK                         _______ _______ _______ _____ _____    ______ ____
ROOT
ATOM      1  C   UNL     1       9.861   1.041  22.533  0.00  0.00    +0.151 C 
ENDROOT
BRANCH   1   2
ATOM      2  O   UNL     1       9.856   1.978  21.430  0.00  0.00    -0.389 OA
ATOM      3  H   UNL     1       9.591   2.823  21.850  0.00  0.00    +0.210 HD
ENDBRANCH   1   2
BRANCH   1   4
ATOM      4  C   UNL     1       9.741   1.878  23.805  0.00  0.00    +0.188 C 
BRANCH   4   5
ATOM      5  C   UNL     1      10.179   3.353  23.599  0.00  0.00    +0.073 C 
ATOM      6  O   UNL     1       9.244   4.206  23.558  0.00  0.00    -0.547 OA
ATOM      7  O   UNL     1      11.428   3.522  23.449  0.00  0.00    -0.547 OA
ENDBRANCH   4   5
BRANCH   4   8
ATOM      8  O   UNL     1      10.435   1.185  24.892  0.00  0.00    -0.383 OA
ATOM      9  H   UNL     1       9.765   0.566  25.242  0.00  0.00    +0.210 HD
ENDBRANCH   4   8
ENDBRANCH   1   4
BRANCH   1  10
ATOM     10  C   UNL     1       8.725   0.021  22.309  0.00  0.00    +0.071 C 
BRANCH  10  11
ATOM     11  C   UNL     1       9.221  -1.432  22.360  0.00  0.00    +0.162 C 
BRANCH  11  12
ATOM     12  C   UNL     1       9.492  -2.001  23.783  0.00  0.00    +0.070 C 
ATOM     13  O   UNL     1      10.225  -3.041  23.827  0.00  0.00    -0.547 OA
ATOM     14  O   UNL     1       8.892  -1.450  24.755  0.00  0.00    -0.547 OA
ENDBRANCH  11  12
BRANCH  11  15
ATOM     15  O   UNL     1      10.389  -1.565  21.507  0.00  0.00    -0.386 OA
ATOM     16  H   UNL     1      10.249  -0.917  20.811  0.00  0.00    +0.210 HD
ENDBRANCH  11  15
ENDBRANCH  10  11
ENDBRANCH   1  10
TORSDOF 8
ENDMDL
MODEL 2
REMARK VINA RESULT:      -4.6      1.217      4.538
REMARK  Name = 
REMARK  8 active torsions:
REMARK  status: ('A' for Active; 'I' for Inactive)
REMARK    1  A    between atoms: O_1  and  C_2
REMARK    2  A    between atoms: C_2  and  C_4
REMARK    3  A    between atoms: C_2  and  C_11
REMARK    4  A    between atoms: C_4  and  C_5
REMARK    5  A    between atoms: C_5  and  O_7
REMARK    6  A    between atoms: C_5  and  C_8
REMARK    7  A    between atoms: C_11  and  O_13
REMARK    8  A    between atoms: C_11  and  C_14
REMARK                            x       y       z     vdW  Elec       q    Type
REMARK                         _______ _______ _______ _____ _____    ______ ____
ROOT
ATOM      1  C   UNL     1       9.086  -1.351  21.904  0.00  0.00    +0.151 C 
ENDROOT
BRANCH   1   2
ATOM      2  O   UNL     1      10.504  -1.569  22.093  0.00  0.00    -0.389 OA
ATOM      3  H   UNL     1      10.552  -2.007  22.969  0.00  0.00    +0.210 HD
ENDBRANCH   1   2
BRANCH   1   4
ATOM      4  C   UNL     1       8.378  -2.217  22.943  0.00  0.00    +0.188 C 
BRANCH   4   5
ATOM      5  C   UNL     1       9.269  -2.527  24.176  0.00  0.00    +0.073 C 
ATOM      6  O   UNL     1       9.935  -3.603  24.120  0.00  0.00    -0.547 OA
ATOM      7  O   UNL     1       9.185  -1.683  25.120  0.00  0.00    -0.547 OA
ENDBRANCH   4   5
BRANCH   4   8
ATOM      8  O   UNL     1       7.832  -3.400  22.277  0.00  0.00    -0.383 OA
ATOM      9  H   UNL     1       8.576  -3.732  21.737  0.00  0.00    +0.210 HD
ENDBRANCH   4   8
ENDBRANCH   1   4
BRANCH   1  10
ATOM     10  C   UNL     1       8.808   0.163  22.012  0.00  0.00    +0.071 C 
BRANCH  10  11
ATOM     11  C   UNL     1      10.082   0.976  22.293  0.00  0.00    +0.162 C 
BRANCH  11  12
ATOM     12  C   UNL     1      10.342   1.323  23.788  0.00  0.00    +0.070 C 
ATOM     13  O   UNL     1      11.265   0.654  24.354  0.00  0.00    -0.547 OA
ATOM     14  O   UNL     1       9.563   2.161  24.335  0.00  0.00    -0.547 OA
ENDBRANCH  11  12
BRANCH  11  15
ATOM     15  O   UNL     1      10.075   2.170  21.467  0.00  0.00    -0.386 OA
ATOM     16  H   UNL     1      10.674   2.773  21.918  0.00  0.00    +0.210 HD
ENDBRANCH  11  15
ENDBRANCH  10  11
ENDBRANCH   1  10
TORSDOF 8
ENDMDL
MODEL 3
REMARK VINA RESULT:      -4.4      2.678      6.098
REMARK  Name = 
REMARK  8 active torsions:
REMARK  status: ('A' for Active; 'I' for Inactive)
REMARK    1  A    between atoms: O_1  and  C_2
REMARK    2  A    between atoms: C_2  and  C_4
REMARK    3  A    between atoms: C_2  and  C_11
REMARK    4  A    between atoms: C_4  and  C_5
REMARK    5  A    between atoms: C_5  and  O_7
REMARK    6  A    between atoms: C_5  and  C_8
REMARK    7  A    between atoms: C_11  and  O_13
REMARK    8  A    between atoms: C_11  and  C_14
REMARK                            x       y       z     vdW  Elec       q    Type
REMARK                         _______ _______ _______ _____ _____    ______ ____
ROOT
ATOM      1  C   UNL     1       9.344  -3.493  24.806  0.00  0.00    +0.151 C 
ENDROOT
BRANCH   1   2
ATOM      2  O   UNL     1       8.651  -2.871  25.915  0.00  0.00    -0.389 OA
ATOM      3  H   UNL     1       8.993  -3.355  26.696  0.00  0.00    +0.210 HD
ENDBRANCH   1   2
BRANCH   1   4
ATOM      4  C   UNL     1       8.903  -4.954  24.791  0.00  0.00    +0.188 C 
BRANCH   4   5
ATOM      5  C   UNL     1       7.584  -5.194  25.574  0.00  0.00    +0.073 C 
ATOM      6  O   UNL     1       6.528  -4.769  25.020  0.00  0.00    -0.547 OA
ATOM      7  O   UNL     1       7.730  -5.749  26.706  0.00  0.00    -0.547 OA
ENDBRANCH   4   5
BRANCH   4   8
ATOM      8  O   UNL     1      10.025  -5.789  25.224  0.00  0.00    -0.383 OA
ATOM      9  H   UNL     1      10.356  -6.188  24.395  0.00  0.00    +0.210 HD
ENDBRANCH   4   8
ENDBRANCH   1   4
BRANCH   1  10
ATOM     10  C   UNL     1       9.021  -2.696  23.525  0.00  0.00    +0.071 C 
BRANCH  10  11
ATOM     11  C   UNL     1      10.166  -1.759  23.110  0.00  0.00    +0.162 C 
BRANCH  11  12
ATOM     12  C   UNL     1      10.124  -0.331  23.730  0.00  0.00    +0.070 C 
ATOM     13  O   UNL     1      10.231   0.629  22.901  0.00  0.00    -0.547 OA
ATOM     14  O   UNL     1      10.085  -0.246  24.994  0.00  0.00    -0.547 OA
ENDBRANCH  11  12
BRANCH  11  15
ATOM     15  O   UNL     1      10.232  -1.703  21.661  0.00  0.00    -0.386 OA
ATOM     16  H   UNL     1       9.571  -2.339  21.369  0.00  0.00    +0.210 HD
ENDBRANCH  11  15
ENDBRANCH  10  11
ENDBRANCH   1  10
TORSDOF 8
ENDMDL
MODEL 4
REMARK VINA RESULT:      -4.3      1.655      2.508
REMARK  Name = 
REMARK  8 active torsions:
REMARK  status: ('A' for Active; 'I' for Inactive)
REMARK    1  A    between atoms: O_1  and  C_2
REMARK    2  A    between atoms: C_2  and  C_4
REMARK    3  A    between atoms: C_2  and  C_11
REMARK    4  A    between atoms: C_4  and  C_5
REMARK    5  A    between atoms: C_5  and  O_7
REMARK    6  A    between atoms: C_5  and  C_8
REMARK    7  A    between atoms: C_11  and  O_13
REMARK    8  A    between atoms: C_11  and  C_14
REMARK                            x       y       z     vdW  Elec       q    Type
REMARK                         _______ _______ _______ _____ _____    ______ ____
ROOT
ATOM      1  C   UNL     1       9.766   1.549  22.181  0.00  0.00    +0.151 C 
ENDROOT
BRANCH   1   2
ATOM      2  O   UNL     1       9.054   1.042  21.026  0.00  0.00    -0.389 OA
ATOM      3  H   UNL     1       9.141   0.070  21.115  0.00  0.00    +0.210 HD
ENDBRANCH   1   2
BRANCH   1   4
ATOM      4  C   UNL     1       8.769   2.409  22.954  0.00  0.00    +0.188 C 
BRANCH   4   5
ATOM      5  C   UNL     1       7.299   2.171  22.514  0.00  0.00    +0.073 C 
ATOM      6  O   UNL     1       6.776   1.085  22.901  0.00  0.00    -0.547 OA
ATOM      7  O   UNL     1       6.812   3.079  21.773  0.00  0.00    -0.547 OA
ENDBRANCH   4   5
BRANCH   4   8
ATOM      8  O   UNL     1       9.203   3.806  22.889  0.00  0.00    -0.383 OA
ATOM      9  H   UNL     1       9.742   3.847  22.074  0.00  0.00    +0.210 HD
ENDBRANCH   4   8
ENDBRANCH   1   4
BRANCH   1  10
ATOM     10  C   UNL     1      10.340   0.348  22.962  0.00  0.00    +0.071 C 
BRANCH  10  11
ATOM     11  C   UNL     1       9.616  -0.967  22.635  0.00  0.00    +0.162 C 
BRANCH  11  12
ATOM     12  C   UNL     1       9.477  -1.971  23.816  0.00  0.00    +0.070 C 
ATOM     13  O   UNL     1       8.685  -1.616  24.747  0.00  0.00    -0.547 OA
ATOM     14  O   UNL     1      10.224  -2.996  23.800  0.00  0.00    -0.547 OA
ENDBRANCH  11  12
BRANCH  11  15
ATOM     15  O   UNL     1      10.254  -1.587  21.487  0.00  0.00    -0.386 OA
ATOM     16  H   UNL     1       9.580  -2.174  21.130  0.00  0.00    +0.210 HD
ENDBRANCH  11  15
ENDBRANCH  10  11
ENDBRANCH   1  10
TORSDOF 8
ENDMDL
MODEL 5
REMARK VINA RESULT:      -4.3      2.507      4.257
REMARK  Name = 
REMARK  8 active torsions:
REMARK  status: ('A' for Active; 'I' for Inactive)
REMARK    1  A    between atoms: O_1  and  C_2
REMARK    2  A    between atoms: C_2  and  C_4
REMARK    3  A    between atoms: C_2  and  C_11
REMARK    4  A    between atoms: C_4  and  C_5
REMARK    5  A    between atoms: C_5  and  O_7
REMARK    6  A    between atoms: C_5  and  C_8
REMARK    7  A    between atoms: C_11  and  O_13
REMARK    8  A    between atoms: C_11  and  C_14
REMARK                            x       y       z     vdW  Elec       q    Type
REMARK                         _______ _______ _______ _____ _____    ______ ____
ROOT
ATOM      1  C   UNL     1       9.082  -2.530  23.470  0.00  0.00    +0.151 C 
ENDROOT
BRANCH   1   2
ATOM      2  O   UNL     1       8.037  -1.674  23.990  0.00  0.00    -0.389 OA
ATOM      3  H   UNL     1       8.486  -1.175  24.705  0.00  0.00    +0.210 HD
ENDBRANCH   1   2
BRANCH   1   4
ATOM      4  C   UNL     1      10.173  -1.600  22.944  0.00  0.00    +0.188 C 
BRANCH   4   5
ATOM      5  C   UNL     1      10.104  -0.179  23.563  0.00  0.00    +0.073 C 
ATOM      6  O   UNL     1      10.523  -0.073  24.754  0.00  0.00    -0.547 OA
ATOM      7  O   UNL     1       9.587   0.704  22.813  0.00  0.00    -0.547 OA
ENDBRANCH   4   5
BRANCH   4   8
ATOM      8  O   UNL     1      10.149  -1.626  21.481  0.00  0.00    -0.383 OA
ATOM      9  H   UNL     1       9.491  -2.317  21.268  0.00  0.00    +0.210 HD
ENDBRANCH   4   8
ENDBRANCH   1   4
BRANCH   1  10
ATOM     10  C   UNL     1       9.525  -3.492  24.592  0.00  0.00    +0.071 C 
BRANCH  10  11
ATOM     11  C   UNL     1       8.758  -4.824  24.562  0.00  0.00    +0.162 C 
BRANCH  11  12
ATOM     12  C   UNL     1       7.590  -4.951  25.584  0.00  0.00    +0.070 C 
ATOM     13  O   UNL     1       6.639  -4.118  25.435  0.00  0.00    -0.547 OA
ATOM     14  O   UNL     1       7.725  -5.794  26.521  0.00  0.00    -0.547 OA
ENDBRANCH  11  12
BRANCH  11  15
ATOM     15  O   UNL     1       9.701  -5.918  24.700  0.00  0.00    -0.386 OA
ATOM     16  H   UNL     1      10.214  -5.692  25.482  0.00  0.00    +0.210 HD
ENDBRANCH  11  15
ENDBRANCH  10  11
ENDBRANCH   1  10
TORSDOF 8
ENDMDL
MODEL 6
REMARK VINA RESULT:      -4.3      5.781      7.327
REMARK  Name = 
REMARK  8 active torsions:
REMARK  status: ('A' for Active; 'I' for Inactive)
REMARK    1  A    between atoms: O_1  and  C_2
REMARK    2  A    between atoms: C_2  and  C_4
REMARK    3  A    between atoms: C_2  and  C_11
REMARK    4  A    between atoms: C_4  and  C_5
REMARK    5  A    between atoms: C_5  and  O_7
REMARK    6  A    between atoms: C_5  and  C_8
REMARK    7  A    between atoms: C_11  and  O_13
REMARK    8  A    between atoms: C_11  and  C_14
REMARK                            x       y       z     vdW  Elec       q    Type
REMARK                         _______ _______ _______ _____ _____    ______ ____
ROOT
ATOM      1  C   UNL     1       6.943  -4.288  24.006  0.00  0.00    +0.151 C 
ENDROOT
BRANCH   1   2
ATOM      2  O   UNL     1       6.686  -3.319  22.961  0.00  0.00    -0.389 OA
ATOM      3  H   UNL     1       7.584  -3.036  22.688  0.00  0.00    +0.210 HD
ENDBRANCH   1   2
BRANCH   1   4
ATOM      4  C   UNL     1       6.093  -5.512  23.672  0.00  0.00    +0.188 C 
BRANCH   4   5
ATOM      5  C   UNL     1       5.171  -5.289  22.443  0.00  0.00    +0.073 C 
ATOM      6  O   UNL     1       5.657  -5.618  21.321  0.00  0.00    -0.547 OA
ATOM      7  O   UNL     1       4.051  -4.754  22.708  0.00  0.00    -0.547 OA
ENDBRANCH   4   5
BRANCH   4   8
ATOM      8  O   UNL     1       5.394  -5.943  24.884  0.00  0.00    -0.383 OA
ATOM      9  H   UNL     1       4.570  -6.350  24.549  0.00  0.00    +0.210 HD
ENDBRANCH   4   8
ENDBRANCH   1   4
BRANCH   1  10
ATOM     10  C   UNL     1       8.464  -4.543  24.067  0.00  0.00    +0.071 C 
BRANCH  10  11
ATOM     11  C   UNL     1       8.863  -5.439  25.251  0.00  0.00    +0.162 C 
BRANCH  11  12
ATOM     12  C   UNL     1       8.290  -5.019  26.636  0.00  0.00    +0.070 C 
ATOM     13  O   UNL     1       7.479  -5.844  27.166  0.00  0.00    -0.547 OA
ATOM     14  O   UNL     1       8.598  -3.868  27.068  0.00  0.00    -0.547 OA
ENDBRANCH  11  12
BRANCH  11  15
ATOM     15  O   UNL     1      10.310  -5.555  25.291  0.00  0.00    -0.386 OA
ATOM     16  H   UNL     1      10.606  -5.104  24.494  0.00  0.00    +0.210 HD
ENDBRANCH  11  15
ENDBRANCH  10  11
ENDBRANCH   1  10
TORSDOF 8
ENDMDL
MODEL 7
REMARK VINA RESULT:      -4.3      3.034      4.828
REMARK  Name = 
REMARK  8 active torsions:
REMARK  status: ('A' for Active; 'I' for Inactive)
REMARK    1  A    between atoms: O_1  and  C_2
REMARK    2  A    between atoms: C_2  and  C_4
REMARK    3  A    between atoms: C_2  and  C_11
REMARK    4  A    between atoms: C_4  and  C_5
REMARK    5  A    between atoms: C_5  and  O_7
REMARK    6  A    between atoms: C_5  and  C_8
REMARK    7  A    between atoms: C_11  and  O_13
REMARK    8  A    between atoms: C_11  and  C_14
REMARK                            x       y       z     vdW  Elec       q    Type
REMARK                         _______ _______ _______ _____ _____    ______ ____
ROOT
ATOM      1  C   UNL     1       7.630  -1.530  22.602  0.00  0.00    +0.151 C 
ENDROOT
BRANCH   1   2
ATOM      2  O   UNL     1       7.737  -1.269  24.022  0.00  0.00    -0.389 OA
ATOM      3  H   UNL     1       7.837  -2.164  24.410  0.00  0.00    +0.210 HD
ENDBRANCH   1   2
BRANCH   1   4
ATOM      4  C   UNL     1       9.049  -1.801  22.109  0.00  0.00    +0.188 C 
BRANCH   4   5
ATOM      5  C   UNL     1      10.095  -1.805  23.255  0.00  0.00    +0.073 C 
ATOM      6  O   UNL     1      10.293  -2.922  23.819  0.00  0.00    -0.547 OA
ATOM      7  O   UNL     1      10.594  -0.670  23.524  0.00  0.00    -0.547 OA
ENDBRANCH   4   5
BRANCH   4   8
ATOM      8  O   UNL     1       9.352  -0.878  21.015  0.00  0.00    -0.383 OA
ATOM      9  H   UNL     1       9.848  -0.155  21.447  0.00  0.00    +0.210 HD
ENDBRANCH   4   8
ENDBRANCH   1   4
BRANCH   1  10
ATOM     10  C   UNL     1       6.630  -2.687  22.395  0.00  0.00    +0.071 C 
BRANCH  10  11
ATOM     11  C   UNL     1       7.287  -4.067  22.555  0.00  0.00    +0.162 C 
BRANCH  11  12
ATOM     12  C   UNL     1       6.481  -5.267  21.976  0.00  0.00    +0.070 C 
ATOM     13  O   UNL     1       5.257  -5.031  21.718  0.00  0.00    -0.547 OA
ATOM     14  O   UNL     1       7.074  -6.384  21.902  0.00  0.00    -0.547 OA
ENDBRANCH  11  12
BRANCH  11  15
ATOM     15  O   UNL     1       7.615  -4.277  23.954  0.00  0.00    -0.386 OA
ATOM     16  H   UNL     1       8.429  -3.781  24.083  0.00  0.00    +0.210 HD
ENDBRANCH  11  15
ENDBRANCH  10  11
ENDBRANCH   1  10
TORSDOF 8
ENDMDL
MODEL 8
REMARK VINA RESULT:      -4.2      5.223      6.918
REMARK  Name = 
REMARK  8 active torsions:
REMARK  status: ('A' for Active; 'I' for Inactive)
REMARK    1  A    between atoms: O_1  and  C_2
REMARK    2  A    between atoms: C_2  and  C_4
REMARK    3  A    between atoms: C_2  and  C_11
REMARK    4  A    between atoms: C_4  and  C_5
REMARK    5  A    between atoms: C_5  and  O_7
REMARK    6  A    between atoms: C_5  and  C_8
REMARK    7  A    between atoms: C_11  and  O_13
REMARK    8  A    between atoms: C_11  and  C_14
REMARK                            x       y       z     vdW  Elec       q    Type
REMARK                         _______ _______ _______ _____ _____    ______ ____
ROOT
ATOM      1  C   UNL     1       8.536  -3.650  24.338  0.00  0.00    +0.151 C 
ENDROOT
BRANCH   1   2
ATOM      2  O   UNL     1       7.712  -2.970  25.314  0.00  0.00    -0.389 OA
ATOM      3  H   UNL     1       6.963  -3.588  25.450  0.00  0.00    +0.210 HD
ENDBRANCH   1   2
BRANCH   1   4
ATOM      4  C   UNL     1       8.756  -5.062  24.875  0.00  0.00    +0.188 C 
BRANCH   4   5
ATOM      5  C   UNL     1       7.999  -5.327  26.203  0.00  0.00    +0.073 C 
ATOM      6  O   UNL     1       6.874  -5.899  26.093  0.00  0.00    -0.547 OA
ATOM      7  O   UNL     1       8.580  -4.893  27.244  0.00  0.00    -0.547 OA
ENDBRANCH   4   5
BRANCH   4   8
ATOM      8  O   UNL     1      10.196  -5.324  24.935  0.00  0.00    -0.383 OA
ATOM      9  H   UNL     1      10.371  -5.861  24.138  0.00  0.00    +0.210 HD
ENDBRANCH   4   8
ENDBRANCH   1   4
BRANCH   1  10
ATOM     10  C   UNL     1       7.831  -3.571  22.968  0.00  0.00    +0.071 C 
BRANCH  10  11
ATOM     11  C   UNL     1       6.716  -4.618  22.819  0.00  0.00    +0.162 C 
BRANCH  11  12
ATOM     12  C   UNL     1       6.143  -4.792  21.382  0.00  0.00    +0.070 C 
ATOM     13  O   UNL     1       5.628  -3.748  20.868  0.00  0.00    -0.547 OA
ATOM     14  O   UNL     1       6.151  -5.960  20.889  0.00  0.00    -0.547 OA
ENDBRANCH  11  12
BRANCH  11  15
ATOM     15  O   UNL     1       5.663  -4.329  23.776  0.00  0.00    -0.386 OA
ATOM     16  H   UNL     1       5.629  -5.112  24.334  0.00  0.00    +0.210 HD
ENDBRANCH  11  15
ENDBRANCH  10  11
ENDBRANCH   1  10
TORSDOF 8
ENDMDL
MODEL 9
REMARK VINA RESULT:      -4.2      1.608      2.212
REMARK  Name = 
REMARK  8 active torsions:
REMARK  status: ('A' for Active; 'I' for Inactive)
REMARK    1  A    between atoms: O_1  and  C_2
REMARK    2  A    between atoms: C_2  and  C_4
REMARK    3  A    between atoms: C_2  and  C_11
REMARK    4  A    between atoms: C_4  and  C_5
REMARK    5  A    between atoms: C_5  and  O_7
REMARK    6  A    between atoms: C_5  and  C_8
REMARK    7  A    between atoms: C_11  and  O_13
REMARK    8  A    between atoms: C_11  and  C_14
REMARK                            x       y       z     vdW  Elec       q    Type
REMARK                         _______ _______ _______ _____ _____    ______ ____
ROOT
ATOM      1  C   UNL     1      10.300   1.948  22.261  0.00  0.00    +0.151 C 
ENDROOT
BRANCH   1   2
ATOM      2  O   UNL     1       9.035   2.264  21.633  0.00  0.00    -0.389 OA
ATOM      3  H   UNL     1       9.267   2.978  21.002  0.00  0.00    +0.210 HD
ENDBRANCH   1   2
BRANCH   1   4
ATOM      4  C   UNL     1      10.506   2.991  23.357  0.00  0.00    +0.188 C 
BRANCH   4   5
ATOM      5  C   UNL     1       9.171   3.582  23.884  0.00  0.00    +0.073 C 
ATOM      6  O   UNL     1       8.868   4.734  23.453  0.00  0.00    -0.547 OA
ATOM      7  O   UNL     1       8.563   2.855  24.728  0.00  0.00    -0.547 OA
ENDBRANCH   4   5
BRANCH   4   8
ATOM      8  O   UNL     1      11.465   3.990  22.881  0.00  0.00    -0.383 OA
ATOM      9  H   UNL     1      12.292   3.766  23.353  0.00  0.00    +0.210 HD
ENDBRANCH   4   8
ENDBRANCH   1   4
BRANCH   1  10
ATOM     10  C   UNL     1      10.247   0.485  22.750  0.00  0.00    +0.071 C 
BRANCH  10  11
ATOM     11  C   UNL     1       9.366  -0.402  21.856  0.00  0.00    +0.162 C 
BRANCH  11  12
ATOM     12  C   UNL     1       8.015  -0.856  22.482  0.00  0.00    +0.070 C 
ATOM     13  O   UNL     1       7.355   0.053  23.081  0.00  0.00    -0.547 OA
ATOM     14  O   UNL     1       7.734  -2.091  22.427  0.00  0.00    -0.547 OA
ENDBRANCH  11  12
BRANCH  11  15
ATOM     15  O   UNL     1      10.145  -1.539  21.401  0.00  0.00    -0.386 OA
ATOM     16  H   UNL     1      11.059  -1.275  21.550  0.00  0.00    +0.210 HD
ENDBRANCH  11  15
ENDBRANCH  10  11
ENDBRANCH   1  10
TORSDOF 8
ENDMDL
