MODEL 1
REMARK VINA RESULT:      -6.7      0.000      0.000
REMARK  Name = 
REMARK  3 active torsions:
REMARK  status: ('A' for Active; 'I' for Inactive)
REMARK    1  A    between atoms: N_4  and  N_5
REMARK    2  A    between atoms: N_8  and  C_9
REMARK    3  A    between atoms: N_8  and  C_15
REMARK                            x       y       z     vdW  Elec       q    Type
REMARK                         _______ _______ _______ _____ _____    ______ ____
ROOT
ATOM      1  N   UNL     1      11.259   4.494  22.917  0.00  0.00    -0.161 N 
ATOM      2  H   UNL     1      11.177   3.900  22.087  0.00  0.00    +0.193 HD
ATOM      3  C   UNL     1      10.163   4.656  23.756  0.00  0.00    +0.340 C 
ATOM      4  N   UNL     1       9.273   3.570  23.826  0.00  0.00    -0.222 N 
ATOM      5  O   UNL     1      10.039   5.726  24.361  0.00  0.00    -0.249 OA
ENDROOT
BRANCH   1  10
ATOM      6  N   UNL     1      13.941   6.597  21.977  0.00  0.00    -0.288 N 
ATOM      7  H   UNL     1      13.421   7.464  21.910  0.00  0.00    +0.255 HD
ATOM      8  H   UNL     1      14.913   6.757  22.205  0.00  0.00    +0.255 HD
ATOM      9  C   UNL     1      13.322   5.613  22.673  0.00  0.00    +0.396 C 
ATOM     10  N   UNL     1      11.960   5.711  22.642  0.00  0.00    -0.182 N 
ATOM     11  H   UNL     1      11.583   6.140  21.792  0.00  0.00    +0.288 HD
ATOM     12  N   UNL     1      13.971   4.693  23.298  0.00  0.00    -0.128 NA
ATOM     13  H   UNL     1      14.974   4.848  23.170  0.00  0.00    +0.306 HD
ENDBRANCH   1  10
BRANCH   4  14
ATOM     14  C   UNL     1       7.980   3.697  24.470  0.00  0.00    +0.043 A 
ATOM     15  C   UNL     1       7.820   3.574  25.864  0.00  0.00    +0.024 A 
ATOM     16  C   UNL     1       6.574   3.747  26.480  0.00  0.00    +0.002 A 
ATOM     17  C   UNL     1       5.454   4.050  25.715  0.00  0.00    +0.000 A 
ATOM     18  C   UNL     1       5.580   4.167  24.337  0.00  0.00    +0.002 A 
ATOM     19  C   UNL     1       6.826   3.985  23.724  0.00  0.00    +0.024 A 
ENDBRANCH   4  14
BRANCH   4  20
ATOM     20  C   UNL     1       9.675   2.250  23.466  0.00  0.00    +0.043 A 
ATOM     21  C   UNL     1       9.434   1.769  22.171  0.00  0.00    +0.024 A 
ATOM     22  C   UNL     1       9.777   0.458  21.833  0.00  0.00    +0.002 A 
ATOM     23  C   UNL     1      10.346  -0.382  22.791  0.00  0.00    +0.000 A 
ATOM     24  C   UNL     1      10.585   0.089  24.081  0.00  0.00    +0.002 A 
ATOM     25  C   UNL     1      10.265   1.407  24.416  0.00  0.00    +0.024 A 
ENDBRANCH   4  20
TORSDOF 3
ENDMDL
MODEL 2
REMARK VINA RESULT:      -6.5      7.232      9.655
REMARK  Name = 
REMARK  3 active torsions:
REMARK  status: ('A' for Active; 'I' for Inactive)
REMARK    1  A    between atoms: N_4  and  N_5
REMARK    2  A    between atoms: N_8  and  C_9
REMARK    3  A    between atoms: N_8  and  C_15
REMARK                            x       y       z     vdW  Elec       q    Type
REMARK                         _______ _______ _______ _____ _____    ______ ____
ROOT
ATOM      1  N   UNL     1       7.242  -5.613  26.267  0.00  0.00    -0.161 N 
ATOM      2  H   UNL     1       7.485  -6.352  25.602  0.00  0.00    +0.193 HD
ATOM      3  C   UNL     1       7.597  -4.298  25.991  0.00  0.00    +0.340 C 
ATOM      4  N   UNL     1       7.658  -3.948  24.630  0.00  0.00    -0.222 N 
ATOM      5  O   UNL     1       7.843  -3.544  26.938  0.00  0.00    -0.249 OA
ENDROOT
BRANCH   1  10
ATOM      6  N   UNL     1       6.637  -7.114  29.410  0.00  0.00    -0.288 N 
ATOM      7  H   UNL     1       7.566  -7.006  29.798  0.00  0.00    +0.255 HD
ATOM      8  H   UNL     1       5.928  -7.137  30.131  0.00  0.00    +0.255 HD
ATOM      9  C   UNL     1       6.369  -6.328  28.339  0.00  0.00    +0.396 C 
ATOM     10  N   UNL     1       7.486  -6.003  27.622  0.00  0.00    -0.182 N 
ATOM     11  H   UNL     1       8.229  -6.707  27.649  0.00  0.00    +0.288 HD
ATOM     12  N   UNL     1       5.178  -5.933  28.050  0.00  0.00    -0.128 NA
ATOM     13  H   UNL     1       4.526  -6.307  28.744  0.00  0.00    +0.306 HD
ENDBRANCH   1  10
BRANCH   4  14
ATOM     14  C   UNL     1       8.242  -2.691  24.202  0.00  0.00    +0.043 A 
ATOM     15  C   UNL     1       9.628  -2.538  23.998  0.00  0.00    +0.024 A 
ATOM     16  C   UNL     1      10.175  -1.333  23.538  0.00  0.00    +0.002 A 
ATOM     17  C   UNL     1       9.348  -0.250  23.270  0.00  0.00    +0.000 A 
ATOM     18  C   UNL     1       7.979  -0.368  23.473  0.00  0.00    +0.002 A 
ATOM     19  C   UNL     1       7.437  -1.571  23.941  0.00  0.00    +0.024 A 
ENDBRANCH   4  14
BRANCH   4  20
ATOM     20  C   UNL     1       6.969  -4.699  23.634  0.00  0.00    +0.043 A 
ATOM     21  C   UNL     1       7.686  -5.356  22.623  0.00  0.00    +0.024 A 
ATOM     22  C   UNL     1       7.009  -6.045  21.616  0.00  0.00    +0.002 A 
ATOM     23  C   UNL     1       5.614  -6.067  21.603  0.00  0.00    +0.000 A 
ATOM     24  C   UNL     1       4.895  -5.413  22.602  0.00  0.00    +0.002 A 
ATOM     25  C   UNL     1       5.568  -4.743  23.626  0.00  0.00    +0.024 A 
ENDBRANCH   4  20
TORSDOF 3
ENDMDL
MODEL 3
REMARK VINA RESULT:      -6.4      6.743      9.259
REMARK  Name = 
REMARK  3 active torsions:
REMARK  status: ('A' for Active; 'I' for Inactive)
REMARK    1  A    between atoms: N_4  and  N_5
REMARK    2  A    between atoms: N_8  and  C_9
REMARK    3  A    between atoms: N_8  and  C_15
REMARK                            x       y       z     vdW  Elec       q    Type
REMARK                         _______ _______ _______ _____ _____    ______ ____
ROOT
ATOM      1  N   UNL     1       5.507  -4.637  23.286  0.00  0.00    -0.161 N 
ATOM      2  H   UNL     1       5.447  -4.582  24.306  0.00  0.00    +0.193 HD
ATOM      3  C   UNL     1       6.100  -3.600  22.576  0.00  0.00    +0.340 C 
ATOM      4  N   UNL     1       7.118  -2.897  23.245  0.00  0.00    -0.222 N 
ATOM      5  O   UNL     1       5.693  -3.361  21.434  0.00  0.00    -0.249 OA
ENDROOT
BRANCH   1  10
ATOM      6  N   UNL     1       2.551  -6.549  22.958  0.00  0.00    -0.288 N 
ATOM      7  H   UNL     1       2.149  -6.051  22.172  0.00  0.00    +0.255 HD
ATOM      8  H   UNL     1       2.248  -7.514  22.987  0.00  0.00    +0.255 HD
ATOM      9  C   UNL     1       3.875  -6.336  23.152  0.00  0.00    +0.396 C 
ATOM     10  N   UNL     1       4.294  -5.118  22.698  0.00  0.00    -0.182 N 
ATOM     11  H   UNL     1       3.581  -4.383  22.732  0.00  0.00    +0.288 HD
ATOM     12  N   UNL     1       4.643  -7.210  23.703  0.00  0.00    -0.128 NA
ATOM     13  H   UNL     1       4.089  -8.035  23.945  0.00  0.00    +0.306 HD
ENDBRANCH   1  10
BRANCH   4  14
ATOM     14  C   UNL     1       7.647  -1.655  22.716  0.00  0.00    +0.043 A 
ATOM     15  C   UNL     1       7.040  -0.410  22.975  0.00  0.00    +0.024 A 
ATOM     16  C   UNL     1       7.587   0.788  22.498  0.00  0.00    +0.002 A 
ATOM     17  C   UNL     1       8.758   0.771  21.750  0.00  0.00    +0.000 A 
ATOM     18  C   UNL     1       9.372  -0.443  21.470  0.00  0.00    +0.002 A 
ATOM     19  C   UNL     1       8.818  -1.639  21.941  0.00  0.00    +0.024 A 
ENDBRANCH   4  14
BRANCH   4  20
ATOM     20  C   UNL     1       7.820  -3.468  24.346  0.00  0.00    +0.043 A 
ATOM     21  C   UNL     1       8.616  -4.608  24.160  0.00  0.00    +0.024 A 
ATOM     22  C   UNL     1       9.260  -5.201  25.248  0.00  0.00    +0.002 A 
ATOM     23  C   UNL     1       9.099  -4.669  26.527  0.00  0.00    +0.000 A 
ATOM     24  C   UNL     1       8.306  -3.537  26.720  0.00  0.00    +0.002 A 
ATOM     25  C   UNL     1       7.680  -2.927  25.631  0.00  0.00    +0.024 A 
ENDBRANCH   4  20
TORSDOF 3
ENDMDL
MODEL 4
REMARK VINA RESULT:      -6.3      2.636      5.134
REMARK  Name = 
REMARK  3 active torsions:
REMARK  status: ('A' for Active; 'I' for Inactive)
REMARK    1  A    between atoms: N_4  and  N_5
REMARK    2  A    between atoms: N_8  and  C_9
REMARK    3  A    between atoms: N_8  and  C_15
REMARK                            x       y       z     vdW  Elec       q    Type
REMARK                         _______ _______ _______ _____ _____    ______ ____
ROOT
ATOM      1  N   UNL     1       6.897   3.283  22.363  0.00  0.00    -0.161 N 
ATOM      2  H   UNL     1       6.806   2.495  23.010  0.00  0.00    +0.193 HD
ATOM      3  C   UNL     1       7.800   4.301  22.644  0.00  0.00    +0.340 C 
ATOM      4  N   UNL     1       8.946   3.926  23.369  0.00  0.00    -0.222 N 
ATOM      5  O   UNL     1       7.537   5.445  22.258  0.00  0.00    -0.249 OA
ENDROOT
BRANCH   1  10
ATOM      6  N   UNL     1       3.480   4.179  22.506  0.00  0.00    -0.288 N 
ATOM      7  H   UNL     1       3.416   4.634  21.603  0.00  0.00    +0.255 HD
ATOM      8  H   UNL     1       2.591   3.792  22.796  0.00  0.00    +0.255 HD
ATOM      9  C   UNL     1       4.559   3.375  22.667  0.00  0.00    +0.396 C 
ATOM     10  N   UNL     1       5.625   3.753  21.902  0.00  0.00    -0.182 N 
ATOM     11  H   UNL     1       5.679   4.757  21.712  0.00  0.00    +0.288 HD
ATOM     12  N   UNL     1       4.554   2.361  23.460  0.00  0.00    -0.128 NA
ATOM     13  H   UNL     1       3.637   2.293  23.908  0.00  0.00    +0.306 HD
ENDBRANCH   1  10
BRANCH   4  14
ATOM     14  C   UNL     1       9.840   4.921  23.929  0.00  0.00    +0.043 A 
ATOM     15  C   UNL     1       9.439   5.797  24.957  0.00  0.00    +0.024 A 
ATOM     16  C   UNL     1      10.326   6.722  25.523  0.00  0.00    +0.002 A 
ATOM     17  C   UNL     1      11.640   6.792  25.076  0.00  0.00    +0.000 A 
ATOM     18  C   UNL     1      12.060   5.948  24.056  0.00  0.00    +0.002 A 
ATOM     19  C   UNL     1      11.168   5.031  23.487  0.00  0.00    +0.024 A 
ENDBRANCH   4  14
BRANCH   4  20
ATOM     20  C   UNL     1       9.397   2.574  23.407  0.00  0.00    +0.043 A 
ATOM     21  C   UNL     1       9.744   1.912  22.220  0.00  0.00    +0.024 A 
ATOM     22  C   UNL     1      10.132   0.572  22.250  0.00  0.00    +0.002 A 
ATOM     23  C   UNL     1      10.159  -0.118  23.462  0.00  0.00    +0.000 A 
ATOM     24  C   UNL     1       9.811   0.532  24.646  0.00  0.00    +0.002 A 
ATOM     25  C   UNL     1       9.446   1.880  24.623  0.00  0.00    +0.024 A 
ENDBRANCH   4  20
TORSDOF 3
ENDMDL
MODEL 5
REMARK VINA RESULT:      -6.0      6.427      7.961
REMARK  Name = 
REMARK  3 active torsions:
REMARK  status: ('A' for Active; 'I' for Inactive)
REMARK    1  A    between atoms: N_4  and  N_5
REMARK    2  A    between atoms: N_8  and  C_9
REMARK    3  A    between atoms: N_8  and  C_15
REMARK                            x       y       z     vdW  Elec       q    Type
REMARK                         _______ _______ _______ _____ _____    ______ ____
ROOT
ATOM      1  N   UNL     1       8.440  -2.221  23.814  0.00  0.00    -0.161 N 
ATOM      2  H   UNL     1       7.709  -2.185  23.098  0.00  0.00    +0.193 HD
ATOM      3  C   UNL     1       8.141  -2.723  25.075  0.00  0.00    +0.340 C 
ATOM      4  N   UNL     1       7.141  -3.711  25.125  0.00  0.00    -0.222 N 
ATOM      5  O   UNL     1       8.752  -2.270  26.049  0.00  0.00    -0.249 OA
ENDROOT
BRANCH   1  10
ATOM      6  N   UNL     1      10.177   0.595  22.569  0.00  0.00    -0.288 N 
ATOM      7  H   UNL     1      10.342   1.061  23.454  0.00  0.00    +0.255 HD
ATOM      8  H   UNL     1      10.886   0.825  21.885  0.00  0.00    +0.255 HD
ATOM      9  C   UNL     1       9.847  -0.715  22.665  0.00  0.00    +0.396 C 
ATOM     10  N   UNL     1       9.228  -1.026  23.842  0.00  0.00    -0.182 N 
ATOM     11  H   UNL     1       8.680  -0.263  24.249  0.00  0.00    +0.288 HD
ATOM     12  N   UNL     1      10.107  -1.565  21.733  0.00  0.00    -0.128 NA
ATOM     13  H   UNL     1      10.579  -1.082  20.965  0.00  0.00    +0.306 HD
ENDBRANCH   1  10
BRANCH   4  14
ATOM     14  C   UNL     1       6.572  -4.141  26.387  0.00  0.00    +0.043 A 
ATOM     15  C   UNL     1       5.526  -3.438  27.018  0.00  0.00    +0.024 A 
ATOM     16  C   UNL     1       4.952  -3.890  28.213  0.00  0.00    +0.002 A 
ATOM     17  C   UNL     1       5.408  -5.060  28.807  0.00  0.00    +0.000 A 
ATOM     18  C   UNL     1       6.446  -5.768  28.214  0.00  0.00    +0.002 A 
ATOM     19  C   UNL     1       7.023  -5.309  27.024  0.00  0.00    +0.024 A 
ENDBRANCH   4  14
BRANCH   4  20
ATOM     20  C   UNL     1       6.793  -4.480  23.976  0.00  0.00    +0.043 A 
ATOM     21  C   UNL     1       7.749  -5.300  23.360  0.00  0.00    +0.024 A 
ATOM     22  C   UNL     1       7.425  -6.011  22.203  0.00  0.00    +0.002 A 
ATOM     23  C   UNL     1       6.151  -5.892  21.647  0.00  0.00    +0.000 A 
ATOM     24  C   UNL     1       5.197  -5.075  22.252  0.00  0.00    +0.002 A 
ATOM     25  C   UNL     1       5.509  -4.382  23.423  0.00  0.00    +0.024 A 
ENDBRANCH   4  20
TORSDOF 3
ENDMDL
MODEL 6
REMARK VINA RESULT:      -5.9      1.921      4.413
REMARK  Name = 
REMARK  3 active torsions:
REMARK  status: ('A' for Active; 'I' for Inactive)
REMARK    1  A    between atoms: N_4  and  N_5
REMARK    2  A    between atoms: N_8  and  C_9
REMARK    3  A    between atoms: N_8  and  C_15
REMARK                            x       y       z     vdW  Elec       q    Type
REMARK                         _______ _______ _______ _____ _____    ______ ____
ROOT
ATOM      1  N   UNL     1      10.353   3.926  23.303  0.00  0.00    -0.161 N 
ATOM      2  H   UNL     1      10.247   4.346  24.231  0.00  0.00    +0.193 HD
ATOM      3  C   UNL     1       9.883   2.639  23.075  0.00  0.00    +0.340 C 
ATOM      4  N   UNL     1       8.768   2.245  23.837  0.00  0.00    -0.222 N 
ATOM      5  O   UNL     1      10.469   1.936  22.245  0.00  0.00    -0.249 OA
ENDROOT
BRANCH   1  10
ATOM      6  N   UNL     1      13.700   5.053  23.146  0.00  0.00    -0.288 N 
ATOM      7  H   UNL     1      13.957   4.608  22.272  0.00  0.00    +0.255 HD
ATOM      8  H   UNL     1      14.242   5.891  23.314  0.00  0.00    +0.255 HD
ATOM      9  C   UNL     1      12.367   5.154  23.365  0.00  0.00    +0.396 C 
ATOM     10  N   UNL     1      11.647   4.174  22.743  0.00  0.00    -0.182 N 
ATOM     11  H   UNL     1      12.146   3.288  22.627  0.00  0.00    +0.288 HD
ATOM     12  N   UNL     1      11.853   6.090  24.085  0.00  0.00    -0.128 NA
ATOM     13  H   UNL     1      12.602   6.695  24.428  0.00  0.00    +0.306 HD
ENDBRANCH   1  10
BRANCH   4  14
ATOM     14  C   UNL     1       8.330   0.863  23.870  0.00  0.00    +0.043 A 
ATOM     15  C   UNL     1       7.276   0.390  23.064  0.00  0.00    +0.024 A 
ATOM     16  C   UNL     1       6.893  -0.957  23.069  0.00  0.00    +0.002 A 
ATOM     17  C   UNL     1       7.558  -1.868  23.881  0.00  0.00    +0.000 A 
ATOM     18  C   UNL     1       8.594  -1.428  24.695  0.00  0.00    +0.002 A 
ATOM     19  C   UNL     1       8.968  -0.079  24.693  0.00  0.00    +0.024 A 
ENDBRANCH   4  14
BRANCH   4  20
ATOM     20  C   UNL     1       7.897   3.202  24.435  0.00  0.00    +0.043 A 
ATOM     21  C   UNL     1       7.827   3.316  25.831  0.00  0.00    +0.024 A 
ATOM     22  C   UNL     1       6.933   4.213  26.419  0.00  0.00    +0.002 A 
ATOM     23  C   UNL     1       6.094   4.987  25.617  0.00  0.00    +0.000 A 
ATOM     24  C   UNL     1       6.156   4.876  24.228  0.00  0.00    +0.002 A 
ATOM     25  C   UNL     1       7.065   3.997  23.636  0.00  0.00    +0.024 A 
ENDBRANCH   4  20
TORSDOF 3
ENDMDL
MODEL 7
REMARK VINA RESULT:      -5.7      4.509      6.608
REMARK  Name = 
REMARK  3 active torsions:
REMARK  status: ('A' for Active; 'I' for Inactive)
REMARK    1  A    between atoms: N_4  and  N_5
REMARK    2  A    between atoms: N_8  and  C_9
REMARK    3  A    between atoms: N_8  and  C_15
REMARK                            x       y       z     vdW  Elec       q    Type
REMARK                         _______ _______ _______ _____ _____    ______ ____
ROOT
ATOM      1  N   UNL     1       6.051   1.728  23.801  0.00  0.00    -0.161 N 
ATOM      2  H   UNL     1       6.494   2.082  22.948  0.00  0.00    +0.193 HD
ATOM      3  C   UNL     1       6.222   0.397  24.161  0.00  0.00    +0.340 C 
ATOM      4  N   UNL     1       7.436  -0.197  23.771  0.00  0.00    -0.222 N 
ATOM      5  O   UNL     1       5.311  -0.168  24.776  0.00  0.00    -0.249 OA
ENDROOT
BRANCH   1  10
ATOM      6  N   UNL     1       2.922   3.065  22.844  0.00  0.00    -0.288 N 
ATOM      7  H   UNL     1       2.422   2.883  23.707  0.00  0.00    +0.255 HD
ATOM      8  H   UNL     1       2.540   3.862  22.350  0.00  0.00    +0.255 HD
ATOM      9  C   UNL     1       4.272   3.021  22.946  0.00  0.00    +0.396 C 
ATOM     10  N   UNL     1       4.706   2.196  23.944  0.00  0.00    -0.182 N 
ATOM     11  H   UNL     1       4.087   1.404  24.142  0.00  0.00    +0.288 HD
ATOM     12  N   UNL     1       5.048   3.700  22.175  0.00  0.00    -0.128 NA
ATOM     13  H   UNL     1       4.476   4.240  21.520  0.00  0.00    +0.306 HD
ENDBRANCH   1  10
BRANCH   4  14
ATOM     14  C   UNL     1       7.638  -1.630  23.872  0.00  0.00    +0.043 A 
ATOM     15  C   UNL     1       8.036  -2.248  25.074  0.00  0.00    +0.024 A 
ATOM     16  C   UNL     1       8.181  -3.638  25.173  0.00  0.00    +0.002 A 
ATOM     17  C   UNL     1       7.931  -4.446  24.071  0.00  0.00    +0.000 A 
ATOM     18  C   UNL     1       7.548  -3.863  22.869  0.00  0.00    +0.002 A 
ATOM     19  C   UNL     1       7.412  -2.473  22.772  0.00  0.00    +0.024 A 
ENDBRANCH   4  14
BRANCH   4  20
ATOM     20  C   UNL     1       8.586   0.586  23.462  0.00  0.00    +0.043 A 
ATOM     21  C   UNL     1       9.371   1.122  24.494  0.00  0.00    +0.024 A 
ATOM     22  C   UNL     1      10.465   1.936  24.194  0.00  0.00    +0.002 A 
ATOM     23  C   UNL     1      10.770   2.231  22.865  0.00  0.00    +0.000 A 
ATOM     24  C   UNL     1       9.992   1.704  21.835  0.00  0.00    +0.002 A 
ATOM     25  C   UNL     1       8.910   0.870  22.130  0.00  0.00    +0.024 A 
ENDBRANCH   4  20
TORSDOF 3
ENDMDL
MODEL 8
REMARK VINA RESULT:      -5.6      5.207      7.727
REMARK  Name = 
REMARK  3 active torsions:
REMARK  status: ('A' for Active; 'I' for Inactive)
REMARK    1  A    between atoms: N_4  and  N_5
REMARK    2  A    between atoms: N_8  and  C_9
REMARK    3  A    between atoms: N_8  and  C_15
REMARK                            x       y       z     vdW  Elec       q    Type
REMARK                         _______ _______ _______ _____ _____    ______ ____
ROOT
ATOM      1  N   UNL     1       7.707  -3.369  24.340  0.00  0.00    -0.161 N 
ATOM      2  H   UNL     1       6.711  -3.131  24.338  0.00  0.00    +0.193 HD
ATOM      3  C   UNL     1       8.642  -2.415  23.954  0.00  0.00    +0.340 C 
ATOM      4  N   UNL     1       8.298  -1.076  24.210  0.00  0.00    -0.222 N 
ATOM      5  O   UNL     1       9.684  -2.799  23.412  0.00  0.00    -0.249 OA
ENDROOT
BRANCH   1  10
ATOM      6  N   UNL     1       7.451  -6.091  22.100  0.00  0.00    -0.288 N 
ATOM      7  H   UNL     1       8.216  -6.646  22.465  0.00  0.00    +0.255 HD
ATOM      8  H   UNL     1       6.743  -6.668  21.662  0.00  0.00    +0.255 HD
ATOM      9  C   UNL     1       6.996  -5.125  22.934  0.00  0.00    +0.396 C 
ATOM     10  N   UNL     1       7.953  -4.670  23.796  0.00  0.00    -0.182 N 
ATOM     11  H   UNL     1       8.909  -4.715  23.433  0.00  0.00    +0.288 HD
ATOM     12  N   UNL     1       5.782  -4.699  22.904  0.00  0.00    -0.128 NA
ATOM     13  H   UNL     1       5.270  -5.204  22.176  0.00  0.00    +0.306 HD
ENDBRANCH   1  10
BRANCH   4  14
ATOM     14  C   UNL     1       9.067   0.018  23.648  0.00  0.00    +0.043 A 
ATOM     15  C   UNL     1       8.908   0.438  22.313  0.00  0.00    +0.024 A 
ATOM     16  C   UNL     1       9.620   1.527  21.795  0.00  0.00    +0.002 A 
ATOM     17  C   UNL     1      10.511   2.225  22.601  0.00  0.00    +0.000 A 
ATOM     18  C   UNL     1      10.697   1.826  23.919  0.00  0.00    +0.002 A 
ATOM     19  C   UNL     1       9.988   0.732  24.430  0.00  0.00    +0.024 A 
ENDBRANCH   4  14
BRANCH   4  20
ATOM     20  C   UNL     1       7.325  -0.729  25.192  0.00  0.00    +0.043 A 
ATOM     21  C   UNL     1       6.056  -0.278  24.799  0.00  0.00    +0.024 A 
ATOM     22  C   UNL     1       5.121   0.114  25.758  0.00  0.00    +0.002 A 
ATOM     23  C   UNL     1       5.454   0.076  27.112  0.00  0.00    +0.000 A 
ATOM     24  C   UNL     1       6.715  -0.367  27.510  0.00  0.00    +0.002 A 
ATOM     25  C   UNL     1       7.645  -0.784  26.555  0.00  0.00    +0.024 A 
ENDBRANCH   4  20
TORSDOF 3
ENDMDL
MODEL 9
REMARK VINA RESULT:      -5.6      4.872      6.896
REMARK  Name = 
REMARK  3 active torsions:
REMARK  status: ('A' for Active; 'I' for Inactive)
REMARK    1  A    between atoms: N_4  and  N_5
REMARK    2  A    between atoms: N_8  and  C_9
REMARK    3  A    between atoms: N_8  and  C_15
REMARK                            x       y       z     vdW  Elec       q    Type
REMARK                         _______ _______ _______ _____ _____    ______ ____
ROOT
ATOM      1  N   UNL     1       8.111   0.182  26.360  0.00  0.00    -0.161 N 
ATOM      2  H   UNL     1       7.774   1.007  25.857  0.00  0.00    +0.193 HD
ATOM      3  C   UNL     1       7.804  -1.087  25.882  0.00  0.00    +0.340 C 
ATOM      4  N   UNL     1       7.647  -1.200  24.489  0.00  0.00    -0.222 N 
ATOM      5  O   UNL     1       7.680  -2.007  26.697  0.00  0.00    -0.249 OA
ENDROOT
BRANCH   1  10
ATOM      6  N   UNL     1       6.786   1.336  29.427  0.00  0.00    -0.288 N 
ATOM      7  H   UNL     1       7.262   0.684  30.040  0.00  0.00    +0.255 HD
ATOM      8  H   UNL     1       6.571   2.206  29.897  0.00  0.00    +0.255 HD
ATOM      9  C   UNL     1       7.319   1.448  28.186  0.00  0.00    +0.396 C 
ATOM     10  N   UNL     1       7.963   0.315  27.777  0.00  0.00    -0.182 N 
ATOM     11  H   UNL     1       7.586  -0.554  28.166  0.00  0.00    +0.288 HD
ATOM     12  N   UNL     1       7.221   2.523  27.485  0.00  0.00    -0.128 NA
ATOM     13  H   UNL     1       6.699   3.222  28.019  0.00  0.00    +0.306 HD
ENDBRANCH   1  10
BRANCH   4  14
ATOM     14  C   UNL     1       7.097  -2.401  23.890  0.00  0.00    +0.043 A 
ATOM     15  C   UNL     1       5.724  -2.537  23.606  0.00  0.00    +0.024 A 
ATOM     16  C   UNL     1       5.211  -3.681  22.983  0.00  0.00    +0.002 A 
ATOM     17  C   UNL     1       6.061  -4.721  22.627  0.00  0.00    +0.000 A 
ATOM     18  C   UNL     1       7.419  -4.620  22.904  0.00  0.00    +0.002 A 
ATOM     19  C   UNL     1       7.926  -3.477  23.535  0.00  0.00    +0.024 A 
ENDBRANCH   4  14
BRANCH   4  20
ATOM     20  C   UNL     1       8.209  -0.244  23.594  0.00  0.00    +0.043 A 
ATOM     21  C   UNL     1       7.381   0.672  22.929  0.00  0.00    +0.024 A 
ATOM     22  C   UNL     1       7.924   1.572  22.010  0.00  0.00    +0.002 A 
ATOM     23  C   UNL     1       9.291   1.550  21.738  0.00  0.00    +0.000 A 
ATOM     24  C   UNL     1      10.120   0.639  22.392  0.00  0.00    +0.002 A 
ATOM     25  C   UNL     1       9.585  -0.247  23.330  0.00  0.00    +0.024 A 
ENDBRANCH   4  20
TORSDOF 3
ENDMDL
