MODEL 1
REMARK VINA RESULT:      -6.2      0.000      0.000
REMARK  Name = 
REMARK  13 active torsions:
REMARK  status: ('A' for Active; 'I' for Inactive)
REMARK    1  A    between atoms: C_1  and  C_2
REMARK    2  A    between atoms: C_2  and  C_3
REMARK    3  A    between atoms: C_2  and  C_4
REMARK    4  A    between atoms: C_4  and  N_6
REMARK    5  A    between atoms: C_4  and  C_7
REMARK    6  A    between atoms: C_7  and  O_9
REMARK    7  A    between atoms: O_9  and  C_10
REMARK    8  A    between atoms: C_10  and  C_11
REMARK    9  A    between atoms: C_11  and  C_12
REMARK   10  A    between atoms: C_11  and  O_14
REMARK   11  A    between atoms: C_12  and  O_13
REMARK   12  A    between atoms: O_14  and  C_15
REMARK   13  A    between atoms: C_15  and  N_16
REMARK                            x       y       z     vdW  Elec       q    Type
REMARK                         _______ _______ _______ _____ _____    ______ ____
ROOT
ATOM      1  O   UNL     1       5.550  -4.354  23.174  0.00  0.00    -0.350 OA
ENDROOT
BRANCH   1   2
ATOM      2  C   UNL     1       6.534  -4.322  22.115  0.00  0.00    +0.183 C 
BRANCH   2   3
ATOM      3  C   UNL     1       7.583  -3.214  22.303  0.00  0.00    +0.266 C 
BRANCH   3   4
ATOM      4  O   UNL     1       7.758  -2.935  23.704  0.00  0.00    -0.461 OA
BRANCH   4   5
ATOM      5  C   UNL     1       9.013  -2.559  24.090  0.00  0.00    +0.324 C 
ATOM      6  O   UNL     1       9.969  -3.322  24.142  0.00  0.00    -0.249 OA
BRANCH   5   7
ATOM      7  C   UNL     1       9.087  -1.042  24.371  0.00  0.00    +0.163 C 
BRANCH   7   9
ATOM      8  C   UNL     1      10.961   0.719  24.419  0.00  0.00    +0.009 C 
ATOM      9  C   UNL     1      10.279  -0.399  23.620  0.00  0.00    +0.010 C 
ATOM     10  C   UNL     1       9.870   0.127  22.241  0.00  0.00    +0.009 C 
ENDBRANCH   7   9
BRANCH   7  11
ATOM     11  N   UNL     1       9.137  -0.767  25.825  0.00  0.00    -0.318 NA
ATOM     12  H   UNL     1       8.568   0.053  26.036  0.00  0.00    +0.119 HD
ATOM     13  H   UNL     1       8.707  -1.548  26.323  0.00  0.00    +0.119 HD
ENDBRANCH   7  11
ENDBRANCH   5   7
ENDBRANCH   4   5
ENDBRANCH   3   4
ENDBRANCH   2   3
BRANCH   2  14
ATOM     14  C   UNL     1       7.216  -5.697  22.077  0.00  0.00    +0.190 C 
BRANCH  14  15
ATOM     15  O   UNL     1       8.248  -5.741  23.065  0.00  0.00    -0.392 OA
ATOM     16  H   UNL     1       8.947  -6.301  22.682  0.00  0.00    +0.210 HD
ENDBRANCH  14  15
ENDBRANCH   2  14
ENDBRANCH   1   2
BRANCH   1  17
ATOM     17  C   UNL     1       4.843  -5.590  23.241  0.00  0.00    +0.287 C 
BRANCH  17  18
ATOM     18  N   UNL     1       4.736  -5.996  24.627  0.00  0.00    -0.292 N 
ATOM     19  C   UNL     1       5.659  -5.878  25.613  0.00  0.00    +0.148 A 
ATOM     20  N   UNL     1       6.860  -5.288  25.614  0.00  0.00    -0.312 N 
ATOM     21  H   UNL     1       7.279  -4.839  24.811  0.00  0.00    +0.170 HD
ATOM     22  C   UNL     1       7.594  -5.401  26.768  0.00  0.00    +0.195 A 
ATOM     23  N   UNL     1       7.225  -6.002  27.862  0.00  0.00    -0.176 NA
ATOM     24  C   UNL     1       5.963  -6.609  27.937  0.00  0.00    +0.302 A 
ATOM     25  O   UNL     1       5.562  -7.167  28.955  0.00  0.00    -0.263 OA
ATOM     26  N   UNL     1       8.822  -4.832  26.679  0.00  0.00    -0.329 N 
ATOM     27  H   UNL     1       9.272  -4.802  27.591  0.00  0.00    +0.145 HD
ATOM     28  H   UNL     1       8.853  -3.926  26.230  0.00  0.00    +0.145 HD
ATOM     29  C   UNL     1       5.160  -6.537  26.708  0.00  0.00    +0.172 A 
ATOM     30  N   UNL     1       3.920  -7.061  26.415  0.00  0.00    -0.229 NA
ATOM     31  C   UNL     1       3.696  -6.720  25.160  0.00  0.00    +0.203 A 
ENDBRANCH  17  18
ENDBRANCH   1  17
TORSDOF 11
ENDMDL
MODEL 2
REMARK VINA RESULT:      -5.8      2.519      4.025
REMARK  Name = 
REMARK  13 active torsions:
REMARK  status: ('A' for Active; 'I' for Inactive)
REMARK    1  A    between atoms: C_1  and  C_2
REMARK    2  A    between atoms: C_2  and  C_3
REMARK    3  A    between atoms: C_2  and  C_4
REMARK    4  A    between atoms: C_4  and  N_6
REMARK    5  A    between atoms: C_4  and  C_7
REMARK    6  A    between atoms: C_7  and  O_9
REMARK    7  A    between atoms: O_9  and  C_10
REMARK    8  A    between atoms: C_10  and  C_11
REMARK    9  A    between atoms: C_11  and  C_12
REMARK   10  A    between atoms: C_11  and  O_14
REMARK   11  A    between atoms: C_12  and  O_13
REMARK   12  A    between atoms: O_14  and  C_15
REMARK   13  A    between atoms: C_15  and  N_16
REMARK                            x       y       z     vdW  Elec       q    Type
REMARK                         _______ _______ _______ _____ _____    ______ ____
ROOT
ATOM      1  O   UNL     1       9.108  -3.475  23.497  0.00  0.00    -0.350 OA
ENDROOT
BRANCH   1   2
ATOM      2  C   UNL     1       8.718  -2.087  23.408  0.00  0.00    +0.183 C 
BRANCH   2   3
ATOM      3  C   UNL     1       9.597  -1.160  24.264  0.00  0.00    +0.266 C 
BRANCH   3   4
ATOM      4  O   UNL     1       9.322   0.215  23.940  0.00  0.00    -0.461 OA
BRANCH   4   5
ATOM      5  C   UNL     1      10.395   1.061  23.950  0.00  0.00    +0.324 C 
ATOM      6  O   UNL     1      11.425   0.850  24.577  0.00  0.00    -0.249 OA
BRANCH   5   7
ATOM      7  C   UNL     1      10.172   2.267  23.011  0.00  0.00    +0.163 C 
BRANCH   7   9
ATOM      8  C   UNL     1       7.894   3.354  22.518  0.00  0.00    +0.009 C 
ATOM      9  C   UNL     1       9.028   3.170  23.535  0.00  0.00    +0.010 C 
ATOM     10  C   UNL     1       9.543   4.539  23.989  0.00  0.00    +0.009 C 
ENDBRANCH   7   9
BRANCH   7  11
ATOM     11  N   UNL     1       9.935   1.826  21.618  0.00  0.00    -0.318 NA
ATOM     12  H   UNL     1      10.743   1.303  21.284  0.00  0.00    +0.119 HD
ATOM     13  H   UNL     1       9.149   1.174  21.608  0.00  0.00    +0.119 HD
ENDBRANCH   7  11
ENDBRANCH   5   7
ENDBRANCH   4   5
ENDBRANCH   3   4
ENDBRANCH   2   3
BRANCH   2  14
ATOM     14  C   UNL     1       8.799  -1.679  21.930  0.00  0.00    +0.190 C 
BRANCH  14  15
ATOM     15  O   UNL     1      10.167  -1.479  21.568  0.00  0.00    -0.392 OA
ATOM     16  H   UNL     1      10.509  -0.826  22.205  0.00  0.00    +0.210 HD
ENDBRANCH  14  15
ENDBRANCH   2  14
ENDBRANCH   1   2
BRANCH   1  17
ATOM     17  C   UNL     1       9.427  -3.881  24.825  0.00  0.00    +0.287 C 
BRANCH  17  18
ATOM     18  N   UNL     1       8.284  -4.561  25.398  0.00  0.00    -0.292 N 
ATOM     19  C   UNL     1       7.257  -5.170  24.754  0.00  0.00    +0.148 A 
ATOM     20  N   UNL     1       7.058  -5.393  23.449  0.00  0.00    -0.312 N 
ATOM     21  H   UNL     1       7.684  -5.092  22.714  0.00  0.00    +0.170 HD
ATOM     22  C   UNL     1       5.869  -5.984  23.107  0.00  0.00    +0.195 A 
ATOM     23  N   UNL     1       4.933  -6.369  23.925  0.00  0.00    -0.176 NA
ATOM     24  C   UNL     1       5.097  -6.196  25.307  0.00  0.00    +0.302 A 
ATOM     25  O   UNL     1       4.252  -6.564  26.120  0.00  0.00    -0.263 OA
ATOM     26  N   UNL     1       5.708  -6.126  21.767  0.00  0.00    -0.329 N 
ATOM     27  H   UNL     1       4.894  -6.699  21.560  0.00  0.00    +0.145 HD
ATOM     28  H   UNL     1       6.521  -6.455  21.261  0.00  0.00    +0.145 HD
ATOM     29  C   UNL     1       6.346  -5.536  25.712  0.00  0.00    +0.172 A 
ATOM     30  N   UNL     1       6.802  -5.166  26.958  0.00  0.00    -0.229 NA
ATOM     31  C   UNL     1       7.965  -4.584  26.734  0.00  0.00    +0.203 A 
ENDBRANCH  17  18
ENDBRANCH   1  17
TORSDOF 11
ENDMDL
MODEL 3
REMARK VINA RESULT:      -5.8      2.021      3.716
REMARK  Name = 
REMARK  13 active torsions:
REMARK  status: ('A' for Active; 'I' for Inactive)
REMARK    1  A    between atoms: C_1  and  C_2
REMARK    2  A    between atoms: C_2  and  C_3
REMARK    3  A    between atoms: C_2  and  C_4
REMARK    4  A    between atoms: C_4  and  N_6
REMARK    5  A    between atoms: C_4  and  C_7
REMARK    6  A    between atoms: C_7  and  O_9
REMARK    7  A    between atoms: O_9  and  C_10
REMARK    8  A    between atoms: C_10  and  C_11
REMARK    9  A    between atoms: C_11  and  C_12
REMARK   10  A    between atoms: C_11  and  O_14
REMARK   11  A    between atoms: C_12  and  O_13
REMARK   12  A    between atoms: O_14  and  C_15
REMARK   13  A    between atoms: C_15  and  N_16
REMARK                            x       y       z     vdW  Elec       q    Type
REMARK                         _______ _______ _______ _____ _____    ______ ____
ROOT
ATOM      1  O   UNL     1       8.260  -5.185  25.783  0.00  0.00    -0.350 OA
ENDROOT
BRANCH   1   2
ATOM      2  C   UNL     1       8.940  -3.916  25.918  0.00  0.00    +0.183 C 
BRANCH   2   3
ATOM      3  C   UNL     1       9.480  -3.378  24.583  0.00  0.00    +0.266 C 
BRANCH   3   4
ATOM      4  O   UNL     1       8.396  -3.191  23.655  0.00  0.00    -0.461 OA
BRANCH   4   5
ATOM      5  C   UNL     1       8.330  -1.969  23.048  0.00  0.00    +0.324 C 
ATOM      6  O   UNL     1       7.284  -1.425  22.719  0.00  0.00    -0.249 OA
BRANCH   5   7
ATOM      7  C   UNL     1       9.731  -1.333  22.904  0.00  0.00    +0.163 C 
BRANCH   7   9
ATOM      8  C   UNL     1       9.962   1.108  22.128  0.00  0.00    +0.009 C 
ATOM      9  C   UNL     1       9.701   0.162  23.307  0.00  0.00    +0.010 C 
ATOM     10  C   UNL     1      10.684   0.468  24.442  0.00  0.00    +0.009 C 
ENDBRANCH   7   9
BRANCH   7  11
ATOM     11  N   UNL     1      10.272  -1.527  21.541  0.00  0.00    -0.318 NA
ATOM     12  H   UNL     1      11.286  -1.420  21.559  0.00  0.00    +0.119 HD
ATOM     13  H   UNL     1      10.092  -2.489  21.248  0.00  0.00    +0.119 HD
ENDBRANCH   7  11
ENDBRANCH   5   7
ENDBRANCH   4   5
ENDBRANCH   3   4
ENDBRANCH   2   3
BRANCH   2  14
ATOM     14  C   UNL     1       7.943  -2.921  26.528  0.00  0.00    +0.190 C 
BRANCH  14  15
ATOM     15  O   UNL     1       8.482  -1.600  26.446  0.00  0.00    -0.392 OA
ATOM     16  H   UNL     1       8.946  -1.458  27.291  0.00  0.00    +0.210 HD
ENDBRANCH  14  15
ENDBRANCH   2  14
ENDBRANCH   1   2
BRANCH   1  17
ATOM     17  C   UNL     1       7.250  -5.384  26.768  0.00  0.00    +0.287 C 
BRANCH  17  18
ATOM     18  N   UNL     1       6.065  -5.914  26.127  0.00  0.00    -0.292 N 
ATOM     19  C   UNL     1       5.619  -5.693  24.865  0.00  0.00    +0.148 A 
ATOM     20  N   UNL     1       6.175  -5.018  23.852  0.00  0.00    -0.312 N 
ATOM     21  H   UNL     1       7.057  -4.526  23.906  0.00  0.00    +0.170 HD
ATOM     22  C   UNL     1       5.430  -4.919  22.705  0.00  0.00    +0.195 A 
ATOM     23  N   UNL     1       4.254  -5.436  22.500  0.00  0.00    -0.176 NA
ATOM     24  C   UNL     1       3.633  -6.185  23.510  0.00  0.00    +0.302 A 
ATOM     25  O   UNL     1       2.534  -6.712  23.355  0.00  0.00    -0.263 OA
ATOM     26  N   UNL     1       6.028  -4.173  21.742  0.00  0.00    -0.329 N 
ATOM     27  H   UNL     1       5.522  -4.247  20.862  0.00  0.00    +0.145 HD
ATOM     28  H   UNL     1       7.016  -4.342  21.606  0.00  0.00    +0.145 HD
ATOM     29  C   UNL     1       4.387  -6.287  24.767  0.00  0.00    +0.172 A 
ATOM     30  N   UNL     1       4.060  -6.889  25.963  0.00  0.00    -0.229 NA
ATOM     31  C   UNL     1       5.086  -6.647  26.755  0.00  0.00    +0.203 A 
ENDBRANCH  17  18
ENDBRANCH   1  17
TORSDOF 11
ENDMDL
MODEL 4
REMARK VINA RESULT:      -5.7      2.662      3.635
REMARK  Name = 
REMARK  13 active torsions:
REMARK  status: ('A' for Active; 'I' for Inactive)
REMARK    1  A    between atoms: C_1  and  C_2
REMARK    2  A    between atoms: C_2  and  C_3
REMARK    3  A    between atoms: C_2  and  C_4
REMARK    4  A    between atoms: C_4  and  N_6
REMARK    5  A    between atoms: C_4  and  C_7
REMARK    6  A    between atoms: C_7  and  O_9
REMARK    7  A    between atoms: O_9  and  C_10
REMARK    8  A    between atoms: C_10  and  C_11
REMARK    9  A    between atoms: C_11  and  C_12
REMARK   10  A    between atoms: C_11  and  O_14
REMARK   11  A    between atoms: C_12  and  O_13
REMARK   12  A    between atoms: O_14  and  C_15
REMARK   13  A    between atoms: C_15  and  N_16
REMARK                            x       y       z     vdW  Elec       q    Type
REMARK                         _______ _______ _______ _____ _____    ______ ____
ROOT
ATOM      1  O   UNL     1       7.831  -1.449  22.957  0.00  0.00    -0.350 OA
ENDROOT
BRANCH   1   2
ATOM      2  C   UNL     1       8.901  -1.099  22.051  0.00  0.00    +0.183 C 
BRANCH   2   3
ATOM      3  C   UNL     1       9.049   0.418  21.853  0.00  0.00    +0.266 C 
BRANCH   3   4
ATOM      4  O   UNL     1      10.287   0.871  22.431  0.00  0.00    -0.461 OA
BRANCH   4   5
ATOM      5  C   UNL     1      10.190   1.887  23.339  0.00  0.00    +0.324 C 
ATOM      6  O   UNL     1      10.906   2.880  23.332  0.00  0.00    -0.249 OA
BRANCH   5   7
ATOM      7  C   UNL     1       9.016   1.660  24.317  0.00  0.00    +0.163 C 
BRANCH   7   9
ATOM      8  C   UNL     1       7.527   2.902  26.007  0.00  0.00    +0.009 C 
ATOM      9  C   UNL     1       8.378   3.008  24.735  0.00  0.00    +0.010 C 
ATOM     10  C   UNL     1       7.544   3.621  23.605  0.00  0.00    +0.009 C 
ENDBRANCH   7   9
BRANCH   7  11
ATOM     11  N   UNL     1       9.440   0.863  25.490  0.00  0.00    -0.318 NA
ATOM     12  H   UNL     1       8.742   0.145  25.684  0.00  0.00    +0.119 HD
ATOM     13  H   UNL     1      10.301   0.367  25.257  0.00  0.00    +0.119 HD
ENDBRANCH   7  11
ENDBRANCH   5   7
ENDBRANCH   4   5
ENDBRANCH   3   4
ENDBRANCH   2   3
BRANCH   2  14
ATOM     14  C   UNL     1      10.200  -1.690  22.620  0.00  0.00    +0.190 C 
BRANCH  14  15
ATOM     15  O   UNL     1      10.112  -1.739  24.045  0.00  0.00    -0.392 OA
ATOM     16  H   UNL     1       9.509  -1.014  24.291  0.00  0.00    +0.210 HD
ENDBRANCH  14  15
ENDBRANCH   2  14
ENDBRANCH   1   2
BRANCH   1  17
ATOM     17  C   UNL     1       6.981  -2.472  22.448  0.00  0.00    +0.287 C 
BRANCH  17  18
ATOM     18  N   UNL     1       6.463  -3.249  23.555  0.00  0.00    -0.292 N 
ATOM     19  C   UNL     1       7.147  -4.026  24.431  0.00  0.00    +0.148 A 
ATOM     20  N   UNL     1       8.463  -4.220  24.579  0.00  0.00    -0.312 N 
ATOM     21  H   UNL     1       9.173  -3.798  23.996  0.00  0.00    +0.170 HD
ATOM     22  C   UNL     1       8.841  -5.134  25.529  0.00  0.00    +0.195 A 
ATOM     23  N   UNL     1       8.050  -5.808  26.312  0.00  0.00    -0.176 NA
ATOM     24  C   UNL     1       6.661  -5.623  26.231  0.00  0.00    +0.302 A 
ATOM     25  O   UNL     1       5.876  -6.218  26.965  0.00  0.00    -0.263 OA
ATOM     26  N   UNL     1      10.183  -5.323  25.585  0.00  0.00    -0.329 N 
ATOM     27  H   UNL     1      10.435  -5.887  26.393  0.00  0.00    +0.145 HD
ATOM     28  H   UNL     1      10.747  -4.484  25.538  0.00  0.00    +0.145 HD
ATOM     29  C   UNL     1       6.215  -4.674  25.202  0.00  0.00    +0.172 A 
ATOM     30  N   UNL     1       4.946  -4.299  24.817  0.00  0.00    -0.229 NA
ATOM     31  C   UNL     1       5.130  -3.445  23.829  0.00  0.00    +0.203 A 
ENDBRANCH  17  18
ENDBRANCH   1  17
TORSDOF 11
ENDMDL
MODEL 5
REMARK VINA RESULT:      -5.6      3.043      6.868
REMARK  Name = 
REMARK  13 active torsions:
REMARK  status: ('A' for Active; 'I' for Inactive)
REMARK    1  A    between atoms: C_1  and  C_2
REMARK    2  A    between atoms: C_2  and  C_3
REMARK    3  A    between atoms: C_2  and  C_4
REMARK    4  A    between atoms: C_4  and  N_6
REMARK    5  A    between atoms: C_4  and  C_7
REMARK    6  A    between atoms: C_7  and  O_9
REMARK    7  A    between atoms: O_9  and  C_10
REMARK    8  A    between atoms: C_10  and  C_11
REMARK    9  A    between atoms: C_11  and  C_12
REMARK   10  A    between atoms: C_11  and  O_14
REMARK   11  A    between atoms: C_12  and  O_13
REMARK   12  A    between atoms: O_14  and  C_15
REMARK   13  A    between atoms: C_15  and  N_16
REMARK                            x       y       z     vdW  Elec       q    Type
REMARK                         _______ _______ _______ _____ _____    ______ ____
ROOT
ATOM      1  O   UNL     1       8.364  -3.336  24.344  0.00  0.00    -0.350 OA
ENDROOT
BRANCH   1   2
ATOM      2  C   UNL     1       8.227  -3.762  25.718  0.00  0.00    +0.183 C 
BRANCH   2   3
ATOM      3  C   UNL     1       6.872  -3.377  26.335  0.00  0.00    +0.266 C 
BRANCH   3   4
ATOM      4  O   UNL     1       5.803  -3.989  25.592  0.00  0.00    -0.461 OA
BRANCH   4   5
ATOM      5  C   UNL     1       5.026  -3.145  24.850  0.00  0.00    +0.324 C 
ATOM      6  O   UNL     1       4.489  -2.139  25.297  0.00  0.00    -0.249 OA
BRANCH   5   7
ATOM      7  C   UNL     1       4.982  -3.576  23.367  0.00  0.00    +0.163 C 
BRANCH   7   9
ATOM      8  C   UNL     1       6.299  -5.355  22.056  0.00  0.00    +0.009 C 
ATOM      9  C   UNL     1       5.337  -5.076  23.218  0.00  0.00    +0.010 C 
ATOM     10  C   UNL     1       4.086  -5.949  23.073  0.00  0.00    +0.009 C 
ENDBRANCH   7   9
BRANCH   7  11
ATOM     11  N   UNL     1       5.850  -2.718  22.531  0.00  0.00    -0.318 NA
ATOM     12  H   UNL     1       5.932  -1.796  22.959  0.00  0.00    +0.119 HD
ATOM     13  H   UNL     1       6.792  -3.112  22.521  0.00  0.00    +0.119 HD
ENDBRANCH   7  11
ENDBRANCH   5   7
ENDBRANCH   4   5
ENDBRANCH   3   4
ENDBRANCH   2   3
BRANCH   2  14
ATOM     14  C   UNL     1       8.410  -5.287  25.749  0.00  0.00    +0.190 C 
BRANCH  14  15
ATOM     15  O   UNL     1       7.850  -5.806  26.957  0.00  0.00    -0.392 OA
ATOM     16  H   UNL     1       8.571  -5.773  27.611  0.00  0.00    +0.210 HD
ENDBRANCH  14  15
ENDBRANCH   2  14
ENDBRANCH   1   2
BRANCH   1  17
ATOM     17  C   UNL     1       9.631  -2.745  24.067  0.00  0.00    +0.287 C 
BRANCH  17  18
ATOM     18  N   UNL     1       9.429  -1.542  23.288  0.00  0.00    -0.292 N 
ATOM     19  C   UNL     1       8.448  -0.614  23.410  0.00  0.00    +0.148 A 
ATOM     20  N   UNL     1       7.469  -0.498  24.315  0.00  0.00    -0.312 N 
ATOM     21  H   UNL     1       7.306  -1.150  25.071  0.00  0.00    +0.170 HD
ATOM     22  C   UNL     1       6.581   0.530  24.123  0.00  0.00    +0.195 A 
ATOM     23  N   UNL     1       6.613   1.411  23.166  0.00  0.00    -0.176 NA
ATOM     24  C   UNL     1       7.635   1.365  22.207  0.00  0.00    +0.302 A 
ATOM     25  O   UNL     1       7.721   2.188  21.299  0.00  0.00    -0.263 OA
ATOM     26  N   UNL     1       5.583   0.553  25.043  0.00  0.00    -0.329 N 
ATOM     27  H   UNL     1       5.036   1.407  24.960  0.00  0.00    +0.145 HD
ATOM     28  H   UNL     1       5.866   0.395  26.001  0.00  0.00    +0.145 HD
ATOM     29  C   UNL     1       8.588   0.258  22.360  0.00  0.00    +0.172 A 
ATOM     30  N   UNL     1       9.663  -0.116  21.582  0.00  0.00    -0.229 NA
ATOM     31  C   UNL     1      10.144  -1.197  22.165  0.00  0.00    +0.203 A 
ENDBRANCH  17  18
ENDBRANCH   1  17
TORSDOF 11
ENDMDL
MODEL 6
REMARK VINA RESULT:      -5.5      2.709      3.832
REMARK  Name = 
REMARK  13 active torsions:
REMARK  status: ('A' for Active; 'I' for Inactive)
REMARK    1  A    between atoms: C_1  and  C_2
REMARK    2  A    between atoms: C_2  and  C_3
REMARK    3  A    between atoms: C_2  and  C_4
REMARK    4  A    between atoms: C_4  and  N_6
REMARK    5  A    between atoms: C_4  and  C_7
REMARK    6  A    between atoms: C_7  and  O_9
REMARK    7  A    between atoms: O_9  and  C_10
REMARK    8  A    between atoms: C_10  and  C_11
REMARK    9  A    between atoms: C_11  and  C_12
REMARK   10  A    between atoms: C_11  and  O_14
REMARK   11  A    between atoms: C_12  and  O_13
REMARK   12  A    between atoms: O_14  and  C_15
REMARK   13  A    between atoms: C_15  and  N_16
REMARK                            x       y       z     vdW  Elec       q    Type
REMARK                         _______ _______ _______ _____ _____    ______ ____
ROOT
ATOM      1  O   UNL     1       7.989  -2.574  23.770  0.00  0.00    -0.350 OA
ENDROOT
BRANCH   1   2
ATOM      2  C   UNL     1       8.586  -1.380  23.217  0.00  0.00    +0.183 C 
BRANCH   2   3
ATOM      3  C   UNL     1       9.756  -0.847  24.061  0.00  0.00    +0.266 C 
BRANCH   3   4
ATOM      4  O   UNL     1      10.099   0.485  23.639  0.00  0.00    -0.461 OA
BRANCH   4   5
ATOM      5  C   UNL     1       9.315   1.491  24.129  0.00  0.00    +0.324 C 
ATOM      6  O   UNL     1       8.907   1.540  25.283  0.00  0.00    -0.249 OA
BRANCH   5   7
ATOM      7  C   UNL     1       9.080   2.591  23.070  0.00  0.00    +0.163 C 
BRANCH   7   9
ATOM      8  C   UNL     1       6.753   1.805  22.306  0.00  0.00    +0.009 C 
ATOM      9  C   UNL     1       7.573   2.929  22.951  0.00  0.00    +0.010 C 
ATOM     10  C   UNL     1       7.339   4.240  22.195  0.00  0.00    +0.009 C 
ENDBRANCH   7   9
BRANCH   7  11
ATOM     11  N   UNL     1       9.665   2.213  21.764  0.00  0.00    -0.318 NA
ATOM     12  H   UNL     1      10.150   1.321  21.854  0.00  0.00    +0.119 HD
ATOM     13  H   UNL     1       8.908   2.059  21.096  0.00  0.00    +0.119 HD
ENDBRANCH   7  11
ENDBRANCH   5   7
ENDBRANCH   4   5
ENDBRANCH   3   4
ENDBRANCH   2   3
BRANCH   2  14
ATOM     14  C   UNL     1       9.067  -1.719  21.798  0.00  0.00    +0.190 C 
BRANCH  14  15
ATOM     15  O   UNL     1       9.423  -0.514  21.119  0.00  0.00    -0.392 OA
ATOM     16  H   UNL     1       8.629   0.049  21.160  0.00  0.00    +0.210 HD
ENDBRANCH  14  15
ENDBRANCH   2  14
ENDBRANCH   1   2
BRANCH   1  17
ATOM     17  C   UNL     1       8.024  -3.682  22.874  0.00  0.00    +0.287 C 
BRANCH  17  18
ATOM     18  N   UNL     1       6.862  -4.514  23.109  0.00  0.00    -0.292 N 
ATOM     19  C   UNL     1       6.479  -5.119  24.261  0.00  0.00    +0.148 A 
ATOM     20  N   UNL     1       6.994  -5.048  25.494  0.00  0.00    -0.312 N 
ATOM     21  H   UNL     1       7.814  -4.510  25.743  0.00  0.00    +0.170 HD
ATOM     22  C   UNL     1       6.409  -5.844  26.445  0.00  0.00    +0.195 A 
ATOM     23  N   UNL     1       5.393  -6.638  26.271  0.00  0.00    -0.176 NA
ATOM     24  C   UNL     1       4.786  -6.730  25.010  0.00  0.00    +0.302 A 
ATOM     25  O   UNL     1       3.811  -7.448  24.802  0.00  0.00    -0.263 OA
ATOM     26  N   UNL     1       7.017  -5.766  27.656  0.00  0.00    -0.329 N 
ATOM     27  H   UNL     1       6.471  -6.247  28.366  0.00  0.00    +0.145 HD
ATOM     28  H   UNL     1       7.268  -4.834  27.961  0.00  0.00    +0.145 HD
ATOM     29  C   UNL     1       5.404  -5.915  23.955  0.00  0.00    +0.172 A 
ATOM     30  N   UNL     1       5.106  -5.806  22.614  0.00  0.00    -0.229 NA
ATOM     31  C   UNL     1       5.999  -4.960  22.137  0.00  0.00    +0.203 A 
ENDBRANCH  17  18
ENDBRANCH   1  17
TORSDOF 11
ENDMDL
MODEL 7
REMARK VINA RESULT:      -5.5      2.222      3.790
REMARK  Name = 
REMARK  13 active torsions:
REMARK  status: ('A' for Active; 'I' for Inactive)
REMARK    1  A    between atoms: C_1  and  C_2
REMARK    2  A    between atoms: C_2  and  C_3
REMARK    3  A    between atoms: C_2  and  C_4
REMARK    4  A    between atoms: C_4  and  N_6
REMARK    5  A    between atoms: C_4  and  C_7
REMARK    6  A    between atoms: C_7  and  O_9
REMARK    7  A    between atoms: O_9  and  C_10
REMARK    8  A    between atoms: C_10  and  C_11
REMARK    9  A    between atoms: C_11  and  C_12
REMARK   10  A    between atoms: C_11  and  O_14
REMARK   11  A    between atoms: C_12  and  O_13
REMARK   12  A    between atoms: O_14  and  C_15
REMARK   13  A    between atoms: C_15  and  N_16
REMARK                            x       y       z     vdW  Elec       q    Type
REMARK                         _______ _______ _______ _____ _____    ______ ____
ROOT
ATOM      1  O   UNL     1       8.160  -2.589  25.054  0.00  0.00    -0.350 OA
ENDROOT
BRANCH   1   2
ATOM      2  C   UNL     1       7.380  -1.501  25.599  0.00  0.00    +0.183 C 
BRANCH   2   3
ATOM      3  C   UNL     1       8.216  -0.240  25.873  0.00  0.00    +0.266 C 
BRANCH   3   4
ATOM      4  O   UNL     1       8.629   0.355  24.630  0.00  0.00    -0.461 OA
BRANCH   4   5
ATOM      5  C   UNL     1       9.961   0.276  24.339  0.00  0.00    +0.324 C 
ATOM      6  O   UNL     1      10.851   0.412  25.168  0.00  0.00    -0.249 OA
BRANCH   5   7
ATOM      7  C   UNL     1      10.195  -0.084  22.854  0.00  0.00    +0.163 C 
BRANCH   7   9
ATOM      8  C   UNL     1      10.356   2.472  22.607  0.00  0.00    +0.009 C 
ATOM      9  C   UNL     1       9.956   1.147  21.945  0.00  0.00    +0.010 C 
ATOM     10  C   UNL     1       8.505   1.228  21.460  0.00  0.00    +0.009 C 
ENDBRANCH   7   9
BRANCH   7  11
ATOM     11  N   UNL     1       9.369  -1.241  22.445  0.00  0.00    -0.318 NA
ATOM     12  H   UNL     1       8.392  -0.956  22.378  0.00  0.00    +0.119 HD
ATOM     13  H   UNL     1       9.647  -1.529  21.506  0.00  0.00    +0.119 HD
ENDBRANCH   7  11
ENDBRANCH   5   7
ENDBRANCH   4   5
ENDBRANCH   3   4
ENDBRANCH   2   3
BRANCH   2  14
ATOM     14  C   UNL     1       6.260  -1.188  24.597  0.00  0.00    +0.190 C 
BRANCH  14  15
ATOM     15  O   UNL     1       6.663  -1.606  23.291  0.00  0.00    -0.392 OA
ATOM     16  H   UNL     1       6.794  -0.783  22.787  0.00  0.00    +0.210 HD
ENDBRANCH  14  15
ENDBRANCH   2  14
ENDBRANCH   1   2
BRANCH   1  17
ATOM     17  C   UNL     1       8.462  -3.596  26.015  0.00  0.00    +0.287 C 
BRANCH  17  18
ATOM     18  N   UNL     1       7.484  -4.659  25.907  0.00  0.00    -0.292 N 
ATOM     19  C   UNL     1       6.793  -5.058  24.810  0.00  0.00    +0.148 A 
ATOM     20  N   UNL     1       6.880  -4.662  23.535  0.00  0.00    -0.312 N 
ATOM     21  H   UNL     1       7.505  -3.941  23.200  0.00  0.00    +0.170 HD
ATOM     22  C   UNL     1       5.982  -5.220  22.661  0.00  0.00    +0.195 A 
ATOM     23  N   UNL     1       5.076  -6.109  22.946  0.00  0.00    -0.176 NA
ATOM     24  C   UNL     1       4.957  -6.592  24.258  0.00  0.00    +0.302 A 
ATOM     25  O   UNL     1       4.133  -7.447  24.571  0.00  0.00    -0.263 OA
ATOM     26  N   UNL     1       6.089  -4.731  21.400  0.00  0.00    -0.329 N 
ATOM     27  H   UNL     1       5.516  -5.270  20.754  0.00  0.00    +0.145 HD
ATOM     28  H   UNL     1       7.032  -4.627  21.048  0.00  0.00    +0.145 HD
ATOM     29  C   UNL     1       5.882  -5.994  25.231  0.00  0.00    +0.172 A 
ATOM     30  N   UNL     1       6.004  -6.189  26.590  0.00  0.00    -0.229 NA
ATOM     31  C   UNL     1       6.972  -5.374  26.963  0.00  0.00    +0.203 A 
ENDBRANCH  17  18
ENDBRANCH   1  17
TORSDOF 11
ENDMDL
MODEL 8
REMARK VINA RESULT:      -5.5      3.634      7.983
REMARK  Name = 
REMARK  13 active torsions:
REMARK  status: ('A' for Active; 'I' for Inactive)
REMARK    1  A    between atoms: C_1  and  C_2
REMARK    2  A    between atoms: C_2  and  C_3
REMARK    3  A    between atoms: C_2  and  C_4
REMARK    4  A    between atoms: C_4  and  N_6
REMARK    5  A    between atoms: C_4  and  C_7
REMARK    6  A    between atoms: C_7  and  O_9
REMARK    7  A    between atoms: O_9  and  C_10
REMARK    8  A    between atoms: C_10  and  C_11
REMARK    9  A    between atoms: C_11  and  C_12
REMARK   10  A    between atoms: C_11  and  O_14
REMARK   11  A    between atoms: C_12  and  O_13
REMARK   12  A    between atoms: O_14  and  C_15
REMARK   13  A    between atoms: C_15  and  N_16
REMARK                            x       y       z     vdW  Elec       q    Type
REMARK                         _______ _______ _______ _____ _____    ______ ____
ROOT
ATOM      1  O   UNL     1      10.514  -0.352  23.427  0.00  0.00    -0.350 OA
ENDROOT
BRANCH   1   2
ATOM      2  C   UNL     1       9.975  -1.236  22.419  0.00  0.00    +0.183 C 
BRANCH   2   3
ATOM      3  C   UNL     1       9.022  -2.296  22.997  0.00  0.00    +0.266 C 
BRANCH   3   4
ATOM      4  O   UNL     1       7.790  -2.305  22.254  0.00  0.00    -0.461 OA
BRANCH   4   5
ATOM      5  C   UNL     1       6.645  -2.417  22.991  0.00  0.00    +0.324 C 
ATOM      6  O   UNL     1       6.301  -1.611  23.846  0.00  0.00    -0.249 OA
BRANCH   5   7
ATOM      7  C   UNL     1       5.808  -3.639  22.552  0.00  0.00    +0.163 C 
BRANCH   7   9
ATOM      8  C   UNL     1       7.172  -5.774  22.108  0.00  0.00    +0.009 C 
ATOM      9  C   UNL     1       6.393  -4.948  23.139  0.00  0.00    +0.010 C 
ATOM     10  C   UNL     1       5.312  -5.817  23.788  0.00  0.00    +0.009 C 
ENDBRANCH   7   9
BRANCH   7  11
ATOM     11  N   UNL     1       5.681  -3.703  21.079  0.00  0.00    -0.318 NA
ATOM     12  H   UNL     1       6.074  -4.581  20.741  0.00  0.00    +0.119 HD
ATOM     13  H   UNL     1       4.689  -3.721  20.835  0.00  0.00    +0.119 HD
ENDBRANCH   7  11
ENDBRANCH   5   7
ENDBRANCH   4   5
ENDBRANCH   3   4
ENDBRANCH   2   3
BRANCH   2  14
ATOM     14  C   UNL     1       9.240  -0.368  21.387  0.00  0.00    +0.190 C 
BRANCH  14  15
ATOM     15  O   UNL     1       9.792   0.950  21.400  0.00  0.00    -0.392 OA
ATOM     16  H   UNL     1      10.517   0.933  20.750  0.00  0.00    +0.210 HD
ENDBRANCH  14  15
ENDBRANCH   2  14
ENDBRANCH   1   2
BRANCH   1  17
ATOM     17  C   UNL     1       9.825  -0.439  24.671  0.00  0.00    +0.287 C 
BRANCH  17  18
ATOM     18  N   UNL     1       9.075   0.782  24.882  0.00  0.00    -0.292 N 
ATOM     19  C   UNL     1       9.397   2.043  24.504  0.00  0.00    +0.148 A 
ATOM     20  N   UNL     1      10.421   2.498  23.771  0.00  0.00    -0.312 N 
ATOM     21  H   UNL     1      11.158   1.917  23.394  0.00  0.00    +0.170 HD
ATOM     22  C   UNL     1      10.506   3.858  23.620  0.00  0.00    +0.195 A 
ATOM     23  N   UNL     1       9.678   4.742  24.097  0.00  0.00    -0.176 NA
ATOM     24  C   UNL     1       8.564   4.328  24.843  0.00  0.00    +0.302 A 
ATOM     25  O   UNL     1       7.743   5.123  25.293  0.00  0.00    -0.263 OA
ATOM     26  N   UNL     1      11.598   4.252  22.917  0.00  0.00    -0.329 N 
ATOM     27  H   UNL     1      11.547   5.244  22.698  0.00  0.00    +0.145 HD
ATOM     28  H   UNL     1      11.806   3.707  22.090  0.00  0.00    +0.145 HD
ATOM     29  C   UNL     1       8.457   2.878  25.054  0.00  0.00    +0.172 A 
ATOM     30  N   UNL     1       7.539   2.141  25.770  0.00  0.00    -0.229 NA
ATOM     31  C   UNL     1       7.938   0.890  25.646  0.00  0.00    +0.203 A 
ENDBRANCH  17  18
ENDBRANCH   1  17
TORSDOF 11
ENDMDL
MODEL 9
REMARK VINA RESULT:      -5.4      2.809      6.653
REMARK  Name = 
REMARK  13 active torsions:
REMARK  status: ('A' for Active; 'I' for Inactive)
REMARK    1  A    between atoms: C_1  and  C_2
REMARK    2  A    between atoms: C_2  and  C_3
REMARK    3  A    between atoms: C_2  and  C_4
REMARK    4  A    between atoms: C_4  and  N_6
REMARK    5  A    between atoms: C_4  and  C_7
REMARK    6  A    between atoms: C_7  and  O_9
REMARK    7  A    between atoms: O_9  and  C_10
REMARK    8  A    between atoms: C_10  and  C_11
REMARK    9  A    between atoms: C_11  and  C_12
REMARK   10  A    between atoms: C_11  and  O_14
REMARK   11  A    between atoms: C_12  and  O_13
REMARK   12  A    between atoms: O_14  and  C_15
REMARK   13  A    between atoms: C_15  and  N_16
REMARK                            x       y       z     vdW  Elec       q    Type
REMARK                         _______ _______ _______ _____ _____    ______ ____
ROOT
ATOM      1  O   UNL     1       8.451  -2.628  26.078  0.00  0.00    -0.350 OA
ENDROOT
BRANCH   1   2
ATOM      2  C   UNL     1       8.738  -4.028  26.292  0.00  0.00    +0.183 C 
BRANCH   2   3
ATOM      3  C   UNL     1       7.476  -4.868  26.549  0.00  0.00    +0.266 C 
BRANCH   3   4
ATOM      4  O   UNL     1       6.955  -5.366  25.304  0.00  0.00    -0.461 OA
BRANCH   4   5
ATOM      5  C   UNL     1       5.709  -4.927  24.955  0.00  0.00    +0.324 C 
ATOM      6  O   UNL     1       4.948  -4.352  25.723  0.00  0.00    -0.249 OA
BRANCH   5   7
ATOM      7  C   UNL     1       5.421  -5.175  23.458  0.00  0.00    +0.163 C 
BRANCH   7   9
ATOM      8  C   UNL     1       6.254  -3.385  21.809  0.00  0.00    +0.009 C 
ATOM      9  C   UNL     1       6.592  -4.668  22.580  0.00  0.00    +0.010 C 
ATOM     10  C   UNL     1       7.083  -5.742  21.605  0.00  0.00    +0.009 C 
ENDBRANCH   7   9
BRANCH   7  11
ATOM     11  N   UNL     1       4.129  -4.579  23.053  0.00  0.00    -0.318 NA
ATOM     12  H   UNL     1       3.366  -5.190  23.345  0.00  0.00    +0.119 HD
ATOM     13  H   UNL     1       3.999  -3.700  23.557  0.00  0.00    +0.119 HD
ENDBRANCH   7  11
ENDBRANCH   5   7
ENDBRANCH   4   5
ENDBRANCH   3   4
ENDBRANCH   2   3
BRANCH   2  14
ATOM     14  C   UNL     1       9.474  -4.543  25.046  0.00  0.00    +0.190 C 
BRANCH  14  15
ATOM     15  O   UNL     1       9.887  -5.893  25.265  0.00  0.00    -0.392 OA
ATOM     16  H   UNL     1      10.858  -5.881  25.187  0.00  0.00    +0.210 HD
ENDBRANCH  14  15
ENDBRANCH   2  14
ENDBRANCH   1   2
BRANCH   1  17
ATOM     17  C   UNL     1       8.658  -2.215  24.730  0.00  0.00    +0.287 C 
BRANCH  17  18
ATOM     18  N   UNL     1       7.653  -1.233  24.378  0.00  0.00    -0.292 N 
ATOM     19  C   UNL     1       7.787  -0.137  23.592  0.00  0.00    +0.148 A 
ATOM     20  N   UNL     1       8.824   0.290  22.862  0.00  0.00    -0.312 N 
ATOM     21  H   UNL     1       9.723  -0.173  22.817  0.00  0.00    +0.170 HD
ATOM     22  C   UNL     1       8.665   1.491  22.220  0.00  0.00    +0.195 A 
ATOM     23  N   UNL     1       7.599   2.238  22.231  0.00  0.00    -0.176 NA
ATOM     24  C   UNL     1       6.465   1.829  22.947  0.00  0.00    +0.302 A 
ATOM     25  O   UNL     1       5.429   2.488  22.969  0.00  0.00    -0.263 OA
ATOM     26  N   UNL     1       9.774   1.890  21.548  0.00  0.00    -0.329 N 
ATOM     27  H   UNL     1       9.572   2.700  20.966  0.00  0.00    +0.145 HD
ATOM     28  H   UNL     1      10.247   1.171  21.016  0.00  0.00    +0.145 HD
ATOM     29  C   UNL     1       6.608   0.561  23.676  0.00  0.00    +0.172 A 
ATOM     30  N   UNL     1       5.731  -0.099  24.509  0.00  0.00    -0.229 NA
ATOM     31  C   UNL     1       6.388  -1.170  24.912  0.00  0.00    +0.203 A 
ENDBRANCH  17  18
ENDBRANCH   1  17
TORSDOF 11
ENDMDL
