MODEL 1
REMARK VINA RESULT:      -6.0      0.000      0.000
REMARK  Name = 
REMARK  5 active torsions:
REMARK  status: ('A' for Active; 'I' for Inactive)
REMARK    1  A    between atoms: N_1  and  C_2
REMARK    2  A    between atoms: C_2  and  C_3
REMARK    3  A    between atoms: C_3  and  C_4
REMARK    4  A    between atoms: C_7  and  O_8
REMARK    5  A    between atoms: C_9  and  C_11
REMARK                            x       y       z     vdW  Elec       q    Type
REMARK                         _______ _______ _______ _____ _____    ______ ____
ROOT
ATOM      1  C   UNL     1      10.585   5.374  23.670  0.00  0.00    -0.046 A 
ATOM      2  C   UNL     1      10.115   4.053  23.625  0.00  0.00    +0.011 A 
ATOM      3  C   UNL     1       8.754   3.745  23.470  0.00  0.00    -0.003 A 
ATOM      4  C   UNL     1       7.885   4.827  23.247  0.00  0.00    +0.120 A 
ATOM      5  C   UNL     1       8.337   6.150  23.264  0.00  0.00    +0.046 A 
ATOM      6  C   UNL     1       9.683   6.424  23.496  0.00  0.00    +0.007 A 
ENDROOT
BRANCH   3   7
ATOM      7  C   UNL     1       8.229   2.308  23.545  0.00  0.00    +0.023 C 
ATOM      8  C   UNL     1       8.886   1.493  24.682  0.00  0.00    +0.008 C 
ATOM      9  C   UNL     1      10.346   1.168  24.383  0.00  0.00    +0.001 C 
ATOM     10  C   UNL     1      10.484   0.357  23.100  0.00  0.00    +0.000 C 
ATOM     11  C   UNL     1       9.749   0.975  21.916  0.00  0.00    +0.001 C 
ATOM     12  C   UNL     1       8.332   1.463  22.251  0.00  0.00    +0.008 C 
ENDBRANCH   3   7
BRANCH   4  13
ATOM     13  O   UNL     1       6.563   4.583  22.991  0.00  0.00    -0.506 OA
ATOM     14  H   UNL     1       6.040   5.342  23.295  0.00  0.00    +0.292 HD
ENDBRANCH   4  13
BRANCH   1  15
ATOM     15  C   UNL     1      12.042   5.633  23.969  0.00  0.00    +0.050 C 
BRANCH  15  16
ATOM     16  C   UNL     1      12.904   5.457  22.713  0.00  0.00    +0.082 C 
BRANCH  16  17
ATOM     17  N   UNL     1      14.279   5.097  23.057  0.00  0.00    -0.330 NA
ATOM     18  H   UNL     1      14.839   5.032  22.209  0.00  0.00    +0.118 HD
ATOM     19  H   UNL     1      14.692   5.847  23.612  0.00  0.00    +0.118 HD
ENDBRANCH  16  17
ENDBRANCH  15  16
ENDBRANCH   1  15
TORSDOF 5
ENDMDL
MODEL 2
REMARK VINA RESULT:      -5.8      4.082      6.523
REMARK  Name = 
REMARK  5 active torsions:
REMARK  status: ('A' for Active; 'I' for Inactive)
REMARK    1  A    between atoms: N_1  and  C_2
REMARK    2  A    between atoms: C_2  and  C_3
REMARK    3  A    between atoms: C_3  and  C_4
REMARK    4  A    between atoms: C_7  and  O_8
REMARK    5  A    between atoms: C_9  and  C_11
REMARK                            x       y       z     vdW  Elec       q    Type
REMARK                         _______ _______ _______ _____ _____    ______ ____
ROOT
ATOM      1  C   UNL     1       9.053  -2.148  25.049  0.00  0.00    -0.046 A 
ATOM      2  C   UNL     1       9.411  -0.880  24.566  0.00  0.00    +0.011 A 
ATOM      3  C   UNL     1       8.915   0.306  25.132  0.00  0.00    -0.003 A 
ATOM      4  C   UNL     1       8.125   0.170  26.286  0.00  0.00    +0.120 A 
ATOM      5  C   UNL     1       7.776  -1.083  26.797  0.00  0.00    +0.046 A 
ATOM      6  C   UNL     1       8.223  -2.242  26.165  0.00  0.00    +0.007 A 
ENDROOT
BRANCH   3   7
ATOM      7  C   UNL     1       9.208   1.683  24.528  0.00  0.00    +0.023 C 
ATOM      8  C   UNL     1       7.958   2.332  23.892  0.00  0.00    +0.008 C 
ATOM      9  C   UNL     1       7.536   1.624  22.608  0.00  0.00    +0.001 C 
ATOM     10  C   UNL     1       8.647   1.654  21.566  0.00  0.00    +0.000 C 
ATOM     11  C   UNL     1       9.991   1.175  22.104  0.00  0.00    +0.001 C 
ATOM     12  C   UNL     1      10.349   1.753  23.482  0.00  0.00    +0.008 C 
ENDBRANCH   3   7
BRANCH   4  13
ATOM     13  O   UNL     1       7.693   1.293  26.938  0.00  0.00    -0.506 OA
ATOM     14  H   UNL     1       6.749   1.422  26.751  0.00  0.00    +0.292 HD
ENDBRANCH   4  13
BRANCH   1  15
ATOM     15  C   UNL     1       9.520  -3.381  24.311  0.00  0.00    +0.050 C 
BRANCH  15  16
ATOM     16  C   UNL     1       9.127  -4.657  25.066  0.00  0.00    +0.082 C 
BRANCH  16  17
ATOM     17  N   UNL     1      10.303  -5.457  25.405  0.00  0.00    -0.330 NA
ATOM     18  H   UNL     1      10.492  -5.383  26.403  0.00  0.00    +0.118 HD
ATOM     19  H   UNL     1      10.101  -6.441  25.229  0.00  0.00    +0.118 HD
ENDBRANCH  16  17
ENDBRANCH  15  16
ENDBRANCH   1  15
TORSDOF 5
ENDMDL
MODEL 3
REMARK VINA RESULT:      -5.7      3.578      6.233
REMARK  Name = 
REMARK  5 active torsions:
REMARK  status: ('A' for Active; 'I' for Inactive)
REMARK    1  A    between atoms: N_1  and  C_2
REMARK    2  A    between atoms: C_2  and  C_3
REMARK    3  A    between atoms: C_3  and  C_4
REMARK    4  A    between atoms: C_7  and  O_8
REMARK    5  A    between atoms: C_9  and  C_11
REMARK                            x       y       z     vdW  Elec       q    Type
REMARK                         _______ _______ _______ _____ _____    ______ ____
ROOT
ATOM      1  C   UNL     1       8.104  -1.416  24.966  0.00  0.00    -0.046 A 
ATOM      2  C   UNL     1       8.028  -0.390  24.013  0.00  0.00    +0.011 A 
ATOM      3  C   UNL     1       8.848  -0.361  22.874  0.00  0.00    -0.003 A 
ATOM      4  C   UNL     1       9.682  -1.474  22.670  0.00  0.00    +0.120 A 
ATOM      5  C   UNL     1       9.755  -2.518  23.596  0.00  0.00    +0.046 A 
ATOM      6  C   UNL     1       8.982  -2.479  24.754  0.00  0.00    +0.007 A 
ENDROOT
BRANCH   3   7
ATOM      7  C   UNL     1       8.850   0.821  21.900  0.00  0.00    +0.023 C 
ATOM      8  C   UNL     1      10.113   1.702  22.035  0.00  0.00    +0.008 C 
ATOM      9  C   UNL     1      10.116   2.501  23.335  0.00  0.00    +0.001 C 
ATOM     10  C   UNL     1       8.905   3.420  23.426  0.00  0.00    +0.000 C 
ATOM     11  C   UNL     1       7.585   2.705  23.163  0.00  0.00    +0.001 C 
ATOM     12  C   UNL     1       7.621   1.763  21.950  0.00  0.00    +0.008 C 
ENDBRANCH   3   7
BRANCH   4  13
ATOM     13  O   UNL     1      10.433  -1.548  21.528  0.00  0.00    -0.506 OA
ATOM     14  H   UNL     1      10.837  -0.681  21.362  0.00  0.00    +0.292 HD
ENDBRANCH   4  13
BRANCH   1  15
ATOM     15  C   UNL     1       7.284  -1.316  26.231  0.00  0.00    +0.050 C 
BRANCH  15  16
ATOM     16  C   UNL     1       7.767  -0.158  27.112  0.00  0.00    +0.082 C 
BRANCH  16  17
ATOM     17  N   UNL     1       9.118  -0.401  27.615  0.00  0.00    -0.330 NA
ATOM     18  H   UNL     1       9.580   0.488  27.801  0.00  0.00    +0.118 HD
ATOM     19  H   UNL     1       9.060  -0.882  28.513  0.00  0.00    +0.118 HD
ENDBRANCH  16  17
ENDBRANCH  15  16
ENDBRANCH   1  15
TORSDOF 5
ENDMDL
MODEL 4
REMARK VINA RESULT:      -5.7      6.753      8.874
REMARK  Name = 
REMARK  5 active torsions:
REMARK  status: ('A' for Active; 'I' for Inactive)
REMARK    1  A    between atoms: N_1  and  C_2
REMARK    2  A    between atoms: C_2  and  C_3
REMARK    3  A    between atoms: C_3  and  C_4
REMARK    4  A    between atoms: C_7  and  O_8
REMARK    5  A    between atoms: C_9  and  C_11
REMARK                            x       y       z     vdW  Elec       q    Type
REMARK                         _______ _______ _______ _____ _____    ______ ____
ROOT
ATOM      1  C   UNL     1       8.907  -3.420  24.830  0.00  0.00    -0.046 A 
ATOM      2  C   UNL     1       7.687  -3.675  24.185  0.00  0.00    +0.011 A 
ATOM      3  C   UNL     1       6.779  -4.640  24.650  0.00  0.00    -0.003 A 
ATOM      4  C   UNL     1       7.098  -5.270  25.865  0.00  0.00    +0.120 A 
ATOM      5  C   UNL     1       8.297  -5.014  26.535  0.00  0.00    +0.046 A 
ATOM      6  C   UNL     1       9.211  -4.104  26.006  0.00  0.00    +0.007 A 
ENDROOT
BRANCH   3   7
ATOM      7  C   UNL     1       5.507  -5.003  23.878  0.00  0.00    +0.023 C 
ATOM      8  C   UNL     1       5.606  -6.379  23.180  0.00  0.00    +0.008 C 
ATOM      9  C   UNL     1       6.570  -6.353  21.999  0.00  0.00    +0.001 C 
ATOM     10  C   UNL     1       6.136  -5.339  20.948  0.00  0.00    +0.000 C 
ATOM     11  C   UNL     1       5.855  -3.956  21.526  0.00  0.00    +0.001 C 
ATOM     12  C   UNL     1       5.024  -3.981  22.818  0.00  0.00    +0.008 C 
ENDBRANCH   3   7
BRANCH   4  13
ATOM     13  O   UNL     1       6.206  -6.149  26.418  0.00  0.00    -0.506 OA
ATOM     14  H   UNL     1       5.855  -5.766  27.238  0.00  0.00    +0.292 HD
ENDBRANCH   4  13
BRANCH   1  15
ATOM     15  C   UNL     1       9.891  -2.461  24.203  0.00  0.00    +0.050 C 
BRANCH  15  16
ATOM     16  C   UNL     1       9.336  -1.875  22.898  0.00  0.00    +0.082 C 
BRANCH  16  17
ATOM     17  N   UNL     1      10.399  -1.661  21.918  0.00  0.00    -0.330 NA
ATOM     18  H   UNL     1      11.023  -0.925  22.244  0.00  0.00    +0.118 HD
ATOM     19  H   UNL     1      10.968  -2.505  21.851  0.00  0.00    +0.118 HD
ENDBRANCH  16  17
ENDBRANCH  15  16
ENDBRANCH   1  15
TORSDOF 5
ENDMDL
MODEL 5
REMARK VINA RESULT:      -5.6      4.895      6.663
REMARK  Name = 
REMARK  5 active torsions:
REMARK  status: ('A' for Active; 'I' for Inactive)
REMARK    1  A    between atoms: N_1  and  C_2
REMARK    2  A    between atoms: C_2  and  C_3
REMARK    3  A    between atoms: C_3  and  C_4
REMARK    4  A    between atoms: C_7  and  O_8
REMARK    5  A    between atoms: C_9  and  C_11
REMARK                            x       y       z     vdW  Elec       q    Type
REMARK                         _______ _______ _______ _____ _____    ______ ____
ROOT
ATOM      1  C   UNL     1       8.955  -0.840  22.848  0.00  0.00    -0.046 A 
ATOM      2  C   UNL     1       7.839  -1.690  22.849  0.00  0.00    +0.011 A 
ATOM      3  C   UNL     1       7.411  -2.366  24.004  0.00  0.00    -0.003 A 
ATOM      4  C   UNL     1       8.089  -2.065  25.197  0.00  0.00    +0.120 A 
ATOM      5  C   UNL     1       9.189  -1.202  25.222  0.00  0.00    +0.046 A 
ATOM      6  C   UNL     1       9.634  -0.606  24.043  0.00  0.00    +0.007 A 
ENDROOT
BRANCH   3   7
ATOM      7  C   UNL     1       6.270  -3.387  23.975  0.00  0.00    +0.023 C 
ATOM      8  C   UNL     1       6.760  -4.834  24.208  0.00  0.00    +0.008 C 
ATOM      9  C   UNL     1       7.551  -5.369  23.018  0.00  0.00    +0.001 C 
ATOM     10  C   UNL     1       6.711  -5.370  21.747  0.00  0.00    +0.000 C 
ATOM     11  C   UNL     1       6.038  -4.031  21.470  0.00  0.00    +0.001 C 
ATOM     12  C   UNL     1       5.381  -3.399  22.706  0.00  0.00    +0.008 C 
ENDBRANCH   3   7
BRANCH   4  13
ATOM     13  O   UNL     1       7.656  -2.618  26.371  0.00  0.00    -0.506 OA
ATOM     14  H   UNL     1       6.878  -3.170  26.190  0.00  0.00    +0.292 HD
ENDBRANCH   4  13
BRANCH   1  15
ATOM     15  C   UNL     1       9.435  -0.248  21.544  0.00  0.00    +0.050 C 
BRANCH  15  16
ATOM     16  C   UNL     1       8.939   1.193  21.375  0.00  0.00    +0.082 C 
BRANCH  16  17
ATOM     17  N   UNL     1      10.007   2.157  21.633  0.00  0.00    -0.330 NA
ATOM     18  H   UNL     1      10.464   1.935  22.515  0.00  0.00    +0.118 HD
ATOM     19  H   UNL     1      10.724   2.063  20.912  0.00  0.00    +0.118 HD
ENDBRANCH  16  17
ENDBRANCH  15  16
ENDBRANCH   1  15
TORSDOF 5
ENDMDL
MODEL 6
REMARK VINA RESULT:      -5.6      4.207      6.610
REMARK  Name = 
REMARK  5 active torsions:
REMARK  status: ('A' for Active; 'I' for Inactive)
REMARK    1  A    between atoms: N_1  and  C_2
REMARK    2  A    between atoms: C_2  and  C_3
REMARK    3  A    between atoms: C_3  and  C_4
REMARK    4  A    between atoms: C_7  and  O_8
REMARK    5  A    between atoms: C_9  and  C_11
REMARK                            x       y       z     vdW  Elec       q    Type
REMARK                         _______ _______ _______ _____ _____    ______ ____
ROOT
ATOM      1  C   UNL     1       8.305  -2.373  24.456  0.00  0.00    -0.046 A 
ATOM      2  C   UNL     1       8.600  -1.004  24.383  0.00  0.00    +0.011 A 
ATOM      3  C   UNL     1       7.598  -0.023  24.314  0.00  0.00    -0.003 A 
ATOM      4  C   UNL     1       6.271  -0.469  24.435  0.00  0.00    +0.120 A 
ATOM      5  C   UNL     1       5.957  -1.827  24.532  0.00  0.00    +0.046 A 
ATOM      6  C   UNL     1       6.974  -2.781  24.521  0.00  0.00    +0.007 A 
ENDROOT
BRANCH   3   7
ATOM      7  C   UNL     1       7.921   1.461  24.111  0.00  0.00    +0.023 C 
ATOM      8  C   UNL     1       7.677   1.930  22.659  0.00  0.00    +0.008 C 
ATOM      9  C   UNL     1       8.708   1.355  21.692  0.00  0.00    +0.001 C 
ATOM     10  C   UNL     1      10.123   1.771  22.075  0.00  0.00    +0.000 C 
ATOM     11  C   UNL     1      10.454   1.501  23.539  0.00  0.00    +0.001 C 
ATOM     12  C   UNL     1       9.344   1.922  24.514  0.00  0.00    +0.008 C 
ENDBRANCH   3   7
BRANCH   4  13
ATOM     13  O   UNL     1       5.256   0.449  24.473  0.00  0.00    -0.506 OA
ATOM     14  H   UNL     1       5.296   0.993  23.669  0.00  0.00    +0.292 HD
ENDBRANCH   4  13
BRANCH   1  15
ATOM     15  C   UNL     1       9.431  -3.378  24.396  0.00  0.00    +0.050 C 
BRANCH  15  16
ATOM     16  C   UNL     1       9.225  -4.500  25.421  0.00  0.00    +0.082 C 
BRANCH  16  17
ATOM     17  N   UNL     1      10.284  -5.505  25.330  0.00  0.00    -0.330 NA
ATOM     18  H   UNL     1      10.663  -5.519  24.385  0.00  0.00    +0.118 HD
ATOM     19  H   UNL     1      11.056  -5.234  25.939  0.00  0.00    +0.118 HD
ENDBRANCH  16  17
ENDBRANCH  15  16
ENDBRANCH   1  15
TORSDOF 5
ENDMDL
MODEL 7
REMARK VINA RESULT:      -5.6      7.188      9.301
REMARK  Name = 
REMARK  5 active torsions:
REMARK  status: ('A' for Active; 'I' for Inactive)
REMARK    1  A    between atoms: N_1  and  C_2
REMARK    2  A    between atoms: C_2  and  C_3
REMARK    3  A    between atoms: C_3  and  C_4
REMARK    4  A    between atoms: C_7  and  O_8
REMARK    5  A    between atoms: C_9  and  C_11
REMARK                            x       y       z     vdW  Elec       q    Type
REMARK                         _______ _______ _______ _____ _____    ______ ____
ROOT
ATOM      1  C   UNL     1       8.276  -3.484  24.258  0.00  0.00    -0.046 A 
ATOM      2  C   UNL     1       6.990  -3.799  24.721  0.00  0.00    +0.011 A 
ATOM      3  C   UNL     1       6.773  -4.684  25.790  0.00  0.00    -0.003 A 
ATOM      4  C   UNL     1       7.915  -5.159  26.456  0.00  0.00    +0.120 A 
ATOM      5  C   UNL     1       9.205  -4.838  26.025  0.00  0.00    +0.046 A 
ATOM      6  C   UNL     1       9.385  -4.017  24.913  0.00  0.00    +0.007 A 
ENDROOT
BRANCH   3   7
ATOM      7  C   UNL     1       5.367  -5.122  26.213  0.00  0.00    +0.023 C 
ATOM      8  C   UNL     1       5.005  -6.536  25.704  0.00  0.00    +0.008 C 
ATOM      9  C   UNL     1       4.788  -6.562  24.194  0.00  0.00    +0.001 C 
ATOM     10  C   UNL     1       3.662  -5.624  23.778  0.00  0.00    +0.000 C 
ATOM     11  C   UNL     1       3.813  -4.215  24.341  0.00  0.00    +0.001 C 
ATOM     12  C   UNL     1       4.200  -4.178  25.827  0.00  0.00    +0.008 C 
ENDBRANCH   3   7
BRANCH   4  13
ATOM     13  O   UNL     1       7.764  -5.947  27.564  0.00  0.00    -0.506 OA
ATOM     14  H   UNL     1       6.960  -6.482  27.463  0.00  0.00    +0.292 HD
ENDBRANCH   4  13
BRANCH   1  15
ATOM     15  C   UNL     1       8.431  -2.628  23.023  0.00  0.00    +0.050 C 
BRANCH  15  16
ATOM     16  C   UNL     1       9.799  -1.934  23.000  0.00  0.00    +0.082 C 
BRANCH  16  17
ATOM     17  N   UNL     1      10.152  -1.503  21.649  0.00  0.00    -0.330 NA
ATOM     18  H   UNL     1       9.791  -0.565  21.483  0.00  0.00    +0.118 HD
ATOM     19  H   UNL     1      11.167  -1.430  21.575  0.00  0.00    +0.118 HD
ENDBRANCH  16  17
ENDBRANCH  15  16
ENDBRANCH   1  15
TORSDOF 5
ENDMDL
MODEL 8
REMARK VINA RESULT:      -5.6      4.356      6.134
REMARK  Name = 
REMARK  5 active torsions:
REMARK  status: ('A' for Active; 'I' for Inactive)
REMARK    1  A    between atoms: N_1  and  C_2
REMARK    2  A    between atoms: C_2  and  C_3
REMARK    3  A    between atoms: C_3  and  C_4
REMARK    4  A    between atoms: C_7  and  O_8
REMARK    5  A    between atoms: C_9  and  C_11
REMARK                            x       y       z     vdW  Elec       q    Type
REMARK                         _______ _______ _______ _____ _____    ______ ____
ROOT
ATOM      1  C   UNL     1       7.432   1.167  22.465  0.00  0.00    -0.046 A 
ATOM      2  C   UNL     1       7.321  -0.095  23.068  0.00  0.00    +0.011 A 
ATOM      3  C   UNL     1       8.232  -1.132  22.810  0.00  0.00    -0.003 A 
ATOM      4  C   UNL     1       9.334  -0.816  21.998  0.00  0.00    +0.120 A 
ATOM      5  C   UNL     1       9.475   0.443  21.406  0.00  0.00    +0.046 A 
ATOM      6  C   UNL     1       8.513   1.427  21.623  0.00  0.00    +0.007 A 
ENDROOT
BRANCH   3   7
ATOM      7  C   UNL     1       8.040  -2.544  23.372  0.00  0.00    +0.023 C 
ATOM      8  C   UNL     1       7.460  -3.527  22.330  0.00  0.00    +0.008 C 
ATOM      9  C   UNL     1       5.998  -3.226  22.013  0.00  0.00    +0.001 C 
ATOM     10  C   UNL     1       5.128  -3.317  23.261  0.00  0.00    +0.000 C 
ATOM     11  C   UNL     1       5.669  -2.505  24.432  0.00  0.00    +0.001 C 
ATOM     12  C   UNL     1       7.180  -2.669  24.655  0.00  0.00    +0.008 C 
ENDBRANCH   3   7
BRANCH   4  13
ATOM     13  O   UNL     1      10.305  -1.757  21.790  0.00  0.00    -0.506 OA
ATOM     14  H   UNL     1      11.159  -1.308  21.681  0.00  0.00    +0.292 HD
ENDBRANCH   4  13
BRANCH   1  15
ATOM     15  C   UNL     1       6.345   2.193  22.687  0.00  0.00    +0.050 C 
BRANCH  15  16
ATOM     16  C   UNL     1       6.757   3.562  22.132  0.00  0.00    +0.082 C 
BRANCH  16  17
ATOM     17  N   UNL     1       5.656   4.520  22.210  0.00  0.00    -0.330 NA
ATOM     18  H   UNL     1       5.432   4.707  23.185  0.00  0.00    +0.118 HD
ATOM     19  H   UNL     1       5.958   5.410  21.814  0.00  0.00    +0.118 HD
ENDBRANCH  16  17
ENDBRANCH  15  16
ENDBRANCH   1  15
TORSDOF 5
ENDMDL
MODEL 9
REMARK VINA RESULT:      -5.5      5.808      8.369
REMARK  Name = 
REMARK  5 active torsions:
REMARK  status: ('A' for Active; 'I' for Inactive)
REMARK    1  A    between atoms: N_1  and  C_2
REMARK    2  A    between atoms: C_2  and  C_3
REMARK    3  A    between atoms: C_3  and  C_4
REMARK    4  A    between atoms: C_7  and  O_8
REMARK    5  A    between atoms: C_9  and  C_11
REMARK                            x       y       z     vdW  Elec       q    Type
REMARK                         _______ _______ _______ _____ _____    ______ ____
ROOT
ATOM      1  C   UNL     1       7.167  -4.717  24.910  0.00  0.00    -0.046 A 
ATOM      2  C   UNL     1       7.485  -3.417  24.486  0.00  0.00    +0.011 A 
ATOM      3  C   UNL     1       7.003  -2.882  23.281  0.00  0.00    -0.003 A 
ATOM      4  C   UNL     1       6.089  -3.672  22.562  0.00  0.00    +0.120 A 
ATOM      5  C   UNL     1       5.741  -4.960  22.980  0.00  0.00    +0.046 A 
ATOM      6  C   UNL     1       6.297  -5.490  24.143  0.00  0.00    +0.007 A 
ENDROOT
BRANCH   3   7
ATOM      7  C   UNL     1       7.449  -1.513  22.760  0.00  0.00    +0.023 C 
ATOM      8  C   UNL     1       8.792  -1.573  21.998  0.00  0.00    +0.008 C 
ATOM      9  C   UNL     1       9.968  -1.836  22.933  0.00  0.00    +0.001 C 
ATOM     10  C   UNL     1      10.092  -0.747  23.991  0.00  0.00    +0.000 C 
ATOM     11  C   UNL     1       8.786  -0.474  24.729  0.00  0.00    +0.001 C 
ATOM     12  C   UNL     1       7.562  -0.376  23.807  0.00  0.00    +0.008 C 
ENDBRANCH   3   7
BRANCH   4  13
ATOM     13  O   UNL     1       5.511  -3.165  21.430  0.00  0.00    -0.506 OA
ATOM     14  H   UNL     1       4.650  -2.780  21.663  0.00  0.00    +0.292 HD
ENDBRANCH   4  13
BRANCH   1  15
ATOM     15  C   UNL     1       7.824  -5.273  26.151  0.00  0.00    +0.050 C 
BRANCH  15  16
ATOM     16  C   UNL     1       9.275  -4.789  26.272  0.00  0.00    +0.082 C 
BRANCH  16  17
ATOM     17  N   UNL     1      10.165  -5.557  25.402  0.00  0.00    -0.330 NA
ATOM     18  H   UNL     1      10.988  -5.000  25.176  0.00  0.00    +0.118 HD
ATOM     19  H   UNL     1      10.508  -6.373  25.910  0.00  0.00    +0.118 HD
ENDBRANCH  16  17
ENDBRANCH  15  16
ENDBRANCH   1  15
TORSDOF 5
ENDMDL
