MODEL 1
REMARK VINA RESULT:      -6.3      0.000      0.000
REMARK  Name = 
REMARK  9 active torsions:
REMARK  status: ('A' for Active; 'I' for Inactive)
REMARK    1  A    between atoms: C_2  and  N_3
REMARK    2  A    between atoms: C_2  and  C_4
REMARK    3  A    between atoms: C_2  and  C_17
REMARK    4  A    between atoms: C_4  and  C_5
REMARK    5  A    between atoms: C_4  and  C_11
REMARK    6  A    between atoms: C_23  and  C_25
REMARK    7  A    between atoms: N_27  and  C_28
REMARK    8  A    between atoms: C_28  and  C_29
REMARK    9  A    between atoms: C_29  and  C_30
REMARK                            x       y       z     vdW  Elec       q    Type
REMARK                         _______ _______ _______ _____ _____    ______ ____
ROOT
ATOM      1  C   UNL     1       6.785  -2.349  25.028  0.00  0.00    +0.150 C 
ENDROOT
BRANCH   1   2
ATOM      2  C   UNL     1       5.509  -2.016  25.869  0.00  0.00    +0.234 C 
ATOM      3  N   UNL     1       5.017  -2.836  26.869  0.00  0.00    -0.289 N 
ATOM      4  C   UNL     1       5.643  -4.008  27.494  0.00  0.00    +0.162 C 
ATOM      5  C   UNL     1       4.771  -4.350  28.701  0.00  0.00    +0.033 C 
ATOM      6  C   UNL     1       4.052  -3.057  29.030  0.00  0.00    +0.021 C 
ATOM      7  C   UNL     1       3.931  -2.335  27.698  0.00  0.00    +0.108 C 
ATOM      8  O   UNL     1       4.862  -1.009  25.537  0.00  0.00    -0.274 OA
BRANCH   4   9
ATOM      9  C   UNL     1       5.786  -5.246  26.593  0.00  0.00    +0.234 C 
ATOM     10  N   UNL     1       4.619  -5.686  26.001  0.00  0.00    -0.314 N 
ATOM     11  H   UNL     1       3.891  -4.980  25.942  0.00  0.00    +0.149 HD
ATOM     12  O   UNL     1       6.857  -5.846  26.501  0.00  0.00    -0.274 OA
BRANCH  10  13
ATOM     13  C   UNL     1       4.721  -6.640  24.915  0.00  0.00    +0.104 C 
BRANCH  13  14
ATOM     14  C   UNL     1       3.867  -6.279  23.704  0.00  0.00    +0.015 C 
ATOM     15  C   UNL     1       3.410  -4.827  23.703  0.00  0.00    +0.005 C 
ENDBRANCH  13  14
ENDBRANCH  10  13
ENDBRANCH   4   9
ENDBRANCH   1   2
BRANCH   1  16
ATOM     16  N   UNL     1       7.921  -1.611  25.635  0.00  0.00    -0.319 NA
ATOM     17  H   UNL     1       7.711  -0.613  25.554  0.00  0.00    +0.119 HD
ATOM     18  H   UNL     1       7.933  -1.805  26.639  0.00  0.00    +0.119 HD
ENDBRANCH   1  16
BRANCH   1  19
ATOM     19  C   UNL     1       6.677  -2.233  23.476  0.00  0.00    +0.075 C 
BRANCH  19  20
ATOM     20  C   UNL     1       6.855  -3.561  22.740  0.00  0.00    -0.038 A 
ATOM     21  C   UNL     1       7.597  -4.627  23.273  0.00  0.00    +0.004 A 
ATOM     22  C   UNL     1       7.562  -5.888  22.676  0.00  0.00    +0.000 A 
ATOM     23  C   UNL     1       6.811  -6.096  21.524  0.00  0.00    +0.000 A 
ATOM     24  C   UNL     1       6.107  -5.039  20.954  0.00  0.00    +0.000 A 
ATOM     25  C   UNL     1       6.139  -3.778  21.548  0.00  0.00    +0.004 A 
ENDBRANCH  19  20
BRANCH  19  26
ATOM     26  C   UNL     1       7.515  -1.088  22.904  0.00  0.00    -0.038 A 
ATOM     27  C   UNL     1       8.729  -1.384  22.256  0.00  0.00    +0.004 A 
ATOM     28  C   UNL     1       9.453  -0.391  21.597  0.00  0.00    +0.000 A 
ATOM     29  C   UNL     1       8.974   0.917  21.578  0.00  0.00    +0.000 A 
ATOM     30  C   UNL     1       7.792   1.229  22.250  0.00  0.00    +0.000 A 
ATOM     31  C   UNL     1       7.063   0.242  22.908  0.00  0.00    +0.004 A 
ENDBRANCH  19  26
ENDBRANCH   1  19
TORSDOF 8
ENDMDL
MODEL 2
REMARK VINA RESULT:      -6.2      2.299      5.324
REMARK  Name = 
REMARK  9 active torsions:
REMARK  status: ('A' for Active; 'I' for Inactive)
REMARK    1  A    between atoms: C_2  and  N_3
REMARK    2  A    between atoms: C_2  and  C_4
REMARK    3  A    between atoms: C_2  and  C_17
REMARK    4  A    between atoms: C_4  and  C_5
REMARK    5  A    between atoms: C_4  and  C_11
REMARK    6  A    between atoms: C_23  and  C_25
REMARK    7  A    between atoms: N_27  and  C_28
REMARK    8  A    between atoms: C_28  and  C_29
REMARK    9  A    between atoms: C_29  and  C_30
REMARK                            x       y       z     vdW  Elec       q    Type
REMARK                         _______ _______ _______ _____ _____    ______ ____
ROOT
ATOM      1  C   UNL     1       8.690  -3.881  25.567  0.00  0.00    +0.150 C 
ENDROOT
BRANCH   1   2
ATOM      2  C   UNL     1       9.443  -2.871  24.640  0.00  0.00    +0.234 C 
ATOM      3  N   UNL     1       9.259  -1.501  24.693  0.00  0.00    -0.289 N 
ATOM      4  C   UNL     1       8.549  -0.702  25.699  0.00  0.00    +0.162 C 
ATOM      5  C   UNL     1       8.894   0.754  25.393  0.00  0.00    +0.033 C 
ATOM      6  C   UNL     1      10.197   0.682  24.621  0.00  0.00    +0.021 C 
ATOM      7  C   UNL     1      10.145  -0.657  23.905  0.00  0.00    +0.108 C 
ATOM      8  O   UNL     1      10.160  -3.353  23.747  0.00  0.00    -0.274 OA
BRANCH   4   9
ATOM      9  C   UNL     1       7.022  -0.875  25.730  0.00  0.00    +0.234 C 
ATOM     10  N   UNL     1       6.493  -1.254  26.949  0.00  0.00    -0.314 N 
ATOM     11  H   UNL     1       7.091  -1.049  27.743  0.00  0.00    +0.149 HD
ATOM     12  O   UNL     1       6.348  -0.777  24.705  0.00  0.00    -0.274 OA
BRANCH  10  13
ATOM     13  C   UNL     1       5.061  -1.140  27.137  0.00  0.00    +0.104 C 
BRANCH  13  14
ATOM     14  C   UNL     1       4.346  -2.485  27.207  0.00  0.00    +0.015 C 
ATOM     15  C   UNL     1       3.648  -2.863  25.907  0.00  0.00    +0.005 C 
ENDBRANCH  13  14
ENDBRANCH  10  13
ENDBRANCH   4   9
ENDBRANCH   1   2
BRANCH   1  16
ATOM     16  N   UNL     1       9.559  -5.074  25.721  0.00  0.00    -0.319 NA
ATOM     17  H   UNL     1       9.582  -5.304  26.717  0.00  0.00    +0.119 HD
ATOM     18  H   UNL     1       9.100  -5.869  25.269  0.00  0.00    +0.119 HD
ENDBRANCH   1  16
BRANCH   1  19
ATOM     19  C   UNL     1       7.197  -4.191  25.236  0.00  0.00    +0.075 C 
BRANCH  19  20
ATOM     20  C   UNL     1       6.547  -5.200  26.183  0.00  0.00    -0.038 A 
ATOM     21  C   UNL     1       6.839  -5.244  27.556  0.00  0.00    +0.004 A 
ATOM     22  C   UNL     1       6.076  -6.029  28.420  0.00  0.00    +0.000 A 
ATOM     23  C   UNL     1       5.031  -6.803  27.925  0.00  0.00    +0.000 A 
ATOM     24  C   UNL     1       4.757  -6.808  26.561  0.00  0.00    +0.000 A 
ATOM     25  C   UNL     1       5.517  -6.024  25.693  0.00  0.00    +0.004 A 
ENDBRANCH  19  20
BRANCH  19  26
ATOM     26  C   UNL     1       6.965  -4.491  23.753  0.00  0.00    -0.038 A 
ATOM     27  C   UNL     1       7.522  -5.657  23.195  0.00  0.00    +0.004 A 
ATOM     28  C   UNL     1       7.220  -6.044  21.890  0.00  0.00    +0.000 A 
ATOM     29  C   UNL     1       6.357  -5.267  21.121  0.00  0.00    +0.000 A 
ATOM     30  C   UNL     1       5.830  -4.089  21.650  0.00  0.00    +0.000 A 
ATOM     31  C   UNL     1       6.125  -3.699  22.955  0.00  0.00    +0.004 A 
ENDBRANCH  19  26
ENDBRANCH   1  19
TORSDOF 8
ENDMDL
MODEL 3
REMARK VINA RESULT:      -6.1      2.207      5.628
REMARK  Name = 
REMARK  9 active torsions:
REMARK  status: ('A' for Active; 'I' for Inactive)
REMARK    1  A    between atoms: C_2  and  N_3
REMARK    2  A    between atoms: C_2  and  C_4
REMARK    3  A    between atoms: C_2  and  C_17
REMARK    4  A    between atoms: C_4  and  C_5
REMARK    5  A    between atoms: C_4  and  C_11
REMARK    6  A    between atoms: C_23  and  C_25
REMARK    7  A    between atoms: N_27  and  C_28
REMARK    8  A    between atoms: C_28  and  C_29
REMARK    9  A    between atoms: C_29  and  C_30
REMARK                            x       y       z     vdW  Elec       q    Type
REMARK                         _______ _______ _______ _____ _____    ______ ____
ROOT
ATOM      1  C   UNL     1       8.495  -4.087  25.902  0.00  0.00    +0.150 C 
ENDROOT
BRANCH   1   2
ATOM      2  C   UNL     1       9.288  -3.160  24.924  0.00  0.00    +0.234 C 
ATOM      3  N   UNL     1       9.122  -1.788  24.867  0.00  0.00    -0.289 N 
ATOM      4  C   UNL     1       8.394  -0.906  25.788  0.00  0.00    +0.162 C 
ATOM      5  C   UNL     1       8.768   0.518  25.383  0.00  0.00    +0.033 C 
ATOM      6  C   UNL     1      10.091   0.372  24.658  0.00  0.00    +0.021 C 
ATOM      7  C   UNL     1      10.042  -1.016  24.044  0.00  0.00    +0.108 C 
ATOM      8  O   UNL     1      10.024  -3.717  24.093  0.00  0.00    -0.274 OA
BRANCH   4   9
ATOM      9  C   UNL     1       6.864  -1.059  25.786  0.00  0.00    +0.234 C 
ATOM     10  N   UNL     1       6.323  -1.621  26.926  0.00  0.00    -0.314 N 
ATOM     11  H   UNL     1       6.920  -1.556  27.745  0.00  0.00    +0.149 HD
ATOM     12  O   UNL     1       6.197  -0.786  24.788  0.00  0.00    -0.274 OA
BRANCH  10  13
ATOM     13  C   UNL     1       4.892  -1.517  27.126  0.00  0.00    +0.104 C 
BRANCH  13  14
ATOM     14  C   UNL     1       4.172  -2.861  27.087  0.00  0.00    +0.015 C 
ATOM     15  C   UNL     1       3.345  -3.063  25.824  0.00  0.00    +0.005 C 
ENDBRANCH  13  14
ENDBRANCH  10  13
ENDBRANCH   4   9
ENDBRANCH   1   2
BRANCH   1  16
ATOM     16  N   UNL     1       9.452  -4.574  26.926  0.00  0.00    -0.319 NA
ATOM     17  H   UNL     1       9.268  -5.570  27.062  0.00  0.00    +0.119 HD
ATOM     18  H   UNL     1      10.397  -4.523  26.535  0.00  0.00    +0.119 HD
ENDBRANCH   1  16
BRANCH   1  19
ATOM     19  C   UNL     1       7.584  -5.188  25.275  0.00  0.00    +0.075 C 
BRANCH  19  20
ATOM     20  C   UNL     1       7.128  -4.880  23.849  0.00  0.00    -0.038 A 
ATOM     21  C   UNL     1       7.487  -5.679  22.752  0.00  0.00    +0.004 A 
ATOM     22  C   UNL     1       6.884  -5.493  21.508  0.00  0.00    +0.000 A 
ATOM     23  C   UNL     1       5.937  -4.489  21.332  0.00  0.00    +0.000 A 
ATOM     24  C   UNL     1       5.603  -3.656  22.396  0.00  0.00    +0.000 A 
ATOM     25  C   UNL     1       6.203  -3.840  23.641  0.00  0.00    +0.004 A 
ENDBRANCH  19  20
BRANCH  19  26
ATOM     26  C   UNL     1       6.453  -5.628  26.207  0.00  0.00    -0.038 A 
ATOM     27  C   UNL     1       5.329  -6.275  25.662  0.00  0.00    +0.004 A 
ATOM     28  C   UNL     1       4.343  -6.819  26.486  0.00  0.00    +0.000 A 
ATOM     29  C   UNL     1       4.467  -6.721  27.870  0.00  0.00    +0.000 A 
ATOM     30  C   UNL     1       5.558  -6.048  28.420  0.00  0.00    +0.000 A 
ATOM     31  C   UNL     1       6.547  -5.505  27.603  0.00  0.00    +0.004 A 
ENDBRANCH  19  26
ENDBRANCH   1  19
TORSDOF 8
ENDMDL
MODEL 4
REMARK VINA RESULT:      -5.7      2.414      3.917
REMARK  Name = 
REMARK  9 active torsions:
REMARK  status: ('A' for Active; 'I' for Inactive)
REMARK    1  A    between atoms: C_2  and  N_3
REMARK    2  A    between atoms: C_2  and  C_4
REMARK    3  A    between atoms: C_2  and  C_17
REMARK    4  A    between atoms: C_4  and  C_5
REMARK    5  A    between atoms: C_4  and  C_11
REMARK    6  A    between atoms: C_23  and  C_25
REMARK    7  A    between atoms: N_27  and  C_28
REMARK    8  A    between atoms: C_28  and  C_29
REMARK    9  A    between atoms: C_29  and  C_30
REMARK                            x       y       z     vdW  Elec       q    Type
REMARK                         _______ _______ _______ _____ _____    ______ ____
ROOT
ATOM      1  C   UNL     1       7.907  -1.017  26.253  0.00  0.00    +0.150 C 
ENDROOT
BRANCH   1   2
ATOM      2  C   UNL     1       6.756  -1.916  26.813  0.00  0.00    +0.234 C 
ATOM      3  N   UNL     1       6.810  -3.298  26.840  0.00  0.00    -0.289 N 
ATOM      4  C   UNL     1       7.953  -4.184  26.587  0.00  0.00    +0.162 C 
ATOM      5  C   UNL     1       7.500  -5.579  27.013  0.00  0.00    +0.033 C 
ATOM      6  C   UNL     1       6.372  -5.329  27.994  0.00  0.00    +0.021 C 
ATOM      7  C   UNL     1       5.757  -4.014  27.547  0.00  0.00    +0.108 C 
ATOM      8  O   UNL     1       5.707  -1.342  27.151  0.00  0.00    -0.274 OA
BRANCH   4   9
ATOM      9  C   UNL     1       8.454  -4.225  25.134  0.00  0.00    +0.234 C 
ATOM     10  N   UNL     1       7.467  -4.226  24.167  0.00  0.00    -0.314 N 
ATOM     11  H   UNL     1       6.573  -3.864  24.486  0.00  0.00    +0.149 HD
ATOM     12  O   UNL     1       9.651  -4.350  24.876  0.00  0.00    -0.274 OA
BRANCH  10  13
ATOM     13  C   UNL     1       7.853  -3.956  22.797  0.00  0.00    +0.104 C 
BRANCH  13  14
ATOM     14  C   UNL     1       6.696  -3.497  21.916  0.00  0.00    +0.015 C 
ATOM     15  C   UNL     1       5.640  -2.706  22.677  0.00  0.00    +0.005 C 
ENDBRANCH  13  14
ENDBRANCH  10  13
ENDBRANCH   4   9
ENDBRANCH   1   2
BRANCH   1  16
ATOM     16  N   UNL     1       8.514  -0.305  27.405  0.00  0.00    -0.319 NA
ATOM     17  H   UNL     1       9.374  -0.801  27.649  0.00  0.00    +0.119 HD
ATOM     18  H   UNL     1       8.814   0.622  27.090  0.00  0.00    +0.119 HD
ENDBRANCH   1  16
BRANCH   1  19
ATOM     19  C   UNL     1       7.587  -0.120  25.018  0.00  0.00    +0.075 C 
BRANCH  19  20
ATOM     20  C   UNL     1       8.536  -0.326  23.837  0.00  0.00    -0.038 A 
ATOM     21  C   UNL     1       9.750  -1.021  23.956  0.00  0.00    +0.004 A 
ATOM     22  C   UNL     1      10.484  -1.372  22.823  0.00  0.00    +0.000 A 
ATOM     23  C   UNL     1      10.033  -1.009  21.557  0.00  0.00    +0.000 A 
ATOM     24  C   UNL     1       8.856  -0.279  21.423  0.00  0.00    +0.000 A 
ATOM     25  C   UNL     1       8.119   0.073  22.553  0.00  0.00    +0.004 A 
ENDBRANCH  19  20
BRANCH  19  26
ATOM     26  C   UNL     1       7.365   1.348  25.388  0.00  0.00    -0.038 A 
ATOM     27  C   UNL     1       8.389   2.280  25.137  0.00  0.00    +0.004 A 
ATOM     28  C   UNL     1       8.180   3.646  25.325  0.00  0.00    +0.000 A 
ATOM     29  C   UNL     1       6.941   4.100  25.772  0.00  0.00    +0.000 A 
ATOM     30  C   UNL     1       5.931   3.182  26.061  0.00  0.00    +0.000 A 
ATOM     31  C   UNL     1       6.133   1.817  25.872  0.00  0.00    +0.004 A 
ENDBRANCH  19  26
ENDBRANCH   1  19
TORSDOF 8
ENDMDL
MODEL 5
REMARK VINA RESULT:      -5.7      2.647      6.332
REMARK  Name = 
REMARK  9 active torsions:
REMARK  status: ('A' for Active; 'I' for Inactive)
REMARK    1  A    between atoms: C_2  and  N_3
REMARK    2  A    between atoms: C_2  and  C_4
REMARK    3  A    between atoms: C_2  and  C_17
REMARK    4  A    between atoms: C_4  and  C_5
REMARK    5  A    between atoms: C_4  and  C_11
REMARK    6  A    between atoms: C_23  and  C_25
REMARK    7  A    between atoms: N_27  and  C_28
REMARK    8  A    between atoms: C_28  and  C_29
REMARK    9  A    between atoms: C_29  and  C_30
REMARK                            x       y       z     vdW  Elec       q    Type
REMARK                         _______ _______ _______ _____ _____    ______ ____
ROOT
ATOM      1  C   UNL     1       9.102  -2.509  24.227  0.00  0.00    +0.150 C 
ENDROOT
BRANCH   1   2
ATOM      2  C   UNL     1       9.496  -1.427  23.169  0.00  0.00    +0.234 C 
ATOM      3  N   UNL     1       9.459  -0.067  23.416  0.00  0.00    -0.289 N 
ATOM      4  C   UNL     1       9.279   0.636  24.693  0.00  0.00    +0.162 C 
ATOM      5  C   UNL     1       9.586   2.105  24.406  0.00  0.00    +0.033 C 
ATOM      6  C   UNL     1      10.458   2.075  23.166  0.00  0.00    +0.021 C 
ATOM      7  C   UNL     1      10.017   0.831  22.415  0.00  0.00    +0.108 C 
ATOM      8  O   UNL     1       9.753  -1.829  22.022  0.00  0.00    -0.274 OA
BRANCH   4   9
ATOM      9  C   UNL     1       7.885   0.515  25.329  0.00  0.00    +0.234 C 
ATOM     10  N   UNL     1       7.872   0.350  26.701  0.00  0.00    -0.314 N 
ATOM     11  H   UNL     1       8.720   0.660  27.164  0.00  0.00    +0.149 HD
ATOM     12  O   UNL     1       6.869   0.470  24.635  0.00  0.00    -0.274 OA
BRANCH  10  13
ATOM     13  C   UNL     1       6.616   0.534  27.399  0.00  0.00    +0.104 C 
BRANCH  13  14
ATOM     14  C   UNL     1       6.333   1.986  27.772  0.00  0.00    +0.015 C 
ATOM     15  C   UNL     1       7.060   2.434  29.033  0.00  0.00    +0.005 C 
ENDBRANCH  13  14
ENDBRANCH  10  13
ENDBRANCH   4   9
ENDBRANCH   1   2
BRANCH   1  16
ATOM     16  N   UNL     1      10.096  -3.608  24.128  0.00  0.00    -0.319 NA
ATOM     17  H   UNL     1      11.016  -3.199  24.303  0.00  0.00    +0.119 HD
ATOM     18  H   UNL     1       9.936  -4.258  24.902  0.00  0.00    +0.119 HD
ENDBRANCH   1  16
BRANCH   1  19
ATOM     19  C   UNL     1       7.612  -2.970  24.270  0.00  0.00    +0.075 C 
BRANCH  19  20
ATOM     20  C   UNL     1       7.172  -3.525  25.624  0.00  0.00    -0.038 A 
ATOM     21  C   UNL     1       6.016  -3.078  26.284  0.00  0.00    +0.004 A 
ATOM     22  C   UNL     1       5.533  -3.751  27.407  0.00  0.00    +0.000 A 
ATOM     23  C   UNL     1       6.209  -4.860  27.904  0.00  0.00    +0.000 A 
ATOM     24  C   UNL     1       7.383  -5.290  27.290  0.00  0.00    +0.000 A 
ATOM     25  C   UNL     1       7.869  -4.620  26.168  0.00  0.00    +0.004 A 
ENDBRANCH  19  20
BRANCH  19  26
ATOM     26  C   UNL     1       7.227  -3.853  23.081  0.00  0.00    -0.038 A 
ATOM     27  C   UNL     1       7.539  -5.224  23.117  0.00  0.00    +0.004 A 
ATOM     28  C   UNL     1       7.083  -6.091  22.124  0.00  0.00    +0.000 A 
ATOM     29  C   UNL     1       6.309  -5.597  21.076  0.00  0.00    +0.000 A 
ATOM     30  C   UNL     1       6.027  -4.233  21.010  0.00  0.00    +0.000 A 
ATOM     31  C   UNL     1       6.476  -3.362  22.000  0.00  0.00    +0.004 A 
ENDBRANCH  19  26
ENDBRANCH   1  19
TORSDOF 8
ENDMDL
MODEL 6
REMARK VINA RESULT:      -5.6      2.467      6.331
REMARK  Name = 
REMARK  9 active torsions:
REMARK  status: ('A' for Active; 'I' for Inactive)
REMARK    1  A    between atoms: C_2  and  N_3
REMARK    2  A    between atoms: C_2  and  C_4
REMARK    3  A    between atoms: C_2  and  C_17
REMARK    4  A    between atoms: C_4  and  C_5
REMARK    5  A    between atoms: C_4  and  C_11
REMARK    6  A    between atoms: C_23  and  C_25
REMARK    7  A    between atoms: N_27  and  C_28
REMARK    8  A    between atoms: C_28  and  C_29
REMARK    9  A    between atoms: C_29  and  C_30
REMARK                            x       y       z     vdW  Elec       q    Type
REMARK                         _______ _______ _______ _____ _____    ______ ____
ROOT
ATOM      1  C   UNL     1       8.062  -2.413  25.088  0.00  0.00    +0.150 C 
ENDROOT
BRANCH   1   2
ATOM      2  C   UNL     1       9.286  -1.780  24.350  0.00  0.00    +0.234 C 
ATOM      3  N   UNL     1       9.430  -0.420  24.137  0.00  0.00    -0.289 N 
ATOM      4  C   UNL     1       8.655   0.691  24.702  0.00  0.00    +0.162 C 
ATOM      5  C   UNL     1       9.419   1.961  24.331  0.00  0.00    +0.033 C 
ATOM      6  C   UNL     1      10.839   1.493  24.085  0.00  0.00    +0.021 C 
ATOM      7  C   UNL     1      10.694   0.062  23.598  0.00  0.00    +0.108 C 
ATOM      8  O   UNL     1      10.107  -2.563  23.846  0.00  0.00    -0.274 OA
BRANCH   4   9
ATOM      9  C   UNL     1       7.200   0.803  24.219  0.00  0.00    +0.234 C 
ATOM     10  N   UNL     1       6.325   1.394  25.108  0.00  0.00    -0.314 N 
ATOM     11  H   UNL     1       6.773   1.980  25.806  0.00  0.00    +0.149 HD
ATOM     12  O   UNL     1       6.843   0.303  23.152  0.00  0.00    -0.274 OA
BRANCH  10  13
ATOM     13  C   UNL     1       5.027   1.809  24.615  0.00  0.00    +0.104 C 
BRANCH  13  14
ATOM     14  C   UNL     1       4.983   3.264  24.160  0.00  0.00    +0.015 C 
ATOM     15  C   UNL     1       5.078   3.424  22.649  0.00  0.00    +0.005 C 
ENDBRANCH  13  14
ENDBRANCH  10  13
ENDBRANCH   4   9
ENDBRANCH   1   2
BRANCH   1  16
ATOM     16  N   UNL     1       8.113  -1.960  26.501  0.00  0.00    -0.319 NA
ATOM     17  H   UNL     1       9.098  -1.935  26.774  0.00  0.00    +0.119 HD
ATOM     18  H   UNL     1       7.795  -0.988  26.540  0.00  0.00    +0.119 HD
ENDBRANCH   1  16
BRANCH   1  19
ATOM     19  C   UNL     1       7.813  -3.941  24.895  0.00  0.00    +0.075 C 
BRANCH  19  20
ATOM     20  C   UNL     1       7.357  -4.324  23.487  0.00  0.00    -0.038 A 
ATOM     21  C   UNL     1       7.548  -5.609  22.954  0.00  0.00    +0.004 A 
ATOM     22  C   UNL     1       6.934  -5.981  21.757  0.00  0.00    +0.000 A 
ATOM     23  C   UNL     1       6.147  -5.070  21.060  0.00  0.00    +0.000 A 
ATOM     24  C   UNL     1       5.986  -3.776  21.549  0.00  0.00    +0.000 A 
ATOM     25  C   UNL     1       6.596  -3.401  22.745  0.00  0.00    +0.004 A 
ENDBRANCH  19  20
BRANCH  19  26
ATOM     26  C   UNL     1       6.964  -4.553  26.011  0.00  0.00    -0.038 A 
ATOM     27  C   UNL     1       5.562  -4.471  25.928  0.00  0.00    +0.004 A 
ATOM     28  C   UNL     1       4.747  -5.135  26.845  0.00  0.00    +0.000 A 
ATOM     29  C   UNL     1       5.325  -5.891  27.862  0.00  0.00    +0.000 A 
ATOM     30  C   UNL     1       6.714  -5.948  27.977  0.00  0.00    +0.000 A 
ATOM     31  C   UNL     1       7.533  -5.289  27.063  0.00  0.00    +0.004 A 
ENDBRANCH  19  26
ENDBRANCH   1  19
TORSDOF 8
ENDMDL
MODEL 7
REMARK VINA RESULT:      -5.5      2.330      5.824
REMARK  Name = 
REMARK  9 active torsions:
REMARK  status: ('A' for Active; 'I' for Inactive)
REMARK    1  A    between atoms: C_2  and  N_3
REMARK    2  A    between atoms: C_2  and  C_4
REMARK    3  A    between atoms: C_2  and  C_17
REMARK    4  A    between atoms: C_4  and  C_5
REMARK    5  A    between atoms: C_4  and  C_11
REMARK    6  A    between atoms: C_23  and  C_25
REMARK    7  A    between atoms: N_27  and  C_28
REMARK    8  A    between atoms: C_28  and  C_29
REMARK    9  A    between atoms: C_29  and  C_30
REMARK                            x       y       z     vdW  Elec       q    Type
REMARK                         _______ _______ _______ _____ _____    ______ ____
ROOT
ATOM      1  C   UNL     1       6.276  -0.031  24.796  0.00  0.00    +0.150 C 
ENDROOT
BRANCH   1   2
ATOM      2  C   UNL     1       7.529   0.873  24.558  0.00  0.00    +0.234 C 
ATOM      3  N   UNL     1       8.477   0.623  23.582  0.00  0.00    -0.289 N 
ATOM      4  C   UNL     1       8.430  -0.337  22.471  0.00  0.00    +0.162 C 
ATOM      5  C   UNL     1       9.617   0.007  21.574  0.00  0.00    +0.033 C 
ATOM      6  C   UNL     1       9.929   1.456  21.894  0.00  0.00    +0.021 C 
ATOM      7  C   UNL     1       9.499   1.631  23.340  0.00  0.00    +0.108 C 
ATOM      8  O   UNL     1       7.717   1.799  25.364  0.00  0.00    -0.274 OA
BRANCH   4   9
ATOM      9  C   UNL     1       8.496  -1.820  22.870  0.00  0.00    +0.234 C 
ATOM     10  N   UNL     1       7.469  -2.609  22.388  0.00  0.00    -0.314 N 
ATOM     11  H   UNL     1       6.995  -2.224  21.577  0.00  0.00    +0.149 HD
ATOM     12  O   UNL     1       9.356  -2.233  23.646  0.00  0.00    -0.274 OA
BRANCH  10  13
ATOM     13  C   UNL     1       7.622  -4.048  22.460  0.00  0.00    +0.104 C 
BRANCH  13  14
ATOM     14  C   UNL     1       6.557  -4.814  21.683  0.00  0.00    +0.015 C 
ATOM     15  C   UNL     1       6.589  -6.315  21.940  0.00  0.00    +0.005 C 
ENDBRANCH  13  14
ENDBRANCH  10  13
ENDBRANCH   4   9
ENDBRANCH   1   2
BRANCH   1  16
ATOM     16  N   UNL     1       5.083   0.853  24.791  0.00  0.00    -0.319 NA
ATOM     17  H   UNL     1       4.470   0.538  25.545  0.00  0.00    +0.119 HD
ATOM     18  H   UNL     1       5.379   1.796  25.057  0.00  0.00    +0.119 HD
ENDBRANCH   1  16
BRANCH   1  19
ATOM     19  C   UNL     1       6.334  -1.051  25.976  0.00  0.00    +0.075 C 
BRANCH  19  20
ATOM     20  C   UNL     1       5.984  -2.484  25.576  0.00  0.00    -0.038 A 
ATOM     21  C   UNL     1       6.668  -3.599  26.086  0.00  0.00    +0.004 A 
ATOM     22  C   UNL     1       6.187  -4.891  25.867  0.00  0.00    +0.000 A 
ATOM     23  C   UNL     1       5.035  -5.090  25.112  0.00  0.00    +0.000 A 
ATOM     24  C   UNL     1       4.370  -4.000  24.559  0.00  0.00    +0.000 A 
ATOM     25  C   UNL     1       4.847  -2.707  24.777  0.00  0.00    +0.004 A 
ENDBRANCH  19  20
BRANCH  19  26
ATOM     26  C   UNL     1       5.604  -0.558  27.227  0.00  0.00    -0.038 A 
ATOM     27  C   UNL     1       4.417  -1.201  27.625  0.00  0.00    +0.004 A 
ATOM     28  C   UNL     1       3.797  -0.881  28.832  0.00  0.00    +0.000 A 
ATOM     29  C   UNL     1       4.354   0.092  29.659  0.00  0.00    +0.000 A 
ATOM     30  C   UNL     1       5.508   0.763  29.256  0.00  0.00    +0.000 A 
ATOM     31  C   UNL     1       6.134   0.446  28.053  0.00  0.00    +0.004 A 
ENDBRANCH  19  26
ENDBRANCH   1  19
TORSDOF 8
ENDMDL
MODEL 8
REMARK VINA RESULT:      -5.4      2.464      5.080
REMARK  Name = 
REMARK  9 active torsions:
REMARK  status: ('A' for Active; 'I' for Inactive)
REMARK    1  A    between atoms: C_2  and  N_3
REMARK    2  A    between atoms: C_2  and  C_4
REMARK    3  A    between atoms: C_2  and  C_17
REMARK    4  A    between atoms: C_4  and  C_5
REMARK    5  A    between atoms: C_4  and  C_11
REMARK    6  A    between atoms: C_23  and  C_25
REMARK    7  A    between atoms: N_27  and  C_28
REMARK    8  A    between atoms: C_28  and  C_29
REMARK    9  A    between atoms: C_29  and  C_30
REMARK                            x       y       z     vdW  Elec       q    Type
REMARK                         _______ _______ _______ _____ _____    ______ ____
ROOT
ATOM      1  C   UNL     1       6.779  -1.555  23.659  0.00  0.00    +0.150 C 
ENDROOT
BRANCH   1   2
ATOM      2  C   UNL     1       7.347  -2.825  22.945  0.00  0.00    +0.234 C 
ATOM      3  N   UNL     1       6.631  -3.998  22.789  0.00  0.00    -0.289 N 
ATOM      4  C   UNL     1       5.204  -4.249  23.026  0.00  0.00    +0.162 C 
ATOM      5  C   UNL     1       4.922  -5.632  22.440  0.00  0.00    +0.033 C 
ATOM      6  C   UNL     1       6.023  -5.844  21.420  0.00  0.00    +0.021 C 
ATOM      7  C   UNL     1       7.200  -5.046  21.953  0.00  0.00    +0.108 C 
ATOM      8  O   UNL     1       8.540  -2.791  22.600  0.00  0.00    -0.274 OA
BRANCH   4   9
ATOM      9  C   UNL     1       4.757  -4.210  24.496  0.00  0.00    +0.234 C 
ATOM     10  N   UNL     1       5.356  -5.142  25.322  0.00  0.00    -0.314 N 
ATOM     11  H   UNL     1       6.237  -5.503  24.971  0.00  0.00    +0.149 HD
ATOM     12  O   UNL     1       3.854  -3.461  24.868  0.00  0.00    -0.274 OA
BRANCH  10  13
ATOM     13  C   UNL     1       5.221  -4.971  26.755  0.00  0.00    +0.104 C 
BRANCH  13  14
ATOM     14  C   UNL     1       6.231  -3.996  27.350  0.00  0.00    +0.015 C 
ATOM     15  C   UNL     1       7.643  -4.191  26.812  0.00  0.00    +0.005 C 
ENDBRANCH  13  14
ENDBRANCH  10  13
ENDBRANCH   4   9
ENDBRANCH   1   2
BRANCH   1  16
ATOM     16  N   UNL     1       6.487  -0.549  22.607  0.00  0.00    -0.319 NA
ATOM     17  H   UNL     1       6.076   0.263  23.072  0.00  0.00    +0.119 HD
ATOM     18  H   UNL     1       7.375  -0.219  22.221  0.00  0.00    +0.119 HD
ENDBRANCH   1  16
BRANCH   1  19
ATOM     19  C   UNL     1       7.560  -1.010  24.894  0.00  0.00    +0.075 C 
BRANCH  19  20
ATOM     20  C   UNL     1       6.664  -0.561  26.048  0.00  0.00    -0.038 A 
ATOM     21  C   UNL     1       7.180  -0.088  27.266  0.00  0.00    +0.004 A 
ATOM     22  C   UNL     1       6.343   0.508  28.209  0.00  0.00    +0.000 A 
ATOM     23  C   UNL     1       4.977   0.615  27.966  0.00  0.00    +0.000 A 
ATOM     24  C   UNL     1       4.441   0.108  26.786  0.00  0.00    +0.000 A 
ATOM     25  C   UNL     1       5.274  -0.487  25.840  0.00  0.00    +0.004 A 
ENDBRANCH  19  20
BRANCH  19  26
ATOM     26  C   UNL     1       8.641   0.005  24.516  0.00  0.00    -0.038 A 
ATOM     27  C   UNL     1       8.279   1.351  24.321  0.00  0.00    +0.004 A 
ATOM     28  C   UNL     1       9.247   2.333  24.116  0.00  0.00    +0.000 A 
ATOM     29  C   UNL     1      10.596   1.982  24.099  0.00  0.00    +0.000 A 
ATOM     30  C   UNL     1      10.964   0.646  24.251  0.00  0.00    +0.000 A 
ATOM     31  C   UNL     1      10.001  -0.340  24.460  0.00  0.00    +0.004 A 
ENDBRANCH  19  26
ENDBRANCH   1  19
TORSDOF 8
ENDMDL
MODEL 9
REMARK VINA RESULT:      -5.3      2.317      4.426
REMARK  Name = 
REMARK  9 active torsions:
REMARK  status: ('A' for Active; 'I' for Inactive)
REMARK    1  A    between atoms: C_2  and  N_3
REMARK    2  A    between atoms: C_2  and  C_4
REMARK    3  A    between atoms: C_2  and  C_17
REMARK    4  A    between atoms: C_4  and  C_5
REMARK    5  A    between atoms: C_4  and  C_11
REMARK    6  A    between atoms: C_23  and  C_25
REMARK    7  A    between atoms: N_27  and  C_28
REMARK    8  A    between atoms: C_28  and  C_29
REMARK    9  A    between atoms: C_29  and  C_30
REMARK                            x       y       z     vdW  Elec       q    Type
REMARK                         _______ _______ _______ _____ _____    ______ ____
ROOT
ATOM      1  C   UNL     1       5.917  -1.551  24.083  0.00  0.00    +0.150 C 
ENDROOT
BRANCH   1   2
ATOM      2  C   UNL     1       5.254  -2.523  25.113  0.00  0.00    +0.234 C 
ATOM      3  N   UNL     1       5.928  -3.567  25.721  0.00  0.00    -0.289 N 
ATOM      4  C   UNL     1       7.366  -3.859  25.730  0.00  0.00    +0.162 C 
ATOM      5  C   UNL     1       7.560  -4.966  26.765  0.00  0.00    +0.033 C 
ATOM      6  C   UNL     1       6.355  -4.848  27.678  0.00  0.00    +0.021 C 
ATOM      7  C   UNL     1       5.255  -4.290  26.792  0.00  0.00    +0.108 C 
ATOM      8  O   UNL     1       4.033  -2.397  25.301  0.00  0.00    -0.274 OA
BRANCH   4   9
ATOM      9  C   UNL     1       7.965  -4.300  24.384  0.00  0.00    +0.234 C 
ATOM     10  N   UNL     1       7.340  -5.375  23.783  0.00  0.00    -0.314 N 
ATOM     11  H   UNL     1       6.388  -5.533  24.099  0.00  0.00    +0.149 HD
ATOM     12  O   UNL     1       8.990  -3.782  23.942  0.00  0.00    -0.274 OA
BRANCH  10  13
ATOM     13  C   UNL     1       7.643  -5.651  22.393  0.00  0.00    +0.104 C 
BRANCH  13  14
ATOM     14  C   UNL     1       6.403  -5.832  21.523  0.00  0.00    +0.015 C 
ATOM     15  C   UNL     1       5.102  -5.765  22.311  0.00  0.00    +0.005 C 
ENDBRANCH  13  14
ENDBRANCH  10  13
ENDBRANCH   4   9
ENDBRANCH   1   2
BRANCH   1  16
ATOM     16  N   UNL     1       6.268  -2.349  22.882  0.00  0.00    -0.319 NA
ATOM     17  H   UNL     1       5.536  -2.186  22.187  0.00  0.00    +0.119 HD
ATOM     18  H   UNL     1       7.121  -1.960  22.473  0.00  0.00    +0.119 HD
ENDBRANCH   1  16
BRANCH   1  19
ATOM     19  C   UNL     1       7.048  -0.610  24.603  0.00  0.00    +0.075 C 
BRANCH  19  20
ATOM     20  C   UNL     1       6.579   0.417  25.633  0.00  0.00    -0.038 A 
ATOM     21  C   UNL     1       5.298   0.992  25.597  0.00  0.00    +0.004 A 
ATOM     22  C   UNL     1       4.832   1.758  26.665  0.00  0.00    +0.000 A 
ATOM     23  C   UNL     1       5.645   1.987  27.771  0.00  0.00    +0.000 A 
ATOM     24  C   UNL     1       6.935   1.464  27.803  0.00  0.00    +0.000 A 
ATOM     25  C   UNL     1       7.404   0.697  26.737  0.00  0.00    +0.004 A 
ENDBRANCH  19  20
BRANCH  19  26
ATOM     26  C   UNL     1       7.895  -0.017  23.475  0.00  0.00    -0.038 A 
ATOM     27  C   UNL     1       7.337   0.976  22.649  0.00  0.00    +0.004 A 
ATOM     28  C   UNL     1       8.114   1.644  21.703  0.00  0.00    +0.000 A 
ATOM     29  C   UNL     1       9.464   1.326  21.567  0.00  0.00    +0.000 A 
ATOM     30  C   UNL     1      10.018   0.316  22.354  0.00  0.00    +0.000 A 
ATOM     31  C   UNL     1       9.248  -0.353  23.302  0.00  0.00    +0.004 A 
ENDBRANCH  19  26
ENDBRANCH   1  19
TORSDOF 8
ENDMDL
