MODEL 1
REMARK VINA RESULT:      -7.4      0.000      0.000
REMARK  Name = 
REMARK  12 active torsions:
REMARK  status: ('A' for Active; 'I' for Inactive)
REMARK    1  A    between atoms: O_1  and  C_2
REMARK    2  A    between atoms: C_4  and  C_6
REMARK    3  A    between atoms: C_6  and  O_7
REMARK    4  A    between atoms: O_7  and  P_8
REMARK    5  A    between atoms: P_8  and  O_9
REMARK    6  A    between atoms: P_8  and  O_10
REMARK    7  A    between atoms: C_13  and  N_18
REMARK    8  A    between atoms: C_15  and  O_17
REMARK    9  A    between atoms: C_26  and  O_27
REMARK   10  A    between atoms: O_27  and  P_28
REMARK   11  A    between atoms: P_28  and  O_29
REMARK   12  A    between atoms: P_28  and  O_30
REMARK                            x       y       z     vdW  Elec       q    Type
REMARK                         _______ _______ _______ _____ _____    ______ ____
ROOT
ATOM      1  C   UNL     1       8.022  -5.568  26.152  0.00  0.00    +0.178 C 
ATOM      2  C   UNL     1       9.232  -4.707  25.816  0.00  0.00    +0.195 C 
ATOM      3  C   UNL     1       8.735  -3.782  24.690  0.00  0.00    +0.253 C 
ATOM      4  O   UNL     1       7.313  -4.015  24.521  0.00  0.00    -0.346 OA
ATOM      5  C   UNL     1       6.850  -4.718  25.682  0.00  0.00    +0.178 C 
ENDROOT
BRANCH   3   6
ATOM      6  N   UNL     1       8.962  -2.369  24.959  0.00  0.00    -0.285 N 
ATOM      7  C   UNL     1       9.418  -1.447  24.052  0.00  0.00    +0.169 A 
ATOM      8  N   UNL     1       9.804  -1.656  22.780  0.00  0.00    -0.216 NA
ATOM      9  C   UNL     1      10.198  -0.498  22.198  0.00  0.00    +0.227 A 
ATOM     10  N   UNL     1      10.238   0.739  22.737  0.00  0.00    -0.199 NA
ATOM     11  C   UNL     1       9.821   0.876  24.013  0.00  0.00    +0.255 A 
ATOM     12  C   UNL     1       9.401  -0.239  24.734  0.00  0.00    +0.170 A 
ATOM     13  N   UNL     1       8.955  -0.409  26.022  0.00  0.00    -0.229 NA
ATOM     14  C   UNL     1       8.688  -1.693  26.119  0.00  0.00    +0.203 A 
BRANCH  11  15
ATOM     15  O   UNL     1       9.750   2.126  24.559  0.00  0.00    -0.384 OA
BRANCH  15  16
ATOM     16  P   UNL     1       9.605   3.395  23.607  0.00  0.00    +0.529 P 
ATOM     17  O   UNL     1       9.202   4.705  24.195  0.00  0.00    -0.216 OA
BRANCH  16  18
ATOM     18  O   UNL     1       8.609   2.947  22.433  0.00  0.00    -0.293 OA
ATOM     19  H   UNL     1       7.851   3.559  22.399  0.00  0.00    +0.223 HD
ENDBRANCH  16  18
BRANCH  16  20
ATOM     20  O   UNL     1      10.981   3.439  22.789  0.00  0.00    -0.293 OA
ATOM     21  H   UNL     1      10.940   2.852  22.012  0.00  0.00    +0.223 HD
ENDBRANCH  16  20
ENDBRANCH  15  16
ENDBRANCH  11  15
ENDBRANCH   3   6
BRANCH   1  22
ATOM     22  O   UNL     1       7.954  -5.826  27.549  0.00  0.00    -0.386 OA
ATOM     23  H   UNL     1       8.686  -6.437  27.764  0.00  0.00    +0.210 HD
ENDBRANCH   1  22
BRANCH   2  24
ATOM     24  O   UNL     1      10.310  -5.535  25.360  0.00  0.00    -0.385 OA
ATOM     25  H   UNL     1      10.748  -5.054  24.631  0.00  0.00    +0.210 HD
ENDBRANCH   2  24
BRANCH   5  26
ATOM     26  C   UNL     1       5.612  -5.542  25.343  0.00  0.00    +0.206 C 
BRANCH  26  27
ATOM     27  O   UNL     1       5.524  -6.664  26.207  0.00  0.00    -0.284 OA
BRANCH  27  28
ATOM     28  P   UNL     1       4.465  -6.447  27.558  0.00  0.00    +0.472 P 
ATOM     29  O   UNL     1       3.517  -6.253  28.766  0.00  0.00    -0.228 OA
BRANCH  28  30
ATOM     30  O   UNL     1       5.424  -7.529  28.323  0.00  0.00    -0.303 OA
ATOM     31  H   UNL     1       6.332  -7.497  27.982  0.00  0.00    +0.222 HD
ENDBRANCH  28  30
BRANCH  28  32
ATOM     32  O   UNL     1       3.502  -7.549  26.822  0.00  0.00    -0.303 OA
ATOM     33  H   UNL     1       2.633  -7.636  27.246  0.00  0.00    +0.222 HD
ENDBRANCH  28  32
ENDBRANCH  27  28
ENDBRANCH  26  27
ENDBRANCH   5  26
TORSDOF 12
ENDMDL
MODEL 2
REMARK VINA RESULT:      -7.3      1.602      2.022
REMARK  Name = 
REMARK  12 active torsions:
REMARK  status: ('A' for Active; 'I' for Inactive)
REMARK    1  A    between atoms: O_1  and  C_2
REMARK    2  A    between atoms: C_4  and  C_6
REMARK    3  A    between atoms: C_6  and  O_7
REMARK    4  A    between atoms: O_7  and  P_8
REMARK    5  A    between atoms: P_8  and  O_9
REMARK    6  A    between atoms: P_8  and  O_10
REMARK    7  A    between atoms: C_13  and  N_18
REMARK    8  A    between atoms: C_15  and  O_17
REMARK    9  A    between atoms: C_26  and  O_27
REMARK   10  A    between atoms: O_27  and  P_28
REMARK   11  A    between atoms: P_28  and  O_29
REMARK   12  A    between atoms: P_28  and  O_30
REMARK                            x       y       z     vdW  Elec       q    Type
REMARK                         _______ _______ _______ _____ _____    ______ ____
ROOT
ATOM      1  C   UNL     1       7.932  -5.558  26.185  0.00  0.00    +0.178 C 
ATOM      2  C   UNL     1       9.148  -4.741  25.772  0.00  0.00    +0.195 C 
ATOM      3  C   UNL     1       8.613  -3.791  24.686  0.00  0.00    +0.253 C 
ATOM      4  O   UNL     1       7.174  -3.970  24.612  0.00  0.00    -0.346 OA
ATOM      5  C   UNL     1       6.765  -4.662  25.798  0.00  0.00    +0.178 C 
ENDROOT
BRANCH   3   6
ATOM      6  N   UNL     1       8.910  -2.389  24.943  0.00  0.00    -0.285 N 
ATOM      7  C   UNL     1       9.365  -1.486  24.017  0.00  0.00    +0.169 A 
ATOM      8  N   UNL     1       9.686  -1.709  22.729  0.00  0.00    -0.216 NA
ATOM      9  C   UNL     1      10.103  -0.568  22.131  0.00  0.00    +0.227 A 
ATOM     10  N   UNL     1      10.219   0.665  22.667  0.00  0.00    -0.199 NA
ATOM     11  C   UNL     1       9.863   0.818  23.959  0.00  0.00    +0.255 A 
ATOM     12  C   UNL     1       9.428  -0.280  24.698  0.00  0.00    +0.170 A 
ATOM     13  N   UNL     1       9.032  -0.432  26.005  0.00  0.00    -0.229 NA
ATOM     14  C   UNL     1       8.716  -1.703  26.114  0.00  0.00    +0.203 A 
BRANCH  11  15
ATOM     15  O   UNL     1       9.869   2.069  24.507  0.00  0.00    -0.384 OA
BRANCH  15  16
ATOM     16  P   UNL     1       9.683   3.342  23.568  0.00  0.00    +0.529 P 
ATOM     17  O   UNL     1       9.350   4.659  24.183  0.00  0.00    -0.216 OA
BRANCH  16  18
ATOM     18  O   UNL     1       8.598   2.916  22.467  0.00  0.00    -0.293 OA
ATOM     19  H   UNL     1       7.798   3.465  22.570  0.00  0.00    +0.223 HD
ENDBRANCH  16  18
BRANCH  16  20
ATOM     20  O   UNL     1      10.999   3.359  22.655  0.00  0.00    -0.293 OA
ATOM     21  H   UNL     1      11.443   2.492  22.673  0.00  0.00    +0.223 HD
ENDBRANCH  16  20
ENDBRANCH  15  16
ENDBRANCH  11  15
ENDBRANCH   3   6
BRANCH   1  22
ATOM     22  O   UNL     1       7.949  -5.822  27.583  0.00  0.00    -0.386 OA
ATOM     23  H   UNL     1       8.097  -6.782  27.692  0.00  0.00    +0.210 HD
ENDBRANCH   1  22
BRANCH   2  24
ATOM     24  O   UNL     1      10.161  -5.606  25.241  0.00  0.00    -0.385 OA
ATOM     25  H   UNL     1      10.124  -6.435  25.755  0.00  0.00    +0.210 HD
ENDBRANCH   2  24
BRANCH   5  26
ATOM     26  C   UNL     1       5.476  -5.436  25.541  0.00  0.00    +0.206 C 
BRANCH  26  27
ATOM     27  O   UNL     1       5.478  -5.957  24.220  0.00  0.00    -0.284 OA
BRANCH  27  28
ATOM     28  P   UNL     1       3.944  -5.897  23.424  0.00  0.00    +0.472 P 
ATOM     29  O   UNL     1       2.571  -5.843  22.711  0.00  0.00    -0.228 OA
BRANCH  28  30
ATOM     30  O   UNL     1       3.850  -7.496  23.757  0.00  0.00    -0.303 OA
ATOM     31  H   UNL     1       4.397  -8.016  23.146  0.00  0.00    +0.222 HD
ENDBRANCH  28  30
BRANCH  28  32
ATOM     32  O   UNL     1       4.798  -6.053  22.034  0.00  0.00    -0.303 OA
ATOM     33  H   UNL     1       4.564  -5.387  21.369  0.00  0.00    +0.222 HD
ENDBRANCH  28  32
ENDBRANCH  27  28
ENDBRANCH  26  27
ENDBRANCH   5  26
TORSDOF 12
ENDMDL
MODEL 3
REMARK VINA RESULT:      -7.2      1.822      8.564
REMARK  Name = 
REMARK  12 active torsions:
REMARK  status: ('A' for Active; 'I' for Inactive)
REMARK    1  A    between atoms: O_1  and  C_2
REMARK    2  A    between atoms: C_4  and  C_6
REMARK    3  A    between atoms: C_6  and  O_7
REMARK    4  A    between atoms: O_7  and  P_8
REMARK    5  A    between atoms: P_8  and  O_9
REMARK    6  A    between atoms: P_8  and  O_10
REMARK    7  A    between atoms: C_13  and  N_18
REMARK    8  A    between atoms: C_15  and  O_17
REMARK    9  A    between atoms: C_26  and  O_27
REMARK   10  A    between atoms: O_27  and  P_28
REMARK   11  A    between atoms: P_28  and  O_29
REMARK   12  A    between atoms: P_28  and  O_30
REMARK                            x       y       z     vdW  Elec       q    Type
REMARK                         _______ _______ _______ _____ _____    ______ ____
ROOT
ATOM      1  C   UNL     1      10.002   0.796  22.176  0.00  0.00    +0.178 C 
ATOM      2  C   UNL     1       9.616  -0.658  22.412  0.00  0.00    +0.195 C 
ATOM      3  C   UNL     1      10.079  -0.941  23.853  0.00  0.00    +0.253 C 
ATOM      4  O   UNL     1      10.552   0.309  24.419  0.00  0.00    -0.346 OA
ATOM      5  C   UNL     1      10.071   1.370  23.583  0.00  0.00    +0.178 C 
ENDROOT
BRANCH   3   6
ATOM      6  N   UNL     1       9.031  -1.487  24.702  0.00  0.00    -0.285 N 
ATOM      7  C   UNL     1       8.497  -2.746  24.603  0.00  0.00    +0.169 A 
ATOM      8  N   UNL     1       8.772  -3.693  23.687  0.00  0.00    -0.216 NA
ATOM      9  C   UNL     1       8.040  -4.810  23.911  0.00  0.00    +0.227 A 
ATOM     10  N   UNL     1       7.133  -5.035  24.886  0.00  0.00    -0.199 NA
ATOM     11  C   UNL     1       6.921  -4.047  25.779  0.00  0.00    +0.255 A 
ATOM     12  C   UNL     1       7.600  -2.837  25.656  0.00  0.00    +0.170 A 
ATOM     13  N   UNL     1       7.574  -1.670  26.381  0.00  0.00    -0.229 NA
ATOM     14  C   UNL     1       8.452  -0.889  25.791  0.00  0.00    +0.203 A 
BRANCH  11  15
ATOM     15  O   UNL     1       6.088  -4.274  26.837  0.00  0.00    -0.384 OA
BRANCH  15  16
ATOM     16  P   UNL     1       6.368  -5.505  27.810  0.00  0.00    +0.529 P 
ATOM     17  O   UNL     1       6.039  -5.378  29.259  0.00  0.00    -0.216 OA
BRANCH  16  18
ATOM     18  O   UNL     1       7.908  -5.893  27.589  0.00  0.00    -0.293 OA
ATOM     19  H   UNL     1       8.435  -5.081  27.476  0.00  0.00    +0.223 HD
ENDBRANCH  16  18
BRANCH  16  20
ATOM     20  O   UNL     1       5.671  -6.752  27.086  0.00  0.00    -0.293 OA
ATOM     21  H   UNL     1       4.926  -6.456  26.532  0.00  0.00    +0.223 HD
ENDBRANCH  16  20
ENDBRANCH  15  16
ENDBRANCH  11  15
ENDBRANCH   3   6
BRANCH   1  22
ATOM     22  O   UNL     1       9.022   1.460  21.387  0.00  0.00    -0.386 OA
ATOM     23  H   UNL     1       8.276   0.839  21.273  0.00  0.00    +0.210 HD
ENDBRANCH   1  22
BRANCH   2  24
ATOM     24  O   UNL     1      10.300  -1.504  21.479  0.00  0.00    -0.385 OA
ATOM     25  H   UNL     1      10.244  -1.068  20.607  0.00  0.00    +0.210 HD
ENDBRANCH   2  24
BRANCH   5  26
ATOM     26  C   UNL     1      10.989   2.584  23.689  0.00  0.00    +0.206 C 
BRANCH  26  27
ATOM     27  O   UNL     1      10.442   3.671  22.959  0.00  0.00    -0.284 OA
BRANCH  27  28
ATOM     28  P   UNL     1       9.193   4.534  23.787  0.00  0.00    +0.472 P 
ATOM     29  O   UNL     1       8.074   5.306  24.529  0.00  0.00    -0.228 OA
BRANCH  28  30
ATOM     30  O   UNL     1       8.260   4.176  22.492  0.00  0.00    -0.303 OA
ATOM     31  H   UNL     1       8.753   4.285  21.662  0.00  0.00    +0.222 HD
ENDBRANCH  28  30
BRANCH  28  32
ATOM     32  O   UNL     1       9.872   5.882  23.152  0.00  0.00    -0.303 OA
ATOM     33  H   UNL     1      10.451   6.345  23.778  0.00  0.00    +0.222 HD
ENDBRANCH  28  32
ENDBRANCH  27  28
ENDBRANCH  26  27
ENDBRANCH   5  26
TORSDOF 12
ENDMDL
MODEL 4
REMARK VINA RESULT:      -7.2      1.653      1.834
REMARK  Name = 
REMARK  12 active torsions:
REMARK  status: ('A' for Active; 'I' for Inactive)
REMARK    1  A    between atoms: O_1  and  C_2
REMARK    2  A    between atoms: C_4  and  C_6
REMARK    3  A    between atoms: C_6  and  O_7
REMARK    4  A    between atoms: O_7  and  P_8
REMARK    5  A    between atoms: P_8  and  O_9
REMARK    6  A    between atoms: P_8  and  O_10
REMARK    7  A    between atoms: C_13  and  N_18
REMARK    8  A    between atoms: C_15  and  O_17
REMARK    9  A    between atoms: C_26  and  O_27
REMARK   10  A    between atoms: O_27  and  P_28
REMARK   11  A    between atoms: P_28  and  O_29
REMARK   12  A    between atoms: P_28  and  O_30
REMARK                            x       y       z     vdW  Elec       q    Type
REMARK                         _______ _______ _______ _____ _____    ______ ____
ROOT
ATOM      1  C   UNL     1       7.800  -5.671  26.104  0.00  0.00    +0.178 C 
ATOM      2  C   UNL     1       8.610  -4.850  25.110  0.00  0.00    +0.195 C 
ATOM      3  C   UNL     1       7.619  -4.552  23.971  0.00  0.00    +0.253 C 
ATOM      4  O   UNL     1       6.316  -5.046  24.377  0.00  0.00    -0.346 OA
ATOM      5  C   UNL     1       6.364  -5.274  25.792  0.00  0.00    +0.178 C 
ENDROOT
BRANCH   3   6
ATOM      6  N   UNL     1       7.516  -3.137  23.647  0.00  0.00    -0.285 N 
ATOM      7  C   UNL     1       8.537  -2.347  23.183  0.00  0.00    +0.169 A 
ATOM      8  N   UNL     1       9.826  -2.684  22.996  0.00  0.00    -0.216 NA
ATOM      9  C   UNL     1      10.538  -1.632  22.528  0.00  0.00    +0.227 A 
ATOM     10  N   UNL     1      10.106  -0.381  22.260  0.00  0.00    -0.199 NA
ATOM     11  C   UNL     1       8.797  -0.119  22.455  0.00  0.00    +0.255 A 
ATOM     12  C   UNL     1       7.953  -1.112  22.948  0.00  0.00    +0.170 A 
ATOM     13  N   UNL     1       6.615  -1.133  23.263  0.00  0.00    -0.229 NA
ATOM     14  C   UNL     1       6.385  -2.363  23.664  0.00  0.00    +0.203 A 
BRANCH  11  15
ATOM     15  O   UNL     1       8.303   1.103  22.099  0.00  0.00    -0.384 OA
BRANCH  15  16
ATOM     16  P   UNL     1       9.007   2.426  22.639  0.00  0.00    +0.529 P 
ATOM     17  O   UNL     1       9.208   2.597  24.107  0.00  0.00    -0.216 OA
BRANCH  16  18
ATOM     18  O   UNL     1       8.178   3.647  22.014  0.00  0.00    -0.293 OA
ATOM     19  H   UNL     1       8.572   4.491  22.304  0.00  0.00    +0.223 HD
ENDBRANCH  16  18
BRANCH  16  20
ATOM     20  O   UNL     1      10.350   2.544  21.775  0.00  0.00    -0.293 OA
ATOM     21  H   UNL     1      10.506   3.466  21.504  0.00  0.00    +0.223 HD
ENDBRANCH  16  20
ENDBRANCH  15  16
ENDBRANCH  11  15
ENDBRANCH   3   6
BRANCH   1  22
ATOM     22  O   UNL     1       8.155  -5.343  27.442  0.00  0.00    -0.386 OA
ATOM     23  H   UNL     1       7.409  -4.836  27.821  0.00  0.00    +0.210 HD
ENDBRANCH   1  22
BRANCH   2  24
ATOM     24  O   UNL     1       9.722  -5.619  24.632  0.00  0.00    -0.385 OA
ATOM     25  H   UNL     1      10.523  -5.252  25.054  0.00  0.00    +0.210 HD
ENDBRANCH   2  24
BRANCH   5  26
ATOM     26  C   UNL     1       5.349  -6.341  26.190  0.00  0.00    +0.206 C 
BRANCH  26  27
ATOM     27  O   UNL     1       5.662  -6.853  27.477  0.00  0.00    -0.284 OA
BRANCH  27  28
ATOM     28  P   UNL     1       4.842  -6.065  28.780  0.00  0.00    +0.472 P 
ATOM     29  O   UNL     1       4.108  -5.359  29.946  0.00  0.00    -0.228 OA
BRANCH  28  30
ATOM     30  O   UNL     1       6.279  -6.133  29.559  0.00  0.00    -0.303 OA
ATOM     31  H   UNL     1       6.223  -5.723  30.437  0.00  0.00    +0.222 HD
ENDBRANCH  28  30
BRANCH  28  32
ATOM     32  O   UNL     1       4.336  -7.564  29.205  0.00  0.00    -0.303 OA
ATOM     33  H   UNL     1       4.640  -7.831  30.086  0.00  0.00    +0.222 HD
ENDBRANCH  28  32
ENDBRANCH  27  28
ENDBRANCH  26  27
ENDBRANCH   5  26
TORSDOF 12
ENDMDL
MODEL 5
REMARK VINA RESULT:      -6.8      2.683      8.676
REMARK  Name = 
REMARK  12 active torsions:
REMARK  status: ('A' for Active; 'I' for Inactive)
REMARK    1  A    between atoms: O_1  and  C_2
REMARK    2  A    between atoms: C_4  and  C_6
REMARK    3  A    between atoms: C_6  and  O_7
REMARK    4  A    between atoms: O_7  and  P_8
REMARK    5  A    between atoms: P_8  and  O_9
REMARK    6  A    between atoms: P_8  and  O_10
REMARK    7  A    between atoms: C_13  and  N_18
REMARK    8  A    between atoms: C_15  and  O_17
REMARK    9  A    between atoms: C_26  and  O_27
REMARK   10  A    between atoms: O_27  and  P_28
REMARK   11  A    between atoms: P_28  and  O_29
REMARK   12  A    between atoms: P_28  and  O_30
REMARK                            x       y       z     vdW  Elec       q    Type
REMARK                         _______ _______ _______ _____ _____    ______ ____
ROOT
ATOM      1  C   UNL     1       9.672   0.629  22.262  0.00  0.00    +0.178 C 
ATOM      2  C   UNL     1       9.436  -0.861  22.057  0.00  0.00    +0.195 C 
ATOM      3  C   UNL     1       9.098  -1.385  23.465  0.00  0.00    +0.253 C 
ATOM      4  O   UNL     1       9.008  -0.241  24.353  0.00  0.00    -0.346 OA
ATOM      5  C   UNL     1       8.897   0.931  23.535  0.00  0.00    +0.178 C 
ENDROOT
BRANCH   3   6
ATOM      6  N   UNL     1       7.851  -2.135  23.519  0.00  0.00    -0.285 N 
ATOM      7  C   UNL     1       7.659  -3.318  24.185  0.00  0.00    +0.169 A 
ATOM      8  N   UNL     1       8.569  -4.050  24.855  0.00  0.00    -0.216 NA
ATOM      9  C   UNL     1       8.003  -5.163  25.379  0.00  0.00    +0.227 A 
ATOM     10  N   UNL     1       6.719  -5.570  25.292  0.00  0.00    -0.199 NA
ATOM     11  C   UNL     1       5.859  -4.778  24.620  0.00  0.00    +0.255 A 
ATOM     12  C   UNL     1       6.313  -3.607  24.018  0.00  0.00    +0.170 A 
ATOM     13  N   UNL     1       5.693  -2.638  23.267  0.00  0.00    -0.229 NA
ATOM     14  C   UNL     1       6.639  -1.765  22.997  0.00  0.00    +0.203 A 
BRANCH  11  15
ATOM     15  O   UNL     1       4.533  -5.104  24.597  0.00  0.00    -0.384 OA
BRANCH  15  16
ATOM     16  P   UNL     1       3.980  -6.082  23.468  0.00  0.00    +0.529 P 
ATOM     17  O   UNL     1       2.723  -5.727  22.748  0.00  0.00    -0.216 OA
BRANCH  16  18
ATOM     18  O   UNL     1       3.874  -7.527  24.156  0.00  0.00    -0.293 OA
ATOM     19  H   UNL     1       3.010  -7.613  24.599  0.00  0.00    +0.223 HD
ENDBRANCH  16  18
BRANCH  16  20
ATOM     20  O   UNL     1       5.237  -6.334  22.508  0.00  0.00    -0.293 OA
ATOM     21  H   UNL     1       5.109  -5.895  21.649  0.00  0.00    +0.223 HD
ENDBRANCH  16  20
ENDBRANCH  15  16
ENDBRANCH  11  15
ENDBRANCH   3   6
BRANCH   1  22
ATOM     22  O   UNL     1       9.177   1.377  21.158  0.00  0.00    -0.386 OA
ATOM     23  H   UNL     1       9.488   2.297  21.271  0.00  0.00    +0.210 HD
ENDBRANCH   1  22
BRANCH   2  24
ATOM     24  O   UNL     1      10.627  -1.481  21.554  0.00  0.00    -0.385 OA
ATOM     25  H   UNL     1      10.344  -2.245  21.016  0.00  0.00    +0.210 HD
ENDBRANCH   2  24
BRANCH   5  26
ATOM     26  C   UNL     1       9.428   2.150  24.284  0.00  0.00    +0.206 C 
BRANCH  26  27
ATOM     27  O   UNL     1       9.533   3.255  23.399  0.00  0.00    -0.284 OA
BRANCH  27  28
ATOM     28  P   UNL     1       8.227   4.383  23.504  0.00  0.00    +0.472 P 
ATOM     29  O   UNL     1       7.057   5.393  23.598  0.00  0.00    -0.228 OA
BRANCH  28  30
ATOM     30  O   UNL     1       7.857   3.903  21.985  0.00  0.00    -0.303 OA
ATOM     31  H   UNL     1       8.320   3.082  21.752  0.00  0.00    +0.222 HD
ENDBRANCH  28  30
BRANCH  28  32
ATOM     32  O   UNL     1       9.330   5.514  23.071  0.00  0.00    -0.303 OA
ATOM     33  H   UNL     1       9.963   5.715  23.778  0.00  0.00    +0.222 HD
ENDBRANCH  28  32
ENDBRANCH  27  28
ENDBRANCH  26  27
ENDBRANCH   5  26
TORSDOF 12
ENDMDL
MODEL 6
REMARK VINA RESULT:      -6.7      2.850      8.473
REMARK  Name = 
REMARK  12 active torsions:
REMARK  status: ('A' for Active; 'I' for Inactive)
REMARK    1  A    between atoms: O_1  and  C_2
REMARK    2  A    between atoms: C_4  and  C_6
REMARK    3  A    between atoms: C_6  and  O_7
REMARK    4  A    between atoms: O_7  and  P_8
REMARK    5  A    between atoms: P_8  and  O_9
REMARK    6  A    between atoms: P_8  and  O_10
REMARK    7  A    between atoms: C_13  and  N_18
REMARK    8  A    between atoms: C_15  and  O_17
REMARK    9  A    between atoms: C_26  and  O_27
REMARK   10  A    between atoms: O_27  and  P_28
REMARK   11  A    between atoms: P_28  and  O_29
REMARK   12  A    between atoms: P_28  and  O_30
REMARK                            x       y       z     vdW  Elec       q    Type
REMARK                         _______ _______ _______ _____ _____    ______ ____
ROOT
ATOM      1  C   UNL     1       9.817  -1.022  23.578  0.00  0.00    +0.178 C 
ATOM      2  C   UNL     1       9.283  -2.447  23.638  0.00  0.00    +0.195 C 
ATOM      3  C   UNL     1       8.209  -2.400  24.740  0.00  0.00    +0.253 C 
ATOM      4  O   UNL     1       8.058  -1.017  25.153  0.00  0.00    -0.346 OA
ATOM      5  C   UNL     1       8.672  -0.199  24.148  0.00  0.00    +0.178 C 
ENDROOT
BRANCH   3   6
ATOM      6  N   UNL     1       6.917  -2.918  24.312  0.00  0.00    -0.285 N 
ATOM      7  C   UNL     1       6.717  -4.050  23.564  0.00  0.00    +0.169 A 
ATOM      8  N   UNL     1       7.645  -4.863  23.028  0.00  0.00    -0.216 NA
ATOM      9  C   UNL     1       7.063  -5.880  22.349  0.00  0.00    +0.227 A 
ATOM     10  N   UNL     1       5.746  -6.126  22.176  0.00  0.00    -0.199 NA
ATOM     11  C   UNL     1       4.873  -5.277  22.757  0.00  0.00    +0.255 A 
ATOM     12  C   UNL     1       5.340  -4.178  23.474  0.00  0.00    +0.170 A 
ATOM     13  N   UNL     1       4.706  -3.156  24.138  0.00  0.00    -0.229 NA
ATOM     14  C   UNL     1       5.680  -2.428  24.640  0.00  0.00    +0.203 A 
BRANCH  11  15
ATOM     15  O   UNL     1       3.537  -5.550  22.690  0.00  0.00    -0.384 OA
BRANCH  15  16
ATOM     16  P   UNL     1       2.901  -6.625  23.679  0.00  0.00    +0.529 P 
ATOM     17  O   UNL     1       2.146  -6.155  24.877  0.00  0.00    -0.216 OA
BRANCH  16  18
ATOM     18  O   UNL     1       4.103  -7.603  24.090  0.00  0.00    -0.293 OA
ATOM     19  H   UNL     1       4.803  -7.562  23.411  0.00  0.00    +0.223 HD
ENDBRANCH  16  18
BRANCH  16  20
ATOM     20  O   UNL     1       2.072  -7.605  22.723  0.00  0.00    -0.293 OA
ATOM     21  H   UNL     1       2.402  -7.556  21.808  0.00  0.00    +0.223 HD
ENDBRANCH  16  20
ENDBRANCH  15  16
ENDBRANCH  11  15
ENDBRANCH   3   6
BRANCH   1  22
ATOM     22  O   UNL     1      10.114  -0.648  22.238  0.00  0.00    -0.386 OA
ATOM     23  H   UNL     1       9.602  -1.240  21.654  0.00  0.00    +0.210 HD
ENDBRANCH   1  22
BRANCH   2  24
ATOM     24  O   UNL     1      10.339  -3.350  23.991  0.00  0.00    -0.385 OA
ATOM     25  H   UNL     1      10.063  -3.802  24.812  0.00  0.00    +0.210 HD
ENDBRANCH   2  24
BRANCH   5  26
ATOM     26  C   UNL     1       9.130   1.125  24.753  0.00  0.00    +0.206 C 
BRANCH  26  27
ATOM     27  O   UNL     1       9.592   1.992  23.728  0.00  0.00    -0.284 OA
BRANCH  27  28
ATOM     28  P   UNL     1       8.347   2.614  22.701  0.00  0.00    +0.472 P 
ATOM     29  O   UNL     1       7.233   3.172  21.782  0.00  0.00    -0.228 OA
BRANCH  28  30
ATOM     30  O   UNL     1       9.322   2.175  21.464  0.00  0.00    -0.303 OA
ATOM     31  H   UNL     1       8.946   1.432  20.966  0.00  0.00    +0.222 HD
ENDBRANCH  28  30
BRANCH  28  32
ATOM     32  O   UNL     1       9.035   4.078  22.961  0.00  0.00    -0.303 OA
ATOM     33  H   UNL     1       9.104   4.613  22.155  0.00  0.00    +0.222 HD
ENDBRANCH  28  32
ENDBRANCH  27  28
ENDBRANCH  26  27
ENDBRANCH   5  26
TORSDOF 12
ENDMDL
MODEL 7
REMARK VINA RESULT:      -6.7      2.807      8.902
REMARK  Name = 
REMARK  12 active torsions:
REMARK  status: ('A' for Active; 'I' for Inactive)
REMARK    1  A    between atoms: O_1  and  C_2
REMARK    2  A    between atoms: C_4  and  C_6
REMARK    3  A    between atoms: C_6  and  O_7
REMARK    4  A    between atoms: O_7  and  P_8
REMARK    5  A    between atoms: P_8  and  O_9
REMARK    6  A    between atoms: P_8  and  O_10
REMARK    7  A    between atoms: C_13  and  N_18
REMARK    8  A    between atoms: C_15  and  O_17
REMARK    9  A    between atoms: C_26  and  O_27
REMARK   10  A    between atoms: O_27  and  P_28
REMARK   11  A    between atoms: P_28  and  O_29
REMARK   12  A    between atoms: P_28  and  O_30
REMARK                            x       y       z     vdW  Elec       q    Type
REMARK                         _______ _______ _______ _____ _____    ______ ____
ROOT
ATOM      1  C   UNL     1       9.450   1.995  22.840  0.00  0.00    +0.178 C 
ATOM      2  C   UNL     1       9.965   0.668  23.382  0.00  0.00    +0.195 C 
ATOM      3  C   UNL     1       8.759   0.072  24.128  0.00  0.00    +0.253 C 
ATOM      4  O   UNL     1       7.619   0.937  23.890  0.00  0.00    -0.346 OA
ATOM      5  C   UNL     1       7.944   1.782  22.778  0.00  0.00    +0.178 C 
ENDROOT
BRANCH   3   6
ATOM      6  N   UNL     1       8.430  -1.283  23.709  0.00  0.00    -0.285 N 
ATOM      7  C   UNL     1       7.838  -2.241  24.493  0.00  0.00    +0.169 A 
ATOM      8  N   UNL     1       7.505  -2.157  25.794  0.00  0.00    -0.216 NA
ATOM      9  C   UNL     1       6.942  -3.311  26.224  0.00  0.00    +0.227 A 
ATOM     10  N   UNL     1       6.710  -4.442  25.523  0.00  0.00    -0.199 NA
ATOM     11  C   UNL     1       7.055  -4.447  24.219  0.00  0.00    +0.255 A 
ATOM     12  C   UNL     1       7.657  -3.327  23.651  0.00  0.00    +0.170 A 
ATOM     13  N   UNL     1       8.127  -3.055  22.389  0.00  0.00    -0.229 NA
ATOM     14  C   UNL     1       8.570  -1.819  22.455  0.00  0.00    +0.203 A 
BRANCH  11  15
ATOM     15  O   UNL     1       6.742  -5.535  23.454  0.00  0.00    -0.384 OA
BRANCH  15  16
ATOM     16  P   UNL     1       5.319  -5.615  22.742  0.00  0.00    +0.529 P 
ATOM     17  O   UNL     1       4.485  -4.382  22.640  0.00  0.00    -0.216 OA
BRANCH  16  18
ATOM     18  O   UNL     1       4.529  -6.799  23.480  0.00  0.00    -0.293 OA
ATOM     19  H   UNL     1       3.569  -6.655  23.390  0.00  0.00    +0.223 HD
ENDBRANCH  16  18
BRANCH  16  20
ATOM     20  O   UNL     1       5.615  -6.324  21.337  0.00  0.00    -0.293 OA
ATOM     21  H   UNL     1       4.953  -6.063  20.672  0.00  0.00    +0.223 HD
ENDBRANCH  16  20
ENDBRANCH  15  16
ENDBRANCH  11  15
ENDBRANCH   3   6
BRANCH   1  22
ATOM     22  O   UNL     1       9.994   2.264  21.554  0.00  0.00    -0.386 OA
ATOM     23  H   UNL     1       9.292   2.077  20.900  0.00  0.00    +0.210 HD
ENDBRANCH   1  22
BRANCH   2  24
ATOM     24  O   UNL     1      11.060   0.898  24.279  0.00  0.00    -0.385 OA
ATOM     25  H   UNL     1      10.916   0.323  25.055  0.00  0.00    +0.210 HD
ENDBRANCH   2  24
BRANCH   5  26
ATOM     26  C   UNL     1       7.153   3.084  22.854  0.00  0.00    +0.206 C 
BRANCH  26  27
ATOM     27  O   UNL     1       7.846   4.114  22.167  0.00  0.00    -0.284 OA
BRANCH  27  28
ATOM     28  P   UNL     1       7.629   5.694  22.837  0.00  0.00    +0.472 P 
ATOM     29  O   UNL     1       7.436   7.108  23.437  0.00  0.00    -0.228 OA
BRANCH  28  30
ATOM     30  O   UNL     1       7.431   6.186  21.290  0.00  0.00    -0.303 OA
ATOM     31  H   UNL     1       7.475   5.436  20.674  0.00  0.00    +0.222 HD
ENDBRANCH  28  30
BRANCH  28  32
ATOM     32  O   UNL     1       9.265   5.781  22.845  0.00  0.00    -0.303 OA
ATOM     33  H   UNL     1       9.687   4.950  23.114  0.00  0.00    +0.222 HD
ENDBRANCH  28  32
ENDBRANCH  27  28
ENDBRANCH  26  27
ENDBRANCH   5  26
TORSDOF 12
ENDMDL
MODEL 8
REMARK VINA RESULT:      -6.5      3.248      8.981
REMARK  Name = 
REMARK  12 active torsions:
REMARK  status: ('A' for Active; 'I' for Inactive)
REMARK    1  A    between atoms: O_1  and  C_2
REMARK    2  A    between atoms: C_4  and  C_6
REMARK    3  A    between atoms: C_6  and  O_7
REMARK    4  A    between atoms: O_7  and  P_8
REMARK    5  A    between atoms: P_8  and  O_9
REMARK    6  A    between atoms: P_8  and  O_10
REMARK    7  A    between atoms: C_13  and  N_18
REMARK    8  A    between atoms: C_15  and  O_17
REMARK    9  A    between atoms: C_26  and  O_27
REMARK   10  A    between atoms: O_27  and  P_28
REMARK   11  A    between atoms: P_28  and  O_29
REMARK   12  A    between atoms: P_28  and  O_30
REMARK                            x       y       z     vdW  Elec       q    Type
REMARK                         _______ _______ _______ _____ _____    ______ ____
ROOT
ATOM      1  C   UNL     1       9.537  -1.201  22.599  0.00  0.00    +0.178 C 
ATOM      2  C   UNL     1       8.981  -2.468  23.237  0.00  0.00    +0.195 C 
ATOM      3  C   UNL     1       7.584  -2.056  23.736  0.00  0.00    +0.253 C 
ATOM      4  O   UNL     1       7.331  -0.703  23.276  0.00  0.00    -0.346 OA
ATOM      5  C   UNL     1       8.284  -0.413  22.245  0.00  0.00    +0.178 C 
ENDROOT
BRANCH   3   6
ATOM      6  N   UNL     1       6.519  -2.931  23.267  0.00  0.00    -0.285 N 
ATOM      7  C   UNL     1       5.477  -3.399  24.025  0.00  0.00    +0.169 A 
ATOM      8  N   UNL     1       5.258  -3.209  25.339  0.00  0.00    -0.216 NA
ATOM      9  C   UNL     1       4.123  -3.833  25.735  0.00  0.00    +0.227 A 
ATOM     10  N   UNL     1       3.268  -4.568  24.991  0.00  0.00    -0.199 NA
ATOM     11  C   UNL     1       3.543  -4.701  23.677  0.00  0.00    +0.255 A 
ATOM     12  C   UNL     1       4.689  -4.120  23.141  0.00  0.00    +0.170 A 
ATOM     13  N   UNL     1       5.229  -4.106  21.877  0.00  0.00    -0.229 NA
ATOM     14  C   UNL     1       6.316  -3.373  21.985  0.00  0.00    +0.203 A 
BRANCH  11  15
ATOM     15  O   UNL     1       2.649  -5.350  22.874  0.00  0.00    -0.384 OA
BRANCH  15  16
ATOM     16  P   UNL     1       2.185  -6.829  23.244  0.00  0.00    +0.529 P 
ATOM     17  O   UNL     1       1.429  -7.629  22.237  0.00  0.00    -0.216 OA
BRANCH  16  18
ATOM     18  O   UNL     1       1.372  -6.698  24.620  0.00  0.00    -0.293 OA
ATOM     19  H   UNL     1       1.060  -5.780  24.728  0.00  0.00    +0.223 HD
ENDBRANCH  16  18
BRANCH  16  20
ATOM     20  O   UNL     1       3.514  -7.540  23.784  0.00  0.00    -0.293 OA
ATOM     21  H   UNL     1       3.406  -7.814  24.712  0.00  0.00    +0.223 HD
ENDBRANCH  16  20
ENDBRANCH  15  16
ENDBRANCH  11  15
ENDBRANCH   3   6
BRANCH   1  22
ATOM     22  O   UNL     1      10.305  -1.510  21.443  0.00  0.00    -0.386 OA
ATOM     23  H   UNL     1      11.210  -1.722  21.747  0.00  0.00    +0.210 HD
ENDBRANCH   1  22
BRANCH   2  24
ATOM     24  O   UNL     1       9.816  -2.873  24.329  0.00  0.00    -0.385 OA
ATOM     25  H   UNL     1       9.365  -3.619  24.769  0.00  0.00    +0.210 HD
ENDBRANCH   2  24
BRANCH   5  26
ATOM     26  C   UNL     1       8.529   1.091  22.160  0.00  0.00    +0.206 C 
BRANCH  26  27
ATOM     27  O   UNL     1       8.966   1.584  23.417  0.00  0.00    -0.284 OA
BRANCH  27  28
ATOM     28  P   UNL     1      10.283   2.701  23.329  0.00  0.00    +0.472 P 
ATOM     29  O   UNL     1      11.463   3.702  23.251  0.00  0.00    -0.228 OA
BRANCH  28  30
ATOM     30  O   UNL     1       9.132   3.852  23.167  0.00  0.00    -0.303 OA
ATOM     31  H   UNL     1       9.132   4.225  22.270  0.00  0.00    +0.222 HD
ENDBRANCH  28  30
BRANCH  28  32
ATOM     32  O   UNL     1      10.360   2.298  21.743  0.00  0.00    -0.303 OA
ATOM     33  H   UNL     1       9.752   1.580  21.506  0.00  0.00    +0.222 HD
ENDBRANCH  28  32
ENDBRANCH  27  28
ENDBRANCH  26  27
ENDBRANCH   5  26
TORSDOF 12
ENDMDL
MODEL 9
REMARK VINA RESULT:      -6.3      1.385      2.265
REMARK  Name = 
REMARK  12 active torsions:
REMARK  status: ('A' for Active; 'I' for Inactive)
REMARK    1  A    between atoms: O_1  and  C_2
REMARK    2  A    between atoms: C_4  and  C_6
REMARK    3  A    between atoms: C_6  and  O_7
REMARK    4  A    between atoms: O_7  and  P_8
REMARK    5  A    between atoms: P_8  and  O_9
REMARK    6  A    between atoms: P_8  and  O_10
REMARK    7  A    between atoms: C_13  and  N_18
REMARK    8  A    between atoms: C_15  and  O_17
REMARK    9  A    between atoms: C_26  and  O_27
REMARK   10  A    between atoms: O_27  and  P_28
REMARK   11  A    between atoms: P_28  and  O_29
REMARK   12  A    between atoms: P_28  and  O_30
REMARK                            x       y       z     vdW  Elec       q    Type
REMARK                         _______ _______ _______ _____ _____    ______ ____
ROOT
ATOM      1  C   UNL     1       7.816  -5.286  25.844  0.00  0.00    +0.178 C 
ATOM      2  C   UNL     1       8.964  -4.866  24.936  0.00  0.00    +0.195 C 
ATOM      3  C   UNL     1       8.276  -4.118  23.780  0.00  0.00    +0.253 C 
ATOM      4  O   UNL     1       6.865  -4.005  24.104  0.00  0.00    -0.346 OA
ATOM      5  C   UNL     1       6.721  -4.287  25.502  0.00  0.00    +0.178 C 
ENDROOT
BRANCH   3   6
ATOM      6  N   UNL     1       8.822  -2.789  23.542  0.00  0.00    -0.285 N 
ATOM      7  C   UNL     1       8.998  -1.816  24.492  0.00  0.00    +0.169 A 
ATOM      8  N   UNL     1       8.655  -1.856  25.793  0.00  0.00    -0.216 NA
ATOM      9  C   UNL     1       8.986  -0.699  26.416  0.00  0.00    +0.227 A 
ATOM     10  N   UNL     1       9.575   0.396  25.890  0.00  0.00    -0.199 NA
ATOM     11  C   UNL     1       9.906   0.358  24.583  0.00  0.00    +0.255 A 
ATOM     12  C   UNL     1       9.610  -0.769  23.820  0.00  0.00    +0.170 A 
ATOM     13  N   UNL     1       9.799  -1.080  22.495  0.00  0.00    -0.229 NA
ATOM     14  C   UNL     1       9.329  -2.301  22.367  0.00  0.00    +0.203 A 
BRANCH  11  15
ATOM     15  O   UNL     1      10.595   1.405  24.040  0.00  0.00    -0.384 OA
BRANCH  15  16
ATOM     16  P   UNL     1       9.798   2.591  23.335  0.00  0.00    +0.529 P 
ATOM     17  O   UNL     1      10.231   4.000  23.569  0.00  0.00    -0.216 OA
BRANCH  16  18
ATOM     18  O   UNL     1       8.259   2.377  23.729  0.00  0.00    -0.293 OA
ATOM     19  H   UNL     1       8.200   1.776  24.494  0.00  0.00    +0.223 HD
ENDBRANCH  16  18
BRANCH  16  20
ATOM     20  O   UNL     1       9.741   2.170  21.791  0.00  0.00    -0.293 OA
ATOM     21  H   UNL     1       8.818   2.082  21.492  0.00  0.00    +0.223 HD
ENDBRANCH  16  20
ENDBRANCH  15  16
ENDBRANCH  11  15
ENDBRANCH   3   6
BRANCH   1  22
ATOM     22  O   UNL     1       8.194  -5.200  27.213  0.00  0.00    -0.386 OA
ATOM     23  H   UNL     1       8.383  -6.110  27.516  0.00  0.00    +0.210 HD
ENDBRANCH   1  22
BRANCH   2  24
ATOM     24  O   UNL     1       9.656  -6.025  24.454  0.00  0.00    -0.385 OA
ATOM     25  H   UNL     1       9.134  -6.379  23.709  0.00  0.00    +0.210 HD
ENDBRANCH   2  24
BRANCH   5  26
ATOM     26  C   UNL     1       5.319  -4.814  25.793  0.00  0.00    +0.206 C 
BRANCH  26  27
ATOM     27  O   UNL     1       4.725  -5.299  24.598  0.00  0.00    -0.284 OA
BRANCH  27  28
ATOM     28  P   UNL     1       3.882  -6.799  24.774  0.00  0.00    +0.472 P 
ATOM     29  O   UNL     1       3.127  -8.142  24.931  0.00  0.00    -0.228 OA
BRANCH  28  30
ATOM     30  O   UNL     1       4.806  -7.017  26.106  0.00  0.00    -0.303 OA
ATOM     31  H   UNL     1       4.628  -7.877  26.521  0.00  0.00    +0.222 HD
ENDBRANCH  28  30
BRANCH  28  32
ATOM     32  O   UNL     1       4.969  -7.394  23.702  0.00  0.00    -0.303 OA
ATOM     33  H   UNL     1       4.563  -7.962  23.028  0.00  0.00    +0.222 HD
ENDBRANCH  28  32
ENDBRANCH  27  28
ENDBRANCH  26  27
ENDBRANCH   5  26
TORSDOF 12
ENDMDL
