MODEL 1
REMARK VINA RESULT:      -4.4      0.000      0.000
REMARK  Name = 
REMARK  3 active torsions:
REMARK  status: ('A' for Active; 'I' for Inactive)
REMARK    1  A    between atoms: O_1  and  C_2
REMARK    2  A    between atoms: C_2  and  C_4
REMARK    3  A    between atoms: C_2  and  C_6
REMARK                            x       y       z     vdW  Elec       q    Type
REMARK                         _______ _______ _______ _____ _____    ______ ____
ROOT
ATOM      1  C   UNL     1      10.189  -0.043  22.857  0.00  0.00    -0.005 A 
ATOM      2  C   UNL     1       9.778   0.862  21.862  0.00  0.00    +0.007 A 
ATOM      3  C   UNL     1       9.569   2.209  22.170  0.00  0.00    +0.000 A 
ATOM      4  C   UNL     1       9.768   2.667  23.470  0.00  0.00    +0.000 A 
ATOM      5  C   UNL     1      10.180   1.784  24.464  0.00  0.00    +0.000 A 
ATOM      6  C   UNL     1      10.394   0.438  24.160  0.00  0.00    +0.007 A 
ENDROOT
BRANCH   1   7
ATOM      7  C   UNL     1      10.400  -1.515  22.553  0.00  0.00    +0.246 C 
BRANCH   7   8
ATOM      8  O   UNL     1       9.815  -1.841  21.287  0.00  0.00    -0.373 OA
ATOM      9  H   UNL     1       9.956  -2.791  21.138  0.00  0.00    +0.212 HD
ENDBRANCH   7   8
BRANCH   7  10
ATOM     10  C   UNL     1       9.846  -2.406  23.653  0.00  0.00    +0.099 C 
ATOM     11  N   UNL     1       9.387  -3.145  24.564  0.00  0.00    -0.193 NA
ENDBRANCH   7  10
ENDBRANCH   1   7
TORSDOF 3
ENDMDL
MODEL 2
REMARK VINA RESULT:      -4.4      0.091      1.529
REMARK  Name = 
REMARK  3 active torsions:
REMARK  status: ('A' for Active; 'I' for Inactive)
REMARK    1  A    between atoms: O_1  and  C_2
REMARK    2  A    between atoms: C_2  and  C_4
REMARK    3  A    between atoms: C_2  and  C_6
REMARK                            x       y       z     vdW  Elec       q    Type
REMARK                         _______ _______ _______ _____ _____    ______ ____
ROOT
ATOM      1  C   UNL     1      10.186  -0.096  22.942  0.00  0.00    -0.005 A 
ATOM      2  C   UNL     1      10.366   0.424  24.236  0.00  0.00    +0.007 A 
ATOM      3  C   UNL     1      10.193   1.787  24.485  0.00  0.00    +0.000 A 
ATOM      4  C   UNL     1       9.838   2.647  23.449  0.00  0.00    +0.000 A 
ATOM      5  C   UNL     1       9.650   2.147  22.163  0.00  0.00    +0.000 A 
ATOM      6  C   UNL     1       9.818   0.784  21.911  0.00  0.00    +0.007 A 
ENDROOT
BRANCH   1   7
ATOM      7  C   UNL     1      10.390  -1.569  22.641  0.00  0.00    +0.246 C 
BRANCH   7   8
ATOM      8  O   UNL     1       9.818  -1.891  21.369  0.00  0.00    -0.373 OA
ATOM      9  H   UNL     1       8.865  -2.025  21.504  0.00  0.00    +0.212 HD
ENDBRANCH   7   8
BRANCH   7  10
ATOM     10  C   UNL     1       9.818  -2.455  23.735  0.00  0.00    +0.099 C 
ATOM     11  N   UNL     1       9.344  -3.191  24.642  0.00  0.00    -0.193 NA
ENDBRANCH   7  10
ENDBRANCH   1   7
TORSDOF 3
ENDMDL
MODEL 3
REMARK VINA RESULT:      -4.3      3.591      4.863
REMARK  Name = 
REMARK  3 active torsions:
REMARK  status: ('A' for Active; 'I' for Inactive)
REMARK    1  A    between atoms: O_1  and  C_2
REMARK    2  A    between atoms: C_2  and  C_4
REMARK    3  A    between atoms: C_2  and  C_6
REMARK                            x       y       z     vdW  Elec       q    Type
REMARK                         _______ _______ _______ _____ _____    ______ ____
ROOT
ATOM      1  C   UNL     1       8.997  -3.815  24.506  0.00  0.00    -0.005 A 
ATOM      2  C   UNL     1       9.761  -2.700  24.121  0.00  0.00    +0.007 A 
ATOM      3  C   UNL     1       9.419  -1.961  22.986  0.00  0.00    +0.000 A 
ATOM      4  C   UNL     1       8.312  -2.324  22.224  0.00  0.00    +0.000 A 
ATOM      5  C   UNL     1       7.541  -3.422  22.596  0.00  0.00    +0.000 A 
ATOM      6  C   UNL     1       7.877  -4.161  23.732  0.00  0.00    +0.007 A 
ENDROOT
BRANCH   1   7
ATOM      7  C   UNL     1       9.361  -4.648  25.721  0.00  0.00    +0.246 C 
BRANCH   7   8
ATOM      8  O   UNL     1      10.337  -5.633  25.363  0.00  0.00    -0.373 OA
ATOM      9  H   UNL     1       9.910  -6.503  25.429  0.00  0.00    +0.212 HD
ENDBRANCH   7   8
BRANCH   7  10
ATOM     10  C   UNL     1       8.140  -5.297  26.350  0.00  0.00    +0.099 C 
ATOM     11  N   UNL     1       7.126  -5.835  26.872  0.00  0.00    -0.193 NA
ENDBRANCH   7  10
ENDBRANCH   1   7
TORSDOF 3
ENDMDL
MODEL 4
REMARK VINA RESULT:      -4.3      3.550      4.670
REMARK  Name = 
REMARK  3 active torsions:
REMARK  status: ('A' for Active; 'I' for Inactive)
REMARK    1  A    between atoms: O_1  and  C_2
REMARK    2  A    between atoms: C_2  and  C_4
REMARK    3  A    between atoms: C_2  and  C_6
REMARK                            x       y       z     vdW  Elec       q    Type
REMARK                         _______ _______ _______ _____ _____    ______ ____
ROOT
ATOM      1  C   UNL     1      10.094   2.194  23.291  0.00  0.00    -0.005 A 
ATOM      2  C   UNL     1       9.620   1.778  22.034  0.00  0.00    +0.007 A 
ATOM      3  C   UNL     1       9.612   0.424  21.690  0.00  0.00    +0.000 A 
ATOM      4  C   UNL     1      10.073  -0.529  22.594  0.00  0.00    +0.000 A 
ATOM      5  C   UNL     1      10.540  -0.133  23.845  0.00  0.00    +0.000 A 
ATOM      6  C   UNL     1      10.546   1.218  24.194  0.00  0.00    +0.007 A 
ENDROOT
BRANCH   1   7
ATOM      7  C   UNL     1      10.136   3.660  23.679  0.00  0.00    +0.246 C 
BRANCH   7   8
ATOM      8  O   UNL     1       9.124   4.382  22.969  0.00  0.00    -0.373 OA
ATOM      9  H   UNL     1       8.374   3.778  22.837  0.00  0.00    +0.212 HD
ENDBRANCH   7   8
BRANCH   7  10
ATOM     10  C   UNL     1      11.507   4.271  23.442  0.00  0.00    +0.099 C 
ATOM     11  N   UNL     1      12.644   4.777  23.244  0.00  0.00    -0.193 NA
ENDBRANCH   7  10
ENDBRANCH   1   7
TORSDOF 3
ENDMDL
MODEL 5
REMARK VINA RESULT:      -4.2      4.839      5.797
REMARK  Name = 
REMARK  3 active torsions:
REMARK  status: ('A' for Active; 'I' for Inactive)
REMARK    1  A    between atoms: O_1  and  C_2
REMARK    2  A    between atoms: C_2  and  C_4
REMARK    3  A    between atoms: C_2  and  C_6
REMARK                            x       y       z     vdW  Elec       q    Type
REMARK                         _______ _______ _______ _____ _____    ______ ____
ROOT
ATOM      1  C   UNL     1       8.033  -4.443  23.993  0.00  0.00    -0.005 A 
ATOM      2  C   UNL     1       7.703  -5.507  23.135  0.00  0.00    +0.007 A 
ATOM      3  C   UNL     1       6.848  -5.304  22.050  0.00  0.00    +0.000 A 
ATOM      4  C   UNL     1       6.315  -4.041  21.805  0.00  0.00    +0.000 A 
ATOM      5  C   UNL     1       6.638  -2.977  22.643  0.00  0.00    +0.000 A 
ATOM      6  C   UNL     1       7.495  -3.174  23.726  0.00  0.00    +0.007 A 
ENDROOT
BRANCH   1   7
ATOM      7  C   UNL     1       8.940  -4.642  25.193  0.00  0.00    +0.246 C 
BRANCH   7   8
ATOM      8  O   UNL     1      10.018  -5.521  24.850  0.00  0.00    -0.373 OA
ATOM      9  H   UNL     1       9.978  -5.668  23.890  0.00  0.00    +0.212 HD
ENDBRANCH   7   8
BRANCH   7  10
ATOM     10  C   UNL     1       8.178  -5.162  26.400  0.00  0.00    +0.099 C 
ATOM     11  N   UNL     1       7.545  -5.594  27.401  0.00  0.00    -0.193 NA
ENDBRANCH   7  10
ENDBRANCH   1   7
TORSDOF 3
ENDMDL
MODEL 6
REMARK VINA RESULT:      -4.2      1.612      1.730
REMARK  Name = 
REMARK  3 active torsions:
REMARK  status: ('A' for Active; 'I' for Inactive)
REMARK    1  A    between atoms: O_1  and  C_2
REMARK    2  A    between atoms: C_2  and  C_4
REMARK    3  A    between atoms: C_2  and  C_6
REMARK                            x       y       z     vdW  Elec       q    Type
REMARK                         _______ _______ _______ _____ _____    ______ ____
ROOT
ATOM      1  C   UNL     1       9.657  -0.652  23.455  0.00  0.00    -0.005 A 
ATOM      2  C   UNL     1       9.494  -0.125  22.161  0.00  0.00    +0.007 A 
ATOM      3  C   UNL     1       9.860   1.194  21.881  0.00  0.00    +0.000 A 
ATOM      4  C   UNL     1      10.394   1.999  22.883  0.00  0.00    +0.000 A 
ATOM      5  C   UNL     1      10.567   1.489  24.167  0.00  0.00    +0.000 A 
ATOM      6  C   UNL     1      10.206   0.171  24.451  0.00  0.00    +0.007 A 
ENDROOT
BRANCH   1   7
ATOM      7  C   UNL     1       9.245  -2.073  23.791  0.00  0.00    +0.246 C 
BRANCH   7   8
ATOM      8  O   UNL     1      10.382  -2.941  23.719  0.00  0.00    -0.373 OA
ATOM      9  H   UNL     1      10.171  -3.645  23.083  0.00  0.00    +0.212 HD
ENDBRANCH   7   8
BRANCH   7  10
ATOM     10  C   UNL     1       8.126  -2.567  22.889  0.00  0.00    +0.099 C 
ATOM     11  N   UNL     1       7.199  -2.978  22.140  0.00  0.00    -0.193 NA
ENDBRANCH   7  10
ENDBRANCH   1   7
TORSDOF 3
ENDMDL
MODEL 7
REMARK VINA RESULT:      -4.2      1.897      2.738
REMARK  Name = 
REMARK  3 active torsions:
REMARK  status: ('A' for Active; 'I' for Inactive)
REMARK    1  A    between atoms: O_1  and  C_2
REMARK    2  A    between atoms: C_2  and  C_4
REMARK    3  A    between atoms: C_2  and  C_6
REMARK                            x       y       z     vdW  Elec       q    Type
REMARK                         _______ _______ _______ _____ _____    ______ ____
ROOT
ATOM      1  C   UNL     1       9.283  -1.440  23.321  0.00  0.00    -0.005 A 
ATOM      2  C   UNL     1       9.956  -0.471  24.087  0.00  0.00    +0.007 A 
ATOM      3  C   UNL     1      10.337   0.746  23.517  0.00  0.00    +0.000 A 
ATOM      4  C   UNL     1      10.049   1.012  22.180  0.00  0.00    +0.000 A 
ATOM      5  C   UNL     1       9.378   0.065  21.411  0.00  0.00    +0.000 A 
ATOM      6  C   UNL     1       8.993  -1.151  21.978  0.00  0.00    +0.007 A 
ENDROOT
BRANCH   1   7
ATOM      7  C   UNL     1       8.881  -2.779  23.911  0.00  0.00    +0.246 C 
BRANCH   7   8
ATOM      8  O   UNL     1      10.048  -3.559  24.194  0.00  0.00    -0.373 OA
ATOM      9  H   UNL     1       9.885  -4.033  25.027  0.00  0.00    +0.212 HD
ENDBRANCH   7   8
BRANCH   7  10
ATOM     10  C   UNL     1       7.929  -3.536  22.999  0.00  0.00    +0.099 C 
ATOM     11  N   UNL     1       7.140  -4.165  22.244  0.00  0.00    -0.193 NA
ENDBRANCH   7  10
ENDBRANCH   1   7
TORSDOF 3
ENDMDL
MODEL 8
REMARK VINA RESULT:      -4.0      2.899      4.152
REMARK  Name = 
REMARK  3 active torsions:
REMARK  status: ('A' for Active; 'I' for Inactive)
REMARK    1  A    between atoms: O_1  and  C_2
REMARK    2  A    between atoms: C_2  and  C_4
REMARK    3  A    between atoms: C_2  and  C_6
REMARK                            x       y       z     vdW  Elec       q    Type
REMARK                         _______ _______ _______ _____ _____    ______ ____
ROOT
ATOM      1  C   UNL     1       9.253   0.262  22.493  0.00  0.00    -0.005 A 
ATOM      2  C   UNL     1       8.733   0.287  23.799  0.00  0.00    +0.007 A 
ATOM      3  C   UNL     1       8.917  -0.799  24.658  0.00  0.00    +0.000 A 
ATOM      4  C   UNL     1       9.623  -1.919  24.227  0.00  0.00    +0.000 A 
ATOM      5  C   UNL     1      10.149  -1.956  22.938  0.00  0.00    +0.000 A 
ATOM      6  C   UNL     1       9.970  -0.872  22.078  0.00  0.00    +0.007 A 
ENDROOT
BRANCH   1   7
ATOM      7  C   UNL     1       9.046   1.419  21.533  0.00  0.00    +0.246 C 
BRANCH   7   8
ATOM      8  O   UNL     1      10.186   2.285  21.559  0.00  0.00    -0.373 OA
ATOM      9  H   UNL     1      10.849   1.875  22.139  0.00  0.00    +0.212 HD
ENDBRANCH   7   8
BRANCH   7  10
ATOM     10  C   UNL     1       7.772   2.188  21.839  0.00  0.00    +0.099 C 
ATOM     11  N   UNL     1       6.714   2.825  22.092  0.00  0.00    -0.193 NA
ENDBRANCH   7  10
ENDBRANCH   1   7
TORSDOF 3
ENDMDL
MODEL 9
REMARK VINA RESULT:      -4.0      2.229      4.594
REMARK  Name = 
REMARK  3 active torsions:
REMARK  status: ('A' for Active; 'I' for Inactive)
REMARK    1  A    between atoms: O_1  and  C_2
REMARK    2  A    between atoms: C_2  and  C_4
REMARK    3  A    between atoms: C_2  and  C_6
REMARK                            x       y       z     vdW  Elec       q    Type
REMARK                         _______ _______ _______ _____ _____    ______ ____
ROOT
ATOM      1  C   UNL     1       8.927  -2.524  23.186  0.00  0.00    -0.005 A 
ATOM      2  C   UNL     1       7.808  -3.196  22.662  0.00  0.00    +0.007 A 
ATOM      3  C   UNL     1       7.381  -4.405  23.217  0.00  0.00    +0.000 A 
ATOM      4  C   UNL     1       8.061  -4.955  24.301  0.00  0.00    +0.000 A 
ATOM      5  C   UNL     1       9.167  -4.298  24.834  0.00  0.00    +0.000 A 
ATOM      6  C   UNL     1       9.595  -3.088  24.284  0.00  0.00    +0.007 A 
ENDROOT
BRANCH   1   7
ATOM      7  C   UNL     1       9.425  -1.223  22.585  0.00  0.00    +0.246 C 
BRANCH   7   8
ATOM      8  O   UNL     1      10.262  -1.495  21.455  0.00  0.00    -0.373 OA
ATOM      9  H   UNL     1      10.207  -2.449  21.276  0.00  0.00    +0.212 HD
ENDBRANCH   7   8
BRANCH   7  10
ATOM     10  C   UNL     1      10.155  -0.369  23.609  0.00  0.00    +0.099 C 
ATOM     11  N   UNL     1      10.761   0.339  24.457  0.00  0.00    -0.193 NA
ENDBRANCH   7  10
ENDBRANCH   1   7
TORSDOF 3
ENDMDL
