MODEL 1
REMARK VINA RESULT:      -6.1      0.000      0.000
REMARK  Name = 
REMARK  3 active torsions:
REMARK  status: ('A' for Active; 'I' for Inactive)
REMARK    1  A    between atoms: O_1  and  C_2
REMARK    2  A    between atoms: C_2  and  C_4
REMARK    3  A    between atoms: C_7  and  C_9
REMARK                            x       y       z     vdW  Elec       q    Type
REMARK                         _______ _______ _______ _____ _____    ______ ____
ROOT
ATOM      1  C   UNL     1      11.430   4.754  23.526  0.00  0.00    +0.212 A 
ATOM      2  O   UNL     1      11.474   3.471  23.041  0.00  0.00    -0.448 OA
ATOM      3  C   UNL     1      10.257   2.895  23.279  0.00  0.00    +0.137 A 
ATOM      4  C   UNL     1       9.425   3.823  23.879  0.00  0.00    +0.051 A 
ATOM      5  C   UNL     1      10.177   5.010  24.041  0.00  0.00    +0.057 A 
ENDROOT
BRANCH   3   6
ATOM      6  C   UNL     1      10.059   1.508  22.854  0.00  0.00    +0.036 A 
ATOM      7  C   UNL     1      10.368   0.376  23.632  0.00  0.00    +0.052 A 
ATOM      8 CL   UNL     1      11.066   0.469  25.215  0.00  0.00    -0.083 Cl
ATOM      9  C   UNL     1      10.078  -0.915  23.160  0.00  0.00    +0.021 A 
ATOM     10  C   UNL     1       9.481  -1.099  21.914  0.00  0.00    +0.001 A 
ATOM     11  C   UNL     1       9.182   0.005  21.126  0.00  0.00    +0.001 A 
ATOM     12  C   UNL     1       9.470   1.290  21.590  0.00  0.00    +0.013 A 
ENDBRANCH   3   6
BRANCH   1  13
ATOM     13  C   UNL     1      12.608   5.581  23.434  0.00  0.00    +0.372 C 
ATOM     14  O   UNL     1      13.313   5.719  22.446  0.00  0.00    -0.242 OA
BRANCH  13  15
ATOM     15  O   UNL     1      12.855   6.216  24.609  0.00  0.00    -0.475 OA
ATOM     16  H   UNL     1      12.056   6.708  24.895  0.00  0.00    +0.296 HD
ENDBRANCH  13  15
ENDBRANCH   1  13
TORSDOF 3
ENDMDL
MODEL 2
REMARK VINA RESULT:      -6.0      1.876      2.255
REMARK  Name = 
REMARK  3 active torsions:
REMARK  status: ('A' for Active; 'I' for Inactive)
REMARK    1  A    between atoms: O_1  and  C_2
REMARK    2  A    between atoms: C_2  and  C_4
REMARK    3  A    between atoms: C_7  and  C_9
REMARK                            x       y       z     vdW  Elec       q    Type
REMARK                         _______ _______ _______ _____ _____    ______ ____
ROOT
ATOM      1  C   UNL     1      12.022   5.012  23.111  0.00  0.00    +0.212 A 
ATOM      2  O   UNL     1      11.684   3.683  23.065  0.00  0.00    -0.448 OA
ATOM      3  C   UNL     1      10.444   3.550  23.625  0.00  0.00    +0.137 A 
ATOM      4  C   UNL     1       9.975   4.799  23.992  0.00  0.00    +0.051 A 
ATOM      5  C   UNL     1      10.986   5.732  23.668  0.00  0.00    +0.057 A 
ENDROOT
BRANCH   3   6
ATOM      6  C   UNL     1       9.865   2.207  23.699  0.00  0.00    +0.036 A 
ATOM      7  C   UNL     1       8.718   1.785  22.999  0.00  0.00    +0.052 A 
ATOM      8 CL   UNL     1       7.799   2.825  21.962  0.00  0.00    -0.083 Cl
ATOM      9  C   UNL     1       8.280   0.454  23.084  0.00  0.00    +0.021 A 
ATOM     10  C   UNL     1       8.970  -0.474  23.862  0.00  0.00    +0.001 A 
ATOM     11  C   UNL     1      10.096  -0.074  24.571  0.00  0.00    +0.001 A 
ATOM     12  C   UNL     1      10.534   1.250  24.491  0.00  0.00    +0.013 A 
ENDBRANCH   3   6
BRANCH   1  13
ATOM     13  C   UNL     1      13.310   5.428  22.611  0.00  0.00    +0.372 C 
ATOM     14  O   UNL     1      13.506   6.153  21.648  0.00  0.00    -0.242 OA
BRANCH  13  15
ATOM     15  O   UNL     1      14.318   4.909  23.359  0.00  0.00    -0.475 OA
ATOM     16  H   UNL     1      14.407   3.949  23.178  0.00  0.00    +0.296 HD
ENDBRANCH  13  15
ENDBRANCH   1  13
TORSDOF 3
ENDMDL
MODEL 3
REMARK VINA RESULT:      -6.0      5.294      7.794
REMARK  Name = 
REMARK  3 active torsions:
REMARK  status: ('A' for Active; 'I' for Inactive)
REMARK    1  A    between atoms: O_1  and  C_2
REMARK    2  A    between atoms: C_2  and  C_4
REMARK    3  A    between atoms: C_7  and  C_9
REMARK                            x       y       z     vdW  Elec       q    Type
REMARK                         _______ _______ _______ _____ _____    ______ ____
ROOT
ATOM      1  C   UNL     1       8.329  -4.734  24.299  0.00  0.00    +0.212 A 
ATOM      2  O   UNL     1       8.585  -3.394  24.156  0.00  0.00    -0.448 OA
ATOM      3  C   UNL     1       8.018  -2.986  22.981  0.00  0.00    +0.137 A 
ATOM      4  C   UNL     1       7.367  -4.057  22.395  0.00  0.00    +0.051 A 
ATOM      5  C   UNL     1       7.571  -5.176  23.235  0.00  0.00    +0.057 A 
ENDROOT
BRANCH   3   6
ATOM      6  C   UNL     1       8.164  -1.579  22.601  0.00  0.00    +0.036 A 
ATOM      7  C   UNL     1       7.360  -0.528  23.082  0.00  0.00    +0.052 A 
ATOM      8 CL   UNL     1       6.045  -0.762  24.184  0.00  0.00    -0.083 Cl
ATOM      9  C   UNL     1       7.624   0.800  22.708  0.00  0.00    +0.021 A 
ATOM     10  C   UNL     1       8.684   1.102  21.854  0.00  0.00    +0.001 A 
ATOM     11  C   UNL     1       9.479   0.076  21.359  0.00  0.00    +0.001 A 
ATOM     12  C   UNL     1       9.219  -1.246  21.726  0.00  0.00    +0.013 A 
ENDBRANCH   3   6
BRANCH   1  13
ATOM     13  C   UNL     1       8.851  -5.431  25.450  0.00  0.00    +0.372 C 
ATOM     14  O   UNL     1       8.208  -5.787  26.426  0.00  0.00    -0.242 OA
BRANCH  13  15
ATOM     15  O   UNL     1      10.184  -5.660  25.323  0.00  0.00    -0.475 OA
ATOM     16  H   UNL     1      10.456  -6.384  25.926  0.00  0.00    +0.296 HD
ENDBRANCH  13  15
ENDBRANCH   1  13
TORSDOF 3
ENDMDL
MODEL 4
REMARK VINA RESULT:      -5.8      5.512      8.295
REMARK  Name = 
REMARK  3 active torsions:
REMARK  status: ('A' for Active; 'I' for Inactive)
REMARK    1  A    between atoms: O_1  and  C_2
REMARK    2  A    between atoms: C_2  and  C_4
REMARK    3  A    between atoms: C_7  and  C_9
REMARK                            x       y       z     vdW  Elec       q    Type
REMARK                         _______ _______ _______ _____ _____    ______ ____
ROOT
ATOM      1  C   UNL     1       7.063  -4.794  22.308  0.00  0.00    +0.212 A 
ATOM      2  O   UNL     1       7.153  -3.491  21.889  0.00  0.00    -0.448 OA
ATOM      3  C   UNL     1       7.913  -2.813  22.800  0.00  0.00    +0.137 A 
ATOM      4  C   UNL     1       8.340  -3.692  23.779  0.00  0.00    +0.051 A 
ATOM      5  C   UNL     1       7.792  -4.958  23.466  0.00  0.00    +0.057 A 
ENDROOT
BRANCH   3   6
ATOM      6  C   UNL     1       8.148  -1.386  22.571  0.00  0.00    +0.036 A 
ATOM      7  C   UNL     1       7.417  -0.343  23.172  0.00  0.00    +0.052 A 
ATOM      8 CL   UNL     1       6.095  -0.610  24.259  0.00  0.00    -0.083 Cl
ATOM      9  C   UNL     1       7.765   0.998  22.940  0.00  0.00    +0.021 A 
ATOM     10  C   UNL     1       8.838   1.321  22.110  0.00  0.00    +0.001 A 
ATOM     11  C   UNL     1       9.561   0.307  21.498  0.00  0.00    +0.001 A 
ATOM     12  C   UNL     1       9.218  -1.028  21.724  0.00  0.00    +0.013 A 
ENDBRANCH   3   6
BRANCH   1  13
ATOM     13  C   UNL     1       6.279  -5.728  21.537  0.00  0.00    +0.372 C 
ATOM     14  O   UNL     1       5.976  -5.612  20.359  0.00  0.00    -0.242 OA
BRANCH  13  15
ATOM     15  O   UNL     1       5.903  -6.794  22.291  0.00  0.00    -0.475 OA
ATOM     16  H   UNL     1       5.658  -6.493  23.193  0.00  0.00    +0.296 HD
ENDBRANCH  13  15
ENDBRANCH   1  13
TORSDOF 3
ENDMDL
MODEL 5
REMARK VINA RESULT:      -5.7      4.821      7.215
REMARK  Name = 
REMARK  3 active torsions:
REMARK  status: ('A' for Active; 'I' for Inactive)
REMARK    1  A    between atoms: O_1  and  C_2
REMARK    2  A    between atoms: C_2  and  C_4
REMARK    3  A    between atoms: C_7  and  C_9
REMARK                            x       y       z     vdW  Elec       q    Type
REMARK                         _______ _______ _______ _____ _____    ______ ____
ROOT
ATOM      1  C   UNL     1       8.829  -3.723  25.551  0.00  0.00    +0.212 A 
ATOM      2  O   UNL     1       9.365  -2.887  24.604  0.00  0.00    -0.448 OA
ATOM      3  C   UNL     1       9.058  -1.603  24.962  0.00  0.00    +0.137 A 
ATOM      4  C   UNL     1       8.360  -1.620  26.157  0.00  0.00    +0.051 A 
ATOM      5  C   UNL     1       8.210  -2.975  26.530  0.00  0.00    +0.057 A 
ENDROOT
BRANCH   3   6
ATOM      6  C   UNL     1       9.520  -0.519  24.093  0.00  0.00    +0.036 A 
ATOM      7  C   UNL     1       9.376  -0.493  22.692  0.00  0.00    +0.052 A 
ATOM      8 CL   UNL     1       8.648  -1.777  21.786  0.00  0.00    -0.083 Cl
ATOM      9  C   UNL     1       9.794   0.625  21.953  0.00  0.00    +0.021 A 
ATOM     10  C   UNL     1      10.358   1.729  22.590  0.00  0.00    +0.001 A 
ATOM     11  C   UNL     1      10.522   1.716  23.969  0.00  0.00    +0.001 A 
ATOM     12  C   UNL     1      10.110   0.605  24.709  0.00  0.00    +0.013 A 
ENDBRANCH   3   6
BRANCH   1  13
ATOM     13  C   UNL     1       8.979  -5.149  25.395  0.00  0.00    +0.372 C 
ATOM     14  O   UNL     1       9.434  -5.721  24.416  0.00  0.00    -0.242 OA
BRANCH  13  15
ATOM     15  O   UNL     1       8.545  -5.812  26.498  0.00  0.00    -0.475 OA
ATOM     16  H   UNL     1       8.951  -5.422  27.301  0.00  0.00    +0.296 HD
ENDBRANCH  13  15
ENDBRANCH   1  13
TORSDOF 3
ENDMDL
MODEL 6
REMARK VINA RESULT:      -5.6      4.342      6.964
REMARK  Name = 
REMARK  3 active torsions:
REMARK  status: ('A' for Active; 'I' for Inactive)
REMARK    1  A    between atoms: O_1  and  C_2
REMARK    2  A    between atoms: C_2  and  C_4
REMARK    3  A    between atoms: C_7  and  C_9
REMARK                            x       y       z     vdW  Elec       q    Type
REMARK                         _______ _______ _______ _____ _____    ______ ____
ROOT
ATOM      1  C   UNL     1       8.838  -3.731  24.475  0.00  0.00    +0.212 A 
ATOM      2  O   UNL     1       9.300  -2.442  24.541  0.00  0.00    -0.448 OA
ATOM      3  C   UNL     1       8.729  -1.742  23.515  0.00  0.00    +0.137 A 
ATOM      4  C   UNL     1       7.872  -2.576  22.818  0.00  0.00    +0.051 A 
ATOM      5  C   UNL     1       7.947  -3.849  23.429  0.00  0.00    +0.057 A 
ENDROOT
BRANCH   3   6
ATOM      6  C   UNL     1       9.077  -0.327  23.371  0.00  0.00    +0.036 A 
ATOM      7  C   UNL     1       8.943   0.642  24.383  0.00  0.00    +0.052 A 
ATOM      8 CL   UNL     1       8.307   0.294  25.956  0.00  0.00    -0.083 Cl
ATOM      9  C   UNL     1       9.370   1.963  24.168  0.00  0.00    +0.021 A 
ATOM     10  C   UNL     1       9.932   2.339  22.949  0.00  0.00    +0.001 A 
ATOM     11  C   UNL     1      10.059   1.400  21.933  0.00  0.00    +0.001 A 
ATOM     12  C   UNL     1       9.635   0.086  22.142  0.00  0.00    +0.013 A 
ENDBRANCH   3   6
BRANCH   1  13
ATOM     13  C   UNL     1       9.316  -4.700  25.431  0.00  0.00    +0.372 C 
ATOM     14  O   UNL     1       8.790  -4.974  26.499  0.00  0.00    -0.242 OA
BRANCH  13  15
ATOM     15  O   UNL     1      10.455  -5.299  24.997  0.00  0.00    -0.475 OA
ATOM     16  H   UNL     1      10.352  -6.274  25.032  0.00  0.00    +0.296 HD
ENDBRANCH  13  15
ENDBRANCH   1  13
TORSDOF 3
ENDMDL
MODEL 7
REMARK VINA RESULT:      -5.6      2.782      5.705
REMARK  Name = 
REMARK  3 active torsions:
REMARK  status: ('A' for Active; 'I' for Inactive)
REMARK    1  A    between atoms: O_1  and  C_2
REMARK    2  A    between atoms: C_2  and  C_4
REMARK    3  A    between atoms: C_7  and  C_9
REMARK                            x       y       z     vdW  Elec       q    Type
REMARK                         _______ _______ _______ _____ _____    ______ ____
ROOT
ATOM      1  C   UNL     1       9.753  -0.282  22.985  0.00  0.00    +0.212 A 
ATOM      2  O   UNL     1       9.750   1.061  22.704  0.00  0.00    -0.448 OA
ATOM      3  C   UNL     1      10.238   1.716  23.800  0.00  0.00    +0.137 A 
ATOM      4  C   UNL     1      10.590   0.788  24.764  0.00  0.00    +0.051 A 
ATOM      5  C   UNL     1      10.275  -0.489  24.245  0.00  0.00    +0.057 A 
ENDROOT
BRANCH   3   6
ATOM      6  C   UNL     1      10.326   3.177  23.745  0.00  0.00    +0.036 A 
ATOM      7  C   UNL     1       9.275   4.059  24.063  0.00  0.00    +0.052 A 
ATOM      8 CL   UNL     1       7.697   3.527  24.543  0.00  0.00    -0.083 Cl
ATOM      9  C   UNL     1       9.479   5.448  24.043  0.00  0.00    +0.021 A 
ATOM     10  C   UNL     1      10.724   5.980  23.707  0.00  0.00    +0.001 A 
ATOM     11  C   UNL     1      11.768   5.126  23.376  0.00  0.00    +0.001 A 
ATOM     12  C   UNL     1      11.569   3.743  23.393  0.00  0.00    +0.013 A 
ENDBRANCH   3   6
BRANCH   1  13
ATOM     13  C   UNL     1       9.249  -1.207  22.000  0.00  0.00    +0.372 C 
ATOM     14  O   UNL     1       8.682  -2.264  22.232  0.00  0.00    -0.242 OA
BRANCH  13  15
ATOM     15  O   UNL     1       9.480  -0.758  20.739  0.00  0.00    -0.475 OA
ATOM     16  H   UNL     1       8.711  -0.236  20.426  0.00  0.00    +0.296 HD
ENDBRANCH  13  15
ENDBRANCH   1  13
TORSDOF 3
ENDMDL
MODEL 8
REMARK VINA RESULT:      -5.5      4.538      7.302
REMARK  Name = 
REMARK  3 active torsions:
REMARK  status: ('A' for Active; 'I' for Inactive)
REMARK    1  A    between atoms: O_1  and  C_2
REMARK    2  A    between atoms: C_2  and  C_4
REMARK    3  A    between atoms: C_7  and  C_9
REMARK                            x       y       z     vdW  Elec       q    Type
REMARK                         _______ _______ _______ _____ _____    ______ ____
ROOT
ATOM      1  C   UNL     1       6.862  -3.272  22.695  0.00  0.00    +0.212 A 
ATOM      2  O   UNL     1       7.235  -1.959  22.562  0.00  0.00    -0.448 OA
ATOM      3  C   UNL     1       8.424  -1.796  23.218  0.00  0.00    +0.137 A 
ATOM      4  C   UNL     1       8.827  -3.014  23.735  0.00  0.00    +0.051 A 
ATOM      5  C   UNL     1       7.826  -3.956  23.405  0.00  0.00    +0.057 A 
ENDROOT
BRANCH   3   6
ATOM      6  C   UNL     1       9.028  -0.462  23.224  0.00  0.00    +0.036 A 
ATOM      7  C   UNL     1       9.439   0.231  24.379  0.00  0.00    +0.052 A 
ATOM      8 CL   UNL     1       9.255  -0.398  25.983  0.00  0.00    -0.083 Cl
ATOM      9  C   UNL     1      10.071   1.481  24.274  0.00  0.00    +0.021 A 
ATOM     10  C   UNL     1      10.301   2.059  23.027  0.00  0.00    +0.001 A 
ATOM     11  C   UNL     1       9.890   1.398  21.877  0.00  0.00    +0.001 A 
ATOM     12  C   UNL     1       9.259   0.155  21.976  0.00  0.00    +0.013 A 
ENDBRANCH   3   6
BRANCH   1  13
ATOM     13  C   UNL     1       5.614  -3.710  22.120  0.00  0.00    +0.372 C 
ATOM     14  O   UNL     1       4.623  -4.065  22.740  0.00  0.00    -0.242 OA
BRANCH  13  15
ATOM     15  O   UNL     1       5.661  -3.681  20.763  0.00  0.00    -0.475 OA
ATOM     16  H   UNL     1       6.448  -4.175  20.447  0.00  0.00    +0.296 HD
ENDBRANCH  13  15
ENDBRANCH   1  13
TORSDOF 3
ENDMDL
MODEL 9
REMARK VINA RESULT:      -5.5      4.244      5.686
REMARK  Name = 
REMARK  3 active torsions:
REMARK  status: ('A' for Active; 'I' for Inactive)
REMARK    1  A    between atoms: O_1  and  C_2
REMARK    2  A    between atoms: C_2  and  C_4
REMARK    3  A    between atoms: C_7  and  C_9
REMARK                            x       y       z     vdW  Elec       q    Type
REMARK                         _______ _______ _______ _____ _____    ______ ____
ROOT
ATOM      1  C   UNL     1       8.163   0.715  22.141  0.00  0.00    +0.212 A 
ATOM      2  O   UNL     1       7.805  -0.402  22.851  0.00  0.00    -0.448 OA
ATOM      3  C   UNL     1       8.757  -1.358  22.632  0.00  0.00    +0.137 A 
ATOM      4  C   UNL     1       9.743  -0.836  21.814  0.00  0.00    +0.051 A 
ATOM      5  C   UNL     1       9.361   0.487  21.496  0.00  0.00    +0.057 A 
ENDROOT
BRANCH   3   6
ATOM      6  C   UNL     1       8.589  -2.658  23.285  0.00  0.00    +0.036 A 
ATOM      7  C   UNL     1       7.584  -3.593  22.970  0.00  0.00    +0.052 A 
ATOM      8 CL   UNL     1       6.369  -3.316  21.766  0.00  0.00    -0.083 Cl
ATOM      9  C   UNL     1       7.548  -4.843  23.608  0.00  0.00    +0.021 A 
ATOM     10  C   UNL     1       8.503  -5.181  24.566  0.00  0.00    +0.001 A 
ATOM     11  C   UNL     1       9.493  -4.267  24.900  0.00  0.00    +0.001 A 
ATOM     12  C   UNL     1       9.532  -3.021  24.269  0.00  0.00    +0.013 A 
ENDBRANCH   3   6
BRANCH   1  13
ATOM     13  C   UNL     1       7.303   1.873  22.170  0.00  0.00    +0.372 C 
ATOM     14  O   UNL     1       7.636   3.021  21.916  0.00  0.00    -0.242 OA
BRANCH  13  15
ATOM     15  O   UNL     1       6.035   1.534  22.520  0.00  0.00    -0.475 OA
ATOM     16  H   UNL     1       5.638   0.968  21.824  0.00  0.00    +0.296 HD
ENDBRANCH  13  15
ENDBRANCH   1  13
TORSDOF 3
ENDMDL
