MODEL 1
REMARK VINA RESULT:      -7.6      0.000      0.000
REMARK  Name = 
REMARK  4 active torsions:
REMARK  status: ('A' for Active; 'I' for Inactive)
REMARK    1  A    between atoms: C_7  and  N_8
REMARK    2  A    between atoms: N_8  and  C_9
REMARK    3  A    between atoms: C_9  and  C_10
REMARK    4  A    between atoms: C_14  and  C_16
REMARK                            x       y       z     vdW  Elec       q    Type
REMARK                         _______ _______ _______ _____ _____    ______ ____
ROOT
ATOM      1  C   UNL     1       9.216  -1.653  23.634  0.00  0.00    -0.030 A 
ATOM      2  C   UNL     1       8.985  -0.357  24.126  0.00  0.00    +0.013 A 
ATOM      3  C   UNL     1       9.138   0.788  23.316  0.00  0.00    -0.018 A 
ATOM      4  C   UNL     1       9.526   0.580  21.980  0.00  0.00    +0.008 A 
ATOM      5  C   UNL     1       9.788  -0.701  21.485  0.00  0.00    +0.001 A 
ATOM      6  C   UNL     1       9.642  -1.810  22.311  0.00  0.00    +0.005 A 
ENDROOT
BRANCH   3   7
ATOM      7  C   UNL     1       8.944   2.154  23.868  0.00  0.00    -0.016 A 
ATOM      8  C   UNL     1       8.194   2.372  25.038  0.00  0.00    +0.009 A 
ATOM      9  C   UNL     1       8.076   3.639  25.633  0.00  0.00    +0.010 A 
ATOM     10  C   UNL     1       8.717   4.738  25.039  0.00  0.00    -0.000 A 
ATOM     11  C   UNL     1       8.843   6.115  25.374  0.00  0.00    +0.027 A 
ATOM     12  C   UNL     1       9.608   6.714  24.399  0.00  0.00    +0.083 A 
ATOM     13  N   UNL     1       9.940   5.755  23.479  0.00  0.00    -0.361 N 
ATOM     14  H   UNL     1      10.496   5.909  22.650  0.00  0.00    +0.165 HD
ATOM     15  C   UNL     1       9.426   4.535  23.859  0.00  0.00    +0.047 A 
ATOM     16  C   UNL     1       9.551   3.272  23.258  0.00  0.00    +0.034 A 
ENDBRANCH   3   7
BRANCH   1  17
ATOM     17  C   UNL     1       9.048  -2.865  24.528  0.00  0.00    +0.137 C 
BRANCH  17  18
ATOM     18  N   UNL     1       7.635  -3.239  24.559  0.00  0.00    -0.337 N 
ATOM     19  H   UNL     1       7.066  -2.416  24.749  0.00  0.00    +0.146 HD
BRANCH  18  24
ATOM     20  N   UNL     1       5.783  -2.131  22.487  0.00  0.00    -0.342 N 
ATOM     21  H   UNL     1       6.593  -1.516  22.498  0.00  0.00    +0.144 HD
ATOM     22  H   UNL     1       5.245  -2.020  21.632  0.00  0.00    +0.144 HD
ATOM     23  C   UNL     1       6.244  -3.450  22.472  0.00  0.00    +0.137 A 
ATOM     24  C   UNL     1       7.118  -3.957  23.457  0.00  0.00    +0.067 A 
ATOM     25  C   UNL     1       7.621  -5.246  23.223  0.00  0.00    +0.028 A 
ATOM     26  C   UNL     1       7.206  -5.985  22.117  0.00  0.00    +0.022 A 
ATOM     27  C   UNL     1       6.300  -5.404  21.251  0.00  0.00    +0.113 A 
ATOM     28  N   UNL     1       5.816  -4.157  21.404  0.00  0.00    -0.239 NA
ENDBRANCH  18  24
ENDBRANCH  17  18
ENDBRANCH   1  17
TORSDOF 4
ENDMDL
MODEL 2
REMARK VINA RESULT:      -7.5      1.845      2.415
REMARK  Name = 
REMARK  4 active torsions:
REMARK  status: ('A' for Active; 'I' for Inactive)
REMARK    1  A    between atoms: C_7  and  N_8
REMARK    2  A    between atoms: N_8  and  C_9
REMARK    3  A    between atoms: C_9  and  C_10
REMARK    4  A    between atoms: C_14  and  C_16
REMARK                            x       y       z     vdW  Elec       q    Type
REMARK                         _______ _______ _______ _____ _____    ______ ____
ROOT
ATOM      1  C   UNL     1       9.152  -1.936  24.819  0.00  0.00    -0.030 A 
ATOM      2  C   UNL     1       8.945  -0.551  24.949  0.00  0.00    +0.013 A 
ATOM      3  C   UNL     1       9.411   0.368  23.986  0.00  0.00    -0.018 A 
ATOM      4  C   UNL     1      10.091  -0.160  22.873  0.00  0.00    +0.008 A 
ATOM      5  C   UNL     1      10.330  -1.532  22.744  0.00  0.00    +0.001 A 
ATOM      6  C   UNL     1       9.870  -2.413  23.717  0.00  0.00    +0.005 A 
ENDROOT
BRANCH   3   7
ATOM      7  C   UNL     1       9.233   1.832  24.168  0.00  0.00    -0.016 A 
ATOM      8  C   UNL     1       8.242   2.348  25.023  0.00  0.00    +0.009 A 
ATOM      9  C   UNL     1       8.116   3.722  25.286  0.00  0.00    +0.010 A 
ATOM     10  C   UNL     1       8.998   4.623  24.669  0.00  0.00    -0.000 A 
ATOM     11  C   UNL     1       9.183   6.032  24.730  0.00  0.00    +0.027 A 
ATOM     12  C   UNL     1      10.226   6.354  23.891  0.00  0.00    +0.083 A 
ATOM     13  N   UNL     1      10.672   5.195  23.315  0.00  0.00    -0.361 N 
ATOM     14  H   UNL     1      11.431   5.127  22.651  0.00  0.00    +0.165 HD
ATOM     15  C   UNL     1       9.953   4.120  23.790  0.00  0.00    +0.047 A 
ATOM     16  C   UNL     1      10.088   2.749  23.522  0.00  0.00    +0.034 A 
ENDBRANCH   3   7
BRANCH   1  17
ATOM     17  C   UNL     1       8.645  -2.900  25.872  0.00  0.00    +0.137 C 
BRANCH  17  18
ATOM     18  N   UNL     1       8.674  -4.257  25.326  0.00  0.00    -0.337 N 
ATOM     19  H   UNL     1       9.383  -4.805  25.809  0.00  0.00    +0.146 HD
BRANCH  18  24
ATOM     20  N   UNL     1       7.529  -5.936  27.521  0.00  0.00    -0.342 N 
ATOM     21  H   UNL     1       7.684  -5.015  27.923  0.00  0.00    +0.144 HD
ATOM     22  H   UNL     1       6.880  -6.481  28.082  0.00  0.00    +0.144 HD
ATOM     23  C   UNL     1       6.901  -5.764  26.284  0.00  0.00    +0.137 A 
ATOM     24  C   UNL     1       7.456  -4.968  25.258  0.00  0.00    +0.067 A 
ATOM     25  C   UNL     1       6.638  -4.760  24.137  0.00  0.00    +0.028 A 
ATOM     26  C   UNL     1       5.393  -5.377  24.036  0.00  0.00    +0.022 A 
ATOM     27  C   UNL     1       4.981  -6.183  25.079  0.00  0.00    +0.113 A 
ATOM     28  N   UNL     1       5.706  -6.386  26.196  0.00  0.00    -0.239 NA
ENDBRANCH  18  24
ENDBRANCH  17  18
ENDBRANCH   1  17
TORSDOF 4
ENDMDL
MODEL 3
REMARK VINA RESULT:      -7.5      2.069      2.859
REMARK  Name = 
REMARK  4 active torsions:
REMARK  status: ('A' for Active; 'I' for Inactive)
REMARK    1  A    between atoms: C_7  and  N_8
REMARK    2  A    between atoms: N_8  and  C_9
REMARK    3  A    between atoms: C_9  and  C_10
REMARK    4  A    between atoms: C_14  and  C_16
REMARK                            x       y       z     vdW  Elec       q    Type
REMARK                         _______ _______ _______ _____ _____    ______ ____
ROOT
ATOM      1  C   UNL     1       9.192  -1.036  23.654  0.00  0.00    -0.030 A 
ATOM      2  C   UNL     1       8.909   0.328  23.843  0.00  0.00    +0.013 A 
ATOM      3  C   UNL     1       8.906   1.245  22.771  0.00  0.00    -0.018 A 
ATOM      4  C   UNL     1       9.191   0.736  21.491  0.00  0.00    +0.008 A 
ATOM      5  C   UNL     1       9.503  -0.612  21.293  0.00  0.00    +0.001 A 
ATOM      6  C   UNL     1       9.512  -1.491  22.371  0.00  0.00    +0.005 A 
ENDROOT
BRANCH   3   7
ATOM      7  C   UNL     1       8.660   2.693  22.998  0.00  0.00    -0.016 A 
ATOM      8  C   UNL     1       9.423   3.430  23.922  0.00  0.00    +0.009 A 
ATOM      9  C   UNL     1       9.274   4.817  24.085  0.00  0.00    +0.010 A 
ATOM     10  C   UNL     1       8.325   5.502  23.310  0.00  0.00    -0.000 A 
ATOM     11  C   UNL     1       7.940   6.866  23.185  0.00  0.00    +0.027 A 
ATOM     12  C   UNL     1       6.937   6.933  22.246  0.00  0.00    +0.083 A 
ATOM     13  N   UNL     1       6.690   5.661  21.805  0.00  0.00    -0.361 N 
ATOM     14  H   UNL     1       5.999   5.406  21.113  0.00  0.00    +0.165 HD
ATOM     15  C   UNL     1       7.539   4.770  22.424  0.00  0.00    +0.047 A 
ATOM     16  C   UNL     1       7.681   3.384  22.253  0.00  0.00    +0.034 A 
ENDBRANCH   3   7
BRANCH   1  17
ATOM     17  C   UNL     1       9.193  -1.999  24.825  0.00  0.00    +0.137 C 
BRANCH  17  18
ATOM     18  N   UNL     1       9.086  -3.366  24.314  0.00  0.00    -0.337 N 
ATOM     19  H   UNL     1      10.008  -3.798  24.296  0.00  0.00    +0.146 HD
BRANCH  18  24
ATOM     20  N   UNL     1       9.580  -5.008  26.765  0.00  0.00    -0.342 N 
ATOM     21  H   UNL     1       9.795  -4.048  27.023  0.00  0.00    +0.144 HD
ATOM     22  H   UNL     1       9.429  -5.586  27.587  0.00  0.00    +0.144 HD
ATOM     23  C   UNL     1       8.362  -5.007  26.080  0.00  0.00    +0.137 A 
ATOM     24  C   UNL     1       8.146  -4.226  24.924  0.00  0.00    +0.067 A 
ATOM     25  C   UNL     1       6.829  -4.204  24.440  0.00  0.00    +0.028 A 
ATOM     26  C   UNL     1       5.835  -4.977  25.036  0.00  0.00    +0.022 A 
ATOM     27  C   UNL     1       6.180  -5.749  26.128  0.00  0.00    +0.113 A 
ATOM     28  N   UNL     1       7.417  -5.777  26.660  0.00  0.00    -0.239 NA
ENDBRANCH  18  24
ENDBRANCH  17  18
ENDBRANCH   1  17
TORSDOF 4
ENDMDL
MODEL 4
REMARK VINA RESULT:      -7.4      1.924      7.795
REMARK  Name = 
REMARK  4 active torsions:
REMARK  status: ('A' for Active; 'I' for Inactive)
REMARK    1  A    between atoms: C_7  and  N_8
REMARK    2  A    between atoms: N_8  and  C_9
REMARK    3  A    between atoms: C_9  and  C_10
REMARK    4  A    between atoms: C_14  and  C_16
REMARK                            x       y       z     vdW  Elec       q    Type
REMARK                         _______ _______ _______ _____ _____    ______ ____
ROOT
ATOM      1  C   UNL     1       9.886   0.824  23.174  0.00  0.00    -0.030 A 
ATOM      2  C   UNL     1       9.332  -0.428  22.853  0.00  0.00    +0.013 A 
ATOM      3  C   UNL     1       9.054  -1.397  23.841  0.00  0.00    -0.018 A 
ATOM      4  C   UNL     1       9.348  -1.056  25.174  0.00  0.00    +0.008 A 
ATOM      5  C   UNL     1       9.926   0.174  25.504  0.00  0.00    +0.001 A 
ATOM      6  C   UNL     1      10.202   1.104  24.507  0.00  0.00    +0.005 A 
ENDROOT
BRANCH   3   7
ATOM      7  C   UNL     1       8.520  -2.736  23.478  0.00  0.00    -0.016 A 
ATOM      8  C   UNL     1       8.798  -3.871  24.260  0.00  0.00    +0.009 A 
ATOM      9  C   UNL     1       8.229  -5.127  23.992  0.00  0.00    +0.010 A 
ATOM     10  C   UNL     1       7.359  -5.268  22.900  0.00  0.00    -0.000 A 
ATOM     11  C   UNL     1       6.595  -6.345  22.370  0.00  0.00    +0.027 A 
ATOM     12  C   UNL     1       5.918  -5.874  21.268  0.00  0.00    +0.083 A 
ATOM     13  N   UNL     1       6.252  -4.557  21.102  0.00  0.00    -0.361 N 
ATOM     14  H   UNL     1       5.906  -3.954  20.368  0.00  0.00    +0.165 HD
ATOM     15  C   UNL     1       7.114  -4.157  22.098  0.00  0.00    +0.047 A 
ATOM     16  C   UNL     1       7.676  -2.897  22.359  0.00  0.00    +0.034 A 
ENDBRANCH   3   7
BRANCH   1  17
ATOM     17  C   UNL     1      10.178   1.844  22.092  0.00  0.00    +0.137 C 
BRANCH  17  18
ATOM     18  N   UNL     1       8.917   2.254  21.474  0.00  0.00    -0.337 N 
ATOM     19  H   UNL     1       8.541   1.486  20.922  0.00  0.00    +0.146 HD
BRANCH  18  24
ATOM     20  N   UNL     1       9.132   4.842  22.959  0.00  0.00    -0.342 N 
ATOM     21  H   UNL     1       9.307   5.063  21.982  0.00  0.00    +0.144 HD
ATOM     22  H   UNL     1       8.890   5.674  23.490  0.00  0.00    +0.144 HD
ATOM     23  C   UNL     1       8.004   4.019  23.019  0.00  0.00    +0.137 A 
ATOM     24  C   UNL     1       7.919   2.800  22.311  0.00  0.00    +0.067 A 
ATOM     25  C   UNL     1       6.669   2.164  22.339  0.00  0.00    +0.028 A 
ATOM     26  C   UNL     1       5.617   2.685  23.090  0.00  0.00    +0.022 A 
ATOM     27  C   UNL     1       5.838   3.855  23.790  0.00  0.00    +0.113 A 
ATOM     28  N   UNL     1       7.003   4.530  23.767  0.00  0.00    -0.239 NA
ENDBRANCH  18  24
ENDBRANCH  17  18
ENDBRANCH   1  17
TORSDOF 4
ENDMDL
MODEL 5
REMARK VINA RESULT:      -7.3      3.209      9.023
REMARK  Name = 
REMARK  4 active torsions:
REMARK  status: ('A' for Active; 'I' for Inactive)
REMARK    1  A    between atoms: C_7  and  N_8
REMARK    2  A    between atoms: N_8  and  C_9
REMARK    3  A    between atoms: C_9  and  C_10
REMARK    4  A    between atoms: C_14  and  C_16
REMARK                            x       y       z     vdW  Elec       q    Type
REMARK                         _______ _______ _______ _____ _____    ______ ____
ROOT
ATOM      1  C   UNL     1       8.492  -3.384  23.892  0.00  0.00    -0.030 A 
ATOM      2  C   UNL     1       7.276  -4.090  23.946  0.00  0.00    +0.013 A 
ATOM      3  C   UNL     1       7.018  -5.057  24.940  0.00  0.00    -0.018 A 
ATOM      4  C   UNL     1       8.029  -5.285  25.890  0.00  0.00    +0.008 A 
ATOM      5  C   UNL     1       9.254  -4.612  25.832  0.00  0.00    +0.001 A 
ATOM      6  C   UNL     1       9.486  -3.674  24.832  0.00  0.00    +0.005 A 
ENDROOT
BRANCH   3   7
ATOM      7  C   UNL     1       5.751  -5.833  24.948  0.00  0.00    -0.016 A 
ATOM      8  C   UNL     1       5.245  -6.399  26.133  0.00  0.00    +0.009 A 
ATOM      9  C   UNL     1       4.004  -7.054  26.184  0.00  0.00    +0.010 A 
ATOM     10  C   UNL     1       3.236  -7.164  25.014  0.00  0.00    -0.000 A 
ATOM     11  C   UNL     1       1.958  -7.709  24.712  0.00  0.00    +0.027 A 
ATOM     12  C   UNL     1       1.729  -7.518  23.368  0.00  0.00    +0.083 A 
ATOM     13  N   UNL     1       2.825  -6.890  22.842  0.00  0.00    -0.361 N 
ATOM     14  H   UNL     1       2.938  -6.625  21.873  0.00  0.00    +0.165 HD
ATOM     15  C   UNL     1       3.751  -6.643  23.831  0.00  0.00    +0.047 A 
ATOM     16  C   UNL     1       4.990  -5.985  23.769  0.00  0.00    +0.034 A 
ENDBRANCH   3   7
BRANCH   1  17
ATOM     17  C   UNL     1       8.744  -2.353  22.810  0.00  0.00    +0.137 C 
BRANCH  17  18
ATOM     18  N   UNL     1       9.959  -1.608  23.140  0.00  0.00    -0.337 N 
ATOM     19  H   UNL     1      10.716  -1.898  22.524  0.00  0.00    +0.146 HD
BRANCH  18  24
ATOM     20  N   UNL     1       9.912   0.023  25.647  0.00  0.00    -0.342 N 
ATOM     21  H   UNL     1      10.752  -0.547  25.699  0.00  0.00    +0.144 HD
ATOM     22  H   UNL     1       9.958   0.810  26.289  0.00  0.00    +0.144 HD
ATOM     23  C   UNL     1       9.851   0.585  24.369  0.00  0.00    +0.137 A 
ATOM     24  C   UNL     1       9.874  -0.199  23.196  0.00  0.00    +0.067 A 
ATOM     25  C   UNL     1       9.969   0.510  21.989  0.00  0.00    +0.028 A 
ATOM     26  C   UNL     1       9.961   1.903  21.975  0.00  0.00    +0.022 A 
ATOM     27  C   UNL     1       9.875   2.563  23.186  0.00  0.00    +0.113 A 
ATOM     28  N   UNL     1       9.823   1.936  24.376  0.00  0.00    -0.239 NA
ENDBRANCH  18  24
ENDBRANCH  17  18
ENDBRANCH   1  17
TORSDOF 4
ENDMDL
MODEL 6
REMARK VINA RESULT:      -7.3      2.179      2.820
REMARK  Name = 
REMARK  4 active torsions:
REMARK  status: ('A' for Active; 'I' for Inactive)
REMARK    1  A    between atoms: C_7  and  N_8
REMARK    2  A    between atoms: N_8  and  C_9
REMARK    3  A    between atoms: C_9  and  C_10
REMARK    4  A    between atoms: C_14  and  C_16
REMARK                            x       y       z     vdW  Elec       q    Type
REMARK                         _______ _______ _______ _____ _____    ______ ____
ROOT
ATOM      1  C   UNL     1       8.908  -1.739  24.390  0.00  0.00    -0.030 A 
ATOM      2  C   UNL     1       8.387  -0.464  24.106  0.00  0.00    +0.013 A 
ATOM      3  C   UNL     1       8.826   0.292  22.999  0.00  0.00    -0.018 A 
ATOM      4  C   UNL     1       9.809  -0.286  22.176  0.00  0.00    +0.008 A 
ATOM      5  C   UNL     1      10.358  -1.540  22.463  0.00  0.00    +0.001 A 
ATOM      6  C   UNL     1       9.916  -2.258  23.569  0.00  0.00    +0.005 A 
ENDROOT
BRANCH   3   7
ATOM      7  C   UNL     1       8.305   1.661  22.746  0.00  0.00    -0.016 A 
ATOM      8  C   UNL     1       7.005   1.870  22.249  0.00  0.00    +0.009 A 
ATOM      9  C   UNL     1       6.456   3.153  22.093  0.00  0.00    +0.010 A 
ATOM     10  C   UNL     1       7.228   4.276  22.431  0.00  0.00    -0.000 A 
ATOM     11  C   UNL     1       6.992   5.679  22.438  0.00  0.00    +0.027 A 
ATOM     12  C   UNL     1       8.141   6.294  22.881  0.00  0.00    +0.083 A 
ATOM     13  N   UNL     1       9.069   5.319  23.130  0.00  0.00    -0.361 N 
ATOM     14  H   UNL     1      10.009   5.478  23.465  0.00  0.00    +0.165 HD
ATOM     15  C   UNL     1       8.529   4.076  22.884  0.00  0.00    +0.047 A 
ATOM     16  C   UNL     1       9.086   2.797  23.046  0.00  0.00    +0.034 A 
ENDBRANCH   3   7
BRANCH   1  17
ATOM     17  C   UNL     1       8.422  -2.528  25.589  0.00  0.00    +0.137 C 
BRANCH  17  18
ATOM     18  N   UNL     1       8.546  -3.956  25.298  0.00  0.00    -0.337 N 
ATOM     19  H   UNL     1       9.244  -4.372  25.913  0.00  0.00    +0.146 HD
BRANCH  18  24
ATOM     20  N   UNL     1       7.711  -5.860  27.448  0.00  0.00    -0.342 N 
ATOM     21  H   UNL     1       7.855  -4.964  27.907  0.00  0.00    +0.144 HD
ATOM     22  H   UNL     1       7.149  -6.484  28.022  0.00  0.00    +0.144 HD
ATOM     23  C   UNL     1       6.958  -5.636  26.293  0.00  0.00    +0.137 A 
ATOM     24  C   UNL     1       7.367  -4.733  25.287  0.00  0.00    +0.067 A 
ATOM     25  C   UNL     1       6.434  -4.492  24.267  0.00  0.00    +0.028 A 
ATOM     26  C   UNL     1       5.220  -5.174  24.232  0.00  0.00    +0.022 A 
ATOM     27  C   UNL     1       4.955  -6.079  25.242  0.00  0.00    +0.113 A 
ATOM     28  N   UNL     1       5.794  -6.320  26.267  0.00  0.00    -0.239 NA
ENDBRANCH  18  24
ENDBRANCH  17  18
ENDBRANCH   1  17
TORSDOF 4
ENDMDL
MODEL 7
REMARK VINA RESULT:      -7.2      3.803      5.466
REMARK  Name = 
REMARK  4 active torsions:
REMARK  status: ('A' for Active; 'I' for Inactive)
REMARK    1  A    between atoms: C_7  and  N_8
REMARK    2  A    between atoms: N_8  and  C_9
REMARK    3  A    between atoms: C_9  and  C_10
REMARK    4  A    between atoms: C_14  and  C_16
REMARK                            x       y       z     vdW  Elec       q    Type
REMARK                         _______ _______ _______ _____ _____    ______ ____
ROOT
ATOM      1  C   UNL     1       6.916  -4.483  25.006  0.00  0.00    -0.030 A 
ATOM      2  C   UNL     1       7.563  -3.267  24.723  0.00  0.00    +0.013 A 
ATOM      3  C   UNL     1       7.844  -2.861  23.401  0.00  0.00    -0.018 A 
ATOM      4  C   UNL     1       7.440  -3.724  22.366  0.00  0.00    +0.008 A 
ATOM      5  C   UNL     1       6.823  -4.950  22.634  0.00  0.00    +0.001 A 
ATOM      6  C   UNL     1       6.571  -5.330  23.948  0.00  0.00    +0.005 A 
ENDROOT
BRANCH   3   7
ATOM      7  C   UNL     1       8.579  -1.600  23.123  0.00  0.00    -0.016 A 
ATOM      8  C   UNL     1       9.008  -1.273  21.824  0.00  0.00    +0.009 A 
ATOM      9  C   UNL     1       9.618  -0.045  21.519  0.00  0.00    +0.010 A 
ATOM     10  C   UNL     1       9.823   0.893  22.543  0.00  0.00    -0.000 A 
ATOM     11  C   UNL     1      10.359   2.210  22.592  0.00  0.00    +0.027 A 
ATOM     12  C   UNL     1      10.297   2.638  23.898  0.00  0.00    +0.083 A 
ATOM     13  N   UNL     1       9.756   1.626  24.645  0.00  0.00    -0.361 N 
ATOM     14  H   UNL     1       9.593   1.659  25.642  0.00  0.00    +0.165 HD
ATOM     15  C   UNL     1       9.438   0.557  23.837  0.00  0.00    +0.047 A 
ATOM     16  C   UNL     1       8.825  -0.666  24.152  0.00  0.00    +0.034 A 
ENDBRANCH   3   7
BRANCH   1  17
ATOM     17  C   UNL     1       6.631  -4.896  26.436  0.00  0.00    +0.137 C 
BRANCH  17  18
ATOM     18  N   UNL     1       6.122  -6.268  26.440  0.00  0.00    -0.337 N 
ATOM     19  H   UNL     1       6.895  -6.919  26.566  0.00  0.00    +0.146 HD
BRANCH  18  24
ATOM     20  N   UNL     1       6.440  -7.183  29.271  0.00  0.00    -0.342 N 
ATOM     21  H   UNL     1       6.949  -6.305  29.201  0.00  0.00    +0.144 HD
ATOM     22  H   UNL     1       6.238  -7.417  30.239  0.00  0.00    +0.144 HD
ATOM     23  C   UNL     1       5.195  -7.009  28.660  0.00  0.00    +0.137 A 
ATOM     24  C   UNL     1       5.063  -6.576  27.323  0.00  0.00    +0.067 A 
ATOM     25  C   UNL     1       3.756  -6.293  26.899  0.00  0.00    +0.028 A 
ATOM     26  C   UNL     1       2.668  -6.510  27.742  0.00  0.00    +0.022 A 
ATOM     27  C   UNL     1       2.917  -6.993  29.012  0.00  0.00    +0.113 A 
ATOM     28  N   UNL     1       4.153  -7.242  29.486  0.00  0.00    -0.239 NA
ENDBRANCH  18  24
ENDBRANCH  17  18
ENDBRANCH   1  17
TORSDOF 4
ENDMDL
MODEL 8
REMARK VINA RESULT:      -7.2      1.581      8.482
REMARK  Name = 
REMARK  4 active torsions:
REMARK  status: ('A' for Active; 'I' for Inactive)
REMARK    1  A    between atoms: C_7  and  N_8
REMARK    2  A    between atoms: N_8  and  C_9
REMARK    3  A    between atoms: C_9  and  C_10
REMARK    4  A    between atoms: C_14  and  C_16
REMARK                            x       y       z     vdW  Elec       q    Type
REMARK                         _______ _______ _______ _____ _____    ______ ____
ROOT
ATOM      1  C   UNL     1       8.955   1.511  23.160  0.00  0.00    -0.030 A 
ATOM      2  C   UNL     1       8.462   0.207  22.980  0.00  0.00    +0.013 A 
ATOM      3  C   UNL     1       9.029  -0.903  23.640  0.00  0.00    -0.018 A 
ATOM      4  C   UNL     1      10.113  -0.652  24.500  0.00  0.00    +0.008 A 
ATOM      5  C   UNL     1      10.633   0.635  24.666  0.00  0.00    +0.001 A 
ATOM      6  C   UNL     1      10.061   1.709  23.992  0.00  0.00    +0.005 A 
ENDROOT
BRANCH   3   7
ATOM      7  C   UNL     1       8.531  -2.282  23.394  0.00  0.00    -0.016 A 
ATOM      8  C   UNL     1       8.887  -3.351  24.236  0.00  0.00    +0.009 A 
ATOM      9  C   UNL     1       8.355  -4.641  24.082  0.00  0.00    +0.010 A 
ATOM     10  C   UNL     1       7.441  -4.888  23.045  0.00  0.00    -0.000 A 
ATOM     11  C   UNL     1       6.695  -6.024  22.627  0.00  0.00    +0.027 A 
ATOM     12  C   UNL     1       5.950  -5.655  21.530  0.00  0.00    +0.083 A 
ATOM     13  N   UNL     1       6.226  -4.341  21.260  0.00  0.00    -0.361 N 
ATOM     14  H   UNL     1       5.823  -3.803  20.505  0.00  0.00    +0.165 HD
ATOM     15  C   UNL     1       7.117  -3.843  22.184  0.00  0.00    +0.047 A 
ATOM     16  C   UNL     1       7.642  -2.550  22.331  0.00  0.00    +0.034 A 
ENDBRANCH   3   7
BRANCH   1  17
ATOM     17  C   UNL     1       8.329   2.686  22.434  0.00  0.00    +0.137 C 
BRANCH  17  18
ATOM     18  N   UNL     1       9.067   3.901  22.776  0.00  0.00    -0.337 N 
ATOM     19  H   UNL     1       9.523   4.270  21.944  0.00  0.00    +0.146 HD
BRANCH  18  24
ATOM     20  N   UNL     1       7.539   6.118  21.472  0.00  0.00    -0.342 N 
ATOM     21  H   UNL     1       7.154   5.255  21.099  0.00  0.00    +0.144 HD
ATOM     22  H   UNL     1       6.906   6.900  21.326  0.00  0.00    +0.144 HD
ATOM     23  C   UNL     1       7.647   5.978  22.858  0.00  0.00    +0.137 A 
ATOM     24  C   UNL     1       8.372   4.926  23.458  0.00  0.00    +0.067 A 
ATOM     25  C   UNL     1       8.259   4.822  24.852  0.00  0.00    +0.028 A 
ATOM     26  C   UNL     1       7.531   5.760  25.582  0.00  0.00    +0.022 A 
ATOM     27  C   UNL     1       6.912   6.783  24.890  0.00  0.00    +0.113 A 
ATOM     28  N   UNL     1       6.953   6.908  23.550  0.00  0.00    -0.239 NA
ENDBRANCH  18  24
ENDBRANCH  17  18
ENDBRANCH   1  17
TORSDOF 4
ENDMDL
MODEL 9
REMARK VINA RESULT:      -7.1      3.403      9.173
REMARK  Name = 
REMARK  4 active torsions:
REMARK  status: ('A' for Active; 'I' for Inactive)
REMARK    1  A    between atoms: C_7  and  N_8
REMARK    2  A    between atoms: N_8  and  C_9
REMARK    3  A    between atoms: C_9  and  C_10
REMARK    4  A    between atoms: C_14  and  C_16
REMARK                            x       y       z     vdW  Elec       q    Type
REMARK                         _______ _______ _______ _____ _____    ______ ____
ROOT
ATOM      1  C   UNL     1       8.252  -3.395  23.547  0.00  0.00    -0.030 A 
ATOM      2  C   UNL     1       6.988  -4.004  23.446  0.00  0.00    +0.013 A 
ATOM      3  C   UNL     1       6.501  -4.881  24.437  0.00  0.00    -0.018 A 
ATOM      4  C   UNL     1       7.333  -5.122  25.546  0.00  0.00    +0.008 A 
ATOM      5  C   UNL     1       8.604  -4.547  25.645  0.00  0.00    +0.001 A 
ATOM      6  C   UNL     1       9.064  -3.696  24.646  0.00  0.00    +0.005 A 
ENDROOT
BRANCH   3   7
ATOM      7  C   UNL     1       5.187  -5.559  24.286  0.00  0.00    -0.016 A 
ATOM      8  C   UNL     1       4.327  -5.260  23.214  0.00  0.00    +0.009 A 
ATOM      9  C   UNL     1       3.125  -5.954  22.996  0.00  0.00    +0.010 A 
ATOM     10  C   UNL     1       2.753  -6.977  23.883  0.00  0.00    -0.000 A 
ATOM     11  C   UNL     1       1.660  -7.885  23.949  0.00  0.00    +0.027 A 
ATOM     12  C   UNL     1       1.839  -8.673  25.064  0.00  0.00    +0.083 A 
ATOM     13  N   UNL     1       2.991  -8.268  25.683  0.00  0.00    -0.361 N 
ATOM     14  H   UNL     1       3.371  -8.668  26.529  0.00  0.00    +0.165 HD
ATOM     15  C   UNL     1       3.580  -7.247  24.969  0.00  0.00    +0.047 A 
ATOM     16  C   UNL     1       4.784  -6.562  25.194  0.00  0.00    +0.034 A 
ENDBRANCH   3   7
BRANCH   1  17
ATOM     17  C   UNL     1       8.753  -2.459  22.465  0.00  0.00    +0.137 C 
BRANCH  17  18
ATOM     18  N   UNL     1       8.204  -1.124  22.703  0.00  0.00    -0.337 N 
ATOM     19  H   UNL     1       7.463  -1.178  23.399  0.00  0.00    +0.146 HD
BRANCH  18  24
ATOM     20  N   UNL     1       8.728   1.284  21.008  0.00  0.00    -0.342 N 
ATOM     21  H   UNL     1       7.725   1.269  21.171  0.00  0.00    +0.144 HD
ATOM     22  H   UNL     1       9.040   2.202  20.704  0.00  0.00    +0.144 HD
ATOM     23  C   UNL     1       9.367   1.057  22.229  0.00  0.00    +0.137 A 
ATOM     24  C   UNL     1       9.108  -0.085  23.017  0.00  0.00    +0.067 A 
ATOM     25  C   UNL     1       9.701  -0.098  24.289  0.00  0.00    +0.028 A 
ATOM     26  C   UNL     1      10.550   0.931  24.692  0.00  0.00    +0.022 A 
ATOM     27  C   UNL     1      10.776   1.969  23.810  0.00  0.00    +0.113 A 
ATOM     28  N   UNL     1      10.202   2.054  22.594  0.00  0.00    -0.239 NA
ENDBRANCH  18  24
ENDBRANCH  17  18
ENDBRANCH   1  17
TORSDOF 4
ENDMDL
