MODEL 1
REMARK VINA RESULT:      -4.6      0.000      0.000
REMARK  Name = 
REMARK  6 active torsions:
REMARK  status: ('A' for Active; 'I' for Inactive)
REMARK    1  A    between atoms: N_4  and  CA_5
REMARK    2  A    between atoms: CA_5  and  CB_7
REMARK    3  A    between atoms: CA_5  and  C_11
REMARK    4  A    between atoms: CB_7  and  CG_8
REMARK    5  A    between atoms: CG_8  and  OD1_9
REMARK    6  A    between atoms: C_11  and  O_12
REMARK                            x       y       z     vdW  Elec       q    Type
REMARK                         _______ _______ _______ _____ _____    ______ ____
ROOT
ATOM      1  CA  ASP A   1       7.839  -4.330  24.461  0.00  0.00    +0.193 C 
ENDROOT
BRANCH   1   6
ATOM      2  N   UNK A   0       6.343  -6.440  21.920  0.00  0.00    -0.313 N 
ATOM      3  H   UNK A   0       6.864  -7.293  22.071  0.00  0.00    +0.146 HD
ATOM      4  H   UNK A   0       6.010  -6.334  20.968  0.00  0.00    +0.146 HD
ATOM      5  C   UNK A   0       6.861  -5.313  22.448  0.00  0.00    +0.298 C 
ATOM      6  N   ASP A   1       7.386  -5.489  23.690  0.00  0.00    -0.286 N 
ATOM      7  H   ASP A   1       7.015  -6.288  24.192  0.00  0.00    +0.151 HD
ATOM      8  O   UNK A   0       6.888  -4.242  21.856  0.00  0.00    -0.253 OA
ENDBRANCH   1   6
BRANCH   1   9
ATOM      9  C   ASP A   1       9.372  -4.249  24.527  0.00  0.00    +0.326 C 
ATOM     10  OXT ASP A   1      10.005  -3.271  24.135  0.00  0.00    -0.249 OA
BRANCH   9  11
ATOM     11  O   ASP A   1       9.984  -5.344  25.022  0.00  0.00    -0.479 OA
ATOM     12  H   ASP A   1      10.917  -5.447  24.704  0.00  0.00    +0.295 HD
ENDBRANCH   9  11
ENDBRANCH   1   9
BRANCH   1  13
ATOM     13  CB  ASP A   1       7.222  -4.228  25.855  0.00  0.00    +0.154 C 
BRANCH  13  14
ATOM     14  CG  ASP A   1       7.050  -5.519  26.613  0.00  0.00    +0.307 C 
ATOM     15  OD2 ASP A   1       6.056  -6.221  26.477  0.00  0.00    -0.251 OA
BRANCH  14  16
ATOM     16  OD1 ASP A   1       8.025  -5.841  27.481  0.00  0.00    -0.481 OA
ATOM     17  HD1 ASP A   1       7.855  -6.623  28.063  0.00  0.00    +0.295 HD
ENDBRANCH  14  16
ENDBRANCH  13  14
ENDBRANCH   1  13
TORSDOF 6
ENDMDL
MODEL 2
REMARK VINA RESULT:      -4.5      2.888      4.610
REMARK  Name = 
REMARK  6 active torsions:
REMARK  status: ('A' for Active; 'I' for Inactive)
REMARK    1  A    between atoms: N_4  and  CA_5
REMARK    2  A    between atoms: CA_5  and  CB_7
REMARK    3  A    between atoms: CA_5  and  C_11
REMARK    4  A    between atoms: CB_7  and  CG_8
REMARK    5  A    between atoms: CG_8  and  OD1_9
REMARK    6  A    between atoms: C_11  and  O_12
REMARK                            x       y       z     vdW  Elec       q    Type
REMARK                         _______ _______ _______ _____ _____    ______ ____
ROOT
ATOM      1  CA  ASP A   1       6.526  -5.504  27.727  0.00  0.00    +0.193 C 
ENDROOT
BRANCH   1   6
ATOM      2  N   UNK A   0       9.521  -5.723  25.696  0.00  0.00    -0.313 N 
ATOM      3  H   UNK A   0       9.904  -6.593  26.040  0.00  0.00    +0.146 HD
ATOM      4  H   UNK A   0      10.225  -5.087  25.339  0.00  0.00    +0.146 HD
ATOM      5  C   UNK A   0       8.583  -5.130  26.460  0.00  0.00    +0.298 C 
ATOM      6  N   ASP A   1       7.697  -6.005  27.006  0.00  0.00    -0.286 N 
ATOM      7  H   ASP A   1       7.617  -6.885  26.509  0.00  0.00    +0.151 HD
ATOM      8  O   UNK A   0       8.549  -3.925  26.671  0.00  0.00    -0.253 OA
ENDBRANCH   1   6
BRANCH   1   9
ATOM      9  C   ASP A   1       6.190  -6.371  28.950  0.00  0.00    +0.326 C 
ATOM     10  OXT ASP A   1       6.360  -5.988  30.105  0.00  0.00    -0.249 OA
BRANCH   9  11
ATOM     11  O   ASP A   1       5.718  -7.602  28.668  0.00  0.00    -0.479 OA
ATOM     12  H   ASP A   1       6.084  -7.979  27.828  0.00  0.00    +0.295 HD
ENDBRANCH   9  11
ENDBRANCH   1   9
BRANCH   1  13
ATOM     13  CB  ASP A   1       5.295  -5.291  26.847  0.00  0.00    +0.154 C 
BRANCH  13  14
ATOM     14  CG  ASP A   1       5.091  -6.275  25.723  0.00  0.00    +0.307 C 
ATOM     15  OD2 ASP A   1       5.536  -6.073  24.600  0.00  0.00    -0.251 OA
BRANCH  14  16
ATOM     16  OD1 ASP A   1       4.358  -7.366  26.003  0.00  0.00    -0.481 OA
ATOM     17  HD1 ASP A   1       4.682  -7.935  26.745  0.00  0.00    +0.295 HD
ENDBRANCH  14  16
ENDBRANCH  13  14
ENDBRANCH   1  13
TORSDOF 6
ENDMDL
MODEL 3
REMARK VINA RESULT:      -4.4      2.013      3.827
REMARK  Name = 
REMARK  6 active torsions:
REMARK  status: ('A' for Active; 'I' for Inactive)
REMARK    1  A    between atoms: N_4  and  CA_5
REMARK    2  A    between atoms: CA_5  and  CB_7
REMARK    3  A    between atoms: CA_5  and  C_11
REMARK    4  A    between atoms: CB_7  and  CG_8
REMARK    5  A    between atoms: CG_8  and  OD1_9
REMARK    6  A    between atoms: C_11  and  O_12
REMARK                            x       y       z     vdW  Elec       q    Type
REMARK                         _______ _______ _______ _____ _____    ______ ____
ROOT
ATOM      1  CA  ASP A   1       7.511  -5.051  23.019  0.00  0.00    +0.193 C 
ENDROOT
BRANCH   1   6
ATOM      2  N   UNK A   0       8.182  -5.662  26.529  0.00  0.00    -0.313 N 
ATOM      3  H   UNK A   0       7.443  -5.113  26.947  0.00  0.00    +0.146 HD
ATOM      4  H   UNK A   0       8.997  -5.761  27.124  0.00  0.00    +0.146 HD
ATOM      5  C   UNK A   0       8.471  -5.403  25.239  0.00  0.00    +0.298 C 
ATOM      6  N   ASP A   1       7.372  -5.185  24.470  0.00  0.00    -0.286 N 
ATOM      7  H   ASP A   1       6.517  -5.587  24.837  0.00  0.00    +0.151 HD
ATOM      8  O   UNK A   0       9.615  -5.337  24.806  0.00  0.00    -0.253 OA
ENDBRANCH   1   6
BRANCH   1   9
ATOM      9  C   ASP A   1       7.503  -3.580  22.575  0.00  0.00    +0.326 C 
ATOM     10  OXT ASP A   1       8.401  -2.792  22.861  0.00  0.00    -0.249 OA
BRANCH   9  11
ATOM     11  O   ASP A   1       6.419  -3.201  21.866  0.00  0.00    -0.479 OA
ATOM     12  H   ASP A   1       5.587  -3.183  22.404  0.00  0.00    +0.295 HD
ENDBRANCH   9  11
ENDBRANCH   1   9
BRANCH   1  13
ATOM     13  CB  ASP A   1       6.505  -5.875  22.217  0.00  0.00    +0.154 C 
BRANCH  13  14
ATOM     14  CG  ASP A   1       5.134  -6.039  22.821  0.00  0.00    +0.307 C 
ATOM     15  OD2 ASP A   1       4.250  -5.209  22.653  0.00  0.00    -0.251 OA
BRANCH  14  16
ATOM     16  OD1 ASP A   1       4.942  -7.124  23.591  0.00  0.00    -0.481 OA
ATOM     17  HD1 ASP A   1       4.163  -7.691  23.368  0.00  0.00    +0.295 HD
ENDBRANCH  14  16
ENDBRANCH  13  14
ENDBRANCH   1  13
TORSDOF 6
ENDMDL
MODEL 4
REMARK VINA RESULT:      -4.4      5.313      6.799
REMARK  Name = 
REMARK  6 active torsions:
REMARK  status: ('A' for Active; 'I' for Inactive)
REMARK    1  A    between atoms: N_4  and  CA_5
REMARK    2  A    between atoms: CA_5  and  CB_7
REMARK    3  A    between atoms: CA_5  and  C_11
REMARK    4  A    between atoms: CB_7  and  CG_8
REMARK    5  A    between atoms: CG_8  and  OD1_9
REMARK    6  A    between atoms: C_11  and  O_12
REMARK                            x       y       z     vdW  Elec       q    Type
REMARK                         _______ _______ _______ _____ _____    ______ ____
ROOT
ATOM      1  CA  ASP A   1       9.645   0.987  23.589  0.00  0.00    +0.193 C 
ENDROOT
BRANCH   1   6
ATOM      2  N   UNK A   0       6.049   0.517  23.623  0.00  0.00    -0.313 N 
ATOM      3  H   UNK A   0       5.872   0.450  22.630  0.00  0.00    +0.146 HD
ATOM      4  H   UNK A   0       5.259   0.870  24.151  0.00  0.00    +0.146 HD
ATOM      5  C   UNK A   0       7.234   1.044  23.991  0.00  0.00    +0.298 C 
ATOM      6  N   ASP A   1       8.274   0.632  23.218  0.00  0.00    -0.286 N 
ATOM      7  H   ASP A   1       8.116  -0.247  22.738  0.00  0.00    +0.151 HD
ATOM      8  O   UNK A   0       7.360   1.842  24.911  0.00  0.00    -0.253 OA
ENDBRANCH   1   6
BRANCH   1   9
ATOM      9  C   ASP A   1      10.171   2.177  22.771  0.00  0.00    +0.326 C 
ATOM     10  OXT ASP A   1      10.749   3.133  23.282  0.00  0.00    -0.249 OA
BRANCH   9  11
ATOM     11  O   ASP A   1       9.928   2.114  21.446  0.00  0.00    -0.479 OA
ATOM     12  H   ASP A   1      10.118   1.223  21.056  0.00  0.00    +0.295 HD
ENDBRANCH   9  11
ENDBRANCH   1   9
BRANCH   1  13
ATOM     13  CB  ASP A   1      10.625  -0.184  23.551  0.00  0.00    +0.154 C 
BRANCH  13  14
ATOM     14  CG  ASP A   1      10.290  -1.313  22.609  0.00  0.00    +0.307 C 
ATOM     15  OD2 ASP A   1      10.368  -2.486  22.953  0.00  0.00    -0.251 OA
BRANCH  14  16
ATOM     16  OD1 ASP A   1       9.943  -0.970  21.357  0.00  0.00    -0.481 OA
ATOM     17  HD1 ASP A   1       9.207  -0.315  21.268  0.00  0.00    +0.295 HD
ENDBRANCH  14  16
ENDBRANCH  13  14
ENDBRANCH   1  13
TORSDOF 6
ENDMDL
MODEL 5
REMARK VINA RESULT:      -4.4      1.322      1.989
REMARK  Name = 
REMARK  6 active torsions:
REMARK  status: ('A' for Active; 'I' for Inactive)
REMARK    1  A    between atoms: N_4  and  CA_5
REMARK    2  A    between atoms: CA_5  and  CB_7
REMARK    3  A    between atoms: CA_5  and  C_11
REMARK    4  A    between atoms: CB_7  and  CG_8
REMARK    5  A    between atoms: CG_8  and  OD1_9
REMARK    6  A    between atoms: C_11  and  O_12
REMARK                            x       y       z     vdW  Elec       q    Type
REMARK                         _______ _______ _______ _____ _____    ______ ____
ROOT
ATOM      1  CA  ASP A   1       7.466  -3.745  23.733  0.00  0.00    +0.193 C 
ENDROOT
BRANCH   1   6
ATOM      2  N   UNK A   0       5.964  -6.362  21.723  0.00  0.00    -0.313 N 
ATOM      3  H   UNK A   0       6.798  -6.817  21.376  0.00  0.00    +0.146 HD
ATOM      4  H   UNK A   0       5.165  -6.460  21.107  0.00  0.00    +0.146 HD
ATOM      5  C   UNK A   0       6.118  -5.123  22.231  0.00  0.00    +0.298 C 
ATOM      6  N   ASP A   1       7.241  -4.981  22.983  0.00  0.00    -0.286 N 
ATOM      7  H   ASP A   1       7.604  -5.848  23.362  0.00  0.00    +0.151 HD
ATOM      8  O   UNK A   0       5.340  -4.204  22.010  0.00  0.00    -0.253 OA
ENDBRANCH   1   6
BRANCH   1   9
ATOM      9  C   ASP A   1       8.482  -2.827  23.036  0.00  0.00    +0.326 C 
ATOM     10  OXT ASP A   1       8.187  -2.105  22.087  0.00  0.00    -0.249 OA
BRANCH   9  11
ATOM     11  O   ASP A   1       9.739  -2.888  23.523  0.00  0.00    -0.479 OA
ATOM     12  H   ASP A   1      10.178  -2.002  23.583  0.00  0.00    +0.295 HD
ENDBRANCH   9  11
ENDBRANCH   1   9
BRANCH   1  13
ATOM     13  CB  ASP A   1       7.835  -3.962  25.199  0.00  0.00    +0.154 C 
BRANCH  13  14
ATOM     14  CG  ASP A   1       8.592  -5.225  25.524  0.00  0.00    +0.307 C 
ATOM     15  OD2 ASP A   1       9.486  -5.646  24.801  0.00  0.00    -0.251 OA
BRANCH  14  16
ATOM     16  OD1 ASP A   1       8.206  -5.891  26.626  0.00  0.00    -0.481 OA
ATOM     17  HD1 ASP A   1       7.256  -6.164  26.666  0.00  0.00    +0.295 HD
ENDBRANCH  14  16
ENDBRANCH  13  14
ENDBRANCH   1  13
TORSDOF 6
ENDMDL
MODEL 6
REMARK VINA RESULT:      -4.4      4.268      6.101
REMARK  Name = 
REMARK  6 active torsions:
REMARK  status: ('A' for Active; 'I' for Inactive)
REMARK    1  A    between atoms: N_4  and  CA_5
REMARK    2  A    between atoms: CA_5  and  CB_7
REMARK    3  A    between atoms: CA_5  and  C_11
REMARK    4  A    between atoms: CB_7  and  CG_8
REMARK    5  A    between atoms: CG_8  and  OD1_9
REMARK    6  A    between atoms: C_11  and  O_12
REMARK                            x       y       z     vdW  Elec       q    Type
REMARK                         _______ _______ _______ _____ _____    ______ ____
ROOT
ATOM      1  CA  ASP A   1      10.111  -0.770  23.458  0.00  0.00    +0.193 C 
ENDROOT
BRANCH   1   6
ATOM      2  N   UNK A   0       7.771  -3.432  24.222  0.00  0.00    -0.313 N 
ATOM      3  H   UNK A   0       7.084  -2.915  24.753  0.00  0.00    +0.146 HD
ATOM      4  H   UNK A   0       7.817  -4.414  24.470  0.00  0.00    +0.146 HD
ATOM      5  C   UNK A   0       8.975  -2.849  24.060  0.00  0.00    +0.298 C 
ATOM      6  N   ASP A   1       8.902  -1.514  23.815  0.00  0.00    -0.286 N 
ATOM      7  H   ASP A   1       8.015  -1.206  23.432  0.00  0.00    +0.151 HD
ATOM      8  O   UNK A   0      10.035  -3.454  24.157  0.00  0.00    -0.253 OA
ENDBRANCH   1   6
BRANCH   1   9
ATOM      9  C   ASP A   1      10.468   0.287  24.515  0.00  0.00    +0.326 C 
ATOM     10  OXT ASP A   1      11.520   0.922  24.494  0.00  0.00    -0.249 OA
BRANCH   9  11
ATOM     11  O   ASP A   1       9.553   0.453  25.492  0.00  0.00    -0.479 OA
ATOM     12  H   ASP A   1       8.846   1.108  25.258  0.00  0.00    +0.295 HD
ENDBRANCH   9  11
ENDBRANCH   1   9
BRANCH   1  13
ATOM     13  CB  ASP A   1      10.078  -0.160  22.057  0.00  0.00    +0.154 C 
BRANCH  13  14
ATOM     14  CG  ASP A   1       9.195   1.047  21.868  0.00  0.00    +0.307 C 
ATOM     15  OD2 ASP A   1       7.986   1.000  22.062  0.00  0.00    -0.251 OA
BRANCH  14  16
ATOM     16  OD1 ASP A   1       9.794   2.169  21.434  0.00  0.00    -0.481 OA
ATOM     17  HD1 ASP A   1      10.336   2.664  22.097  0.00  0.00    +0.295 HD
ENDBRANCH  14  16
ENDBRANCH  13  14
ENDBRANCH   1  13
TORSDOF 6
ENDMDL
MODEL 7
REMARK VINA RESULT:      -4.4      4.639      5.996
REMARK  Name = 
REMARK  6 active torsions:
REMARK  status: ('A' for Active; 'I' for Inactive)
REMARK    1  A    between atoms: N_4  and  CA_5
REMARK    2  A    between atoms: CA_5  and  CB_7
REMARK    3  A    between atoms: CA_5  and  C_11
REMARK    4  A    between atoms: CB_7  and  CG_8
REMARK    5  A    between atoms: CG_8  and  OD1_9
REMARK    6  A    between atoms: C_11  and  O_12
REMARK                            x       y       z     vdW  Elec       q    Type
REMARK                         _______ _______ _______ _____ _____    ______ ____
ROOT
ATOM      1  CA  ASP A   1       9.371  -0.648  23.618  0.00  0.00    +0.193 C 
ENDROOT
BRANCH   1   6
ATOM      2  N   UNK A   0       9.845   2.468  21.825  0.00  0.00    -0.313 N 
ATOM      3  H   UNK A   0       9.851   2.124  20.874  0.00  0.00    +0.146 HD
ATOM      4  H   UNK A   0      10.376   3.323  21.948  0.00  0.00    +0.146 HD
ATOM      5  C   UNK A   0      10.038   1.557  22.799  0.00  0.00    +0.298 C 
ATOM      6  N   ASP A   1       9.392   0.381  22.577  0.00  0.00    -0.286 N 
ATOM      7  H   ASP A   1       8.596   0.452  21.953  0.00  0.00    +0.151 HD
ATOM      8  O   UNK A   0      10.753   1.753  23.773  0.00  0.00    -0.253 OA
ENDBRANCH   1   6
BRANCH   1   9
ATOM      9  C   ASP A   1      10.073  -1.937  23.164  0.00  0.00    +0.326 C 
ATOM     10  OXT ASP A   1      10.146  -2.941  23.869  0.00  0.00    -0.249 OA
BRANCH   9  11
ATOM     11  O   ASP A   1      10.634  -1.884  21.938  0.00  0.00    -0.479 OA
ATOM     12  H   ASP A   1      11.625  -1.877  21.961  0.00  0.00    +0.295 HD
ENDBRANCH   9  11
ENDBRANCH   1   9
BRANCH   1  13
ATOM     13  CB  ASP A   1       7.980  -0.945  24.175  0.00  0.00    +0.154 C 
BRANCH  13  14
ATOM     14  CG  ASP A   1       6.840  -0.919  23.190  0.00  0.00    +0.307 C 
ATOM     15  OD2 ASP A   1       6.379  -1.946  22.708  0.00  0.00    -0.251 OA
BRANCH  14  16
ATOM     16  OD1 ASP A   1       6.381   0.293  22.831  0.00  0.00    -0.481 OA
ATOM     17  HD1 ASP A   1       5.967   0.836  23.546  0.00  0.00    +0.295 HD
ENDBRANCH  14  16
ENDBRANCH  13  14
ENDBRANCH   1  13
TORSDOF 6
ENDMDL
MODEL 8
REMARK VINA RESULT:      -4.4      4.547      6.531
REMARK  Name = 
REMARK  6 active torsions:
REMARK  status: ('A' for Active; 'I' for Inactive)
REMARK    1  A    between atoms: N_4  and  CA_5
REMARK    2  A    between atoms: CA_5  and  CB_7
REMARK    3  A    between atoms: CA_5  and  C_11
REMARK    4  A    between atoms: CB_7  and  CG_8
REMARK    5  A    between atoms: CG_8  and  OD1_9
REMARK    6  A    between atoms: C_11  and  O_12
REMARK                            x       y       z     vdW  Elec       q    Type
REMARK                         _______ _______ _______ _____ _____    ______ ____
ROOT
ATOM      1  CA  ASP A   1       9.037  -0.774  23.736  0.00  0.00    +0.193 C 
ENDROOT
BRANCH   1   6
ATOM      2  N   UNK A   0       9.188  -0.474  27.346  0.00  0.00    -0.313 N 
ATOM      3  H   UNK A   0      10.188  -0.412  27.476  0.00  0.00    +0.146 HD
ATOM      4  H   UNK A   0       8.701  -0.865  28.145  0.00  0.00    +0.146 HD
ATOM      5  C   UNK A   0       8.760  -0.946  26.159  0.00  0.00    +0.298 C 
ATOM      6  N   ASP A   1       9.478  -0.483  25.101  0.00  0.00    -0.286 N 
ATOM      7  H   ASP A   1       9.965   0.389  25.275  0.00  0.00    +0.151 HD
ATOM      8  O   UNK A   0       7.835  -1.740  26.043  0.00  0.00    -0.253 OA
ENDBRANCH   1   6
BRANCH   1   9
ATOM      9  C   ASP A   1       9.941  -1.812  23.051  0.00  0.00    +0.326 C 
ATOM     10  OXT ASP A   1      10.405  -2.784  23.641  0.00  0.00    -0.249 OA
BRANCH   9  11
ATOM     11  O   ASP A   1      10.214  -1.566  21.753  0.00  0.00    -0.479 OA
ATOM     12  H   ASP A   1      10.834  -0.804  21.621  0.00  0.00    +0.295 HD
ENDBRANCH   9  11
ENDBRANCH   1   9
BRANCH   1  13
ATOM     13  CB  ASP A   1       8.858   0.464  22.860  0.00  0.00    +0.154 C 
BRANCH  13  14
ATOM     14  CG  ASP A   1      10.015   1.429  22.810  0.00  0.00    +0.307 C 
ATOM     15  OD2 ASP A   1      10.711   1.655  23.793  0.00  0.00    -0.251 OA
BRANCH  14  16
ATOM     16  OD1 ASP A   1      10.220   2.063  21.643  0.00  0.00    -0.481 OA
ATOM     17  HD1 ASP A   1       9.486   2.017  20.982  0.00  0.00    +0.295 HD
ENDBRANCH  14  16
ENDBRANCH  13  14
ENDBRANCH   1  13
TORSDOF 6
ENDMDL
MODEL 9
REMARK VINA RESULT:      -4.3      2.282      4.029
REMARK  Name = 
REMARK  6 active torsions:
REMARK  status: ('A' for Active; 'I' for Inactive)
REMARK    1  A    between atoms: N_4  and  CA_5
REMARK    2  A    between atoms: CA_5  and  CB_7
REMARK    3  A    between atoms: CA_5  and  C_11
REMARK    4  A    between atoms: CB_7  and  CG_8
REMARK    5  A    between atoms: CG_8  and  OD1_9
REMARK    6  A    between atoms: C_11  and  O_12
REMARK                            x       y       z     vdW  Elec       q    Type
REMARK                         _______ _______ _______ _____ _____    ______ ____
ROOT
ATOM      1  CA  ASP A   1       8.104  -3.913  23.311  0.00  0.00    +0.193 C 
ENDROOT
BRANCH   1   6
ATOM      2  N   UNK A   0       8.383  -5.767  26.414  0.00  0.00    -0.313 N 
ATOM      3  H   UNK A   0       7.689  -5.284  26.970  0.00  0.00    +0.146 HD
ATOM      4  H   UNK A   0       9.123  -6.184  26.967  0.00  0.00    +0.146 HD
ATOM      5  C   UNK A   0       8.815  -5.136  25.304  0.00  0.00    +0.298 C 
ATOM      6  N   ASP A   1       7.824  -4.506  24.619  0.00  0.00    -0.286 N 
ATOM      7  H   ASP A   1       6.895  -4.872  24.794  0.00  0.00    +0.151 HD
ATOM      8  O   UNK A   0       9.990  -5.104  24.962  0.00  0.00    -0.253 OA
ENDBRANCH   1   6
BRANCH   1   9
ATOM      9  C   ASP A   1       8.628  -2.474  23.432  0.00  0.00    +0.326 C 
ATOM     10  OXT ASP A   1       7.895  -1.490  23.359  0.00  0.00    -0.249 OA
BRANCH   9  11
ATOM     11  O   ASP A   1       9.961  -2.360  23.598  0.00  0.00    -0.479 OA
ATOM     12  H   ASP A   1      10.421  -3.235  23.679  0.00  0.00    +0.295 HD
ENDBRANCH   9  11
ENDBRANCH   1   9
BRANCH   1  13
ATOM     13  CB  ASP A   1       6.939  -3.995  22.326  0.00  0.00    +0.154 C 
BRANCH  13  14
ATOM     14  CG  ASP A   1       6.707  -5.330  21.665  0.00  0.00    +0.307 C 
ATOM     15  OD2 ASP A   1       7.209  -6.360  22.096  0.00  0.00    -0.251 OA
BRANCH  14  16
ATOM     16  OD1 ASP A   1       5.955  -5.327  20.551  0.00  0.00    -0.481 OA
ATOM     17  HD1 ASP A   1       5.741  -6.211  20.162  0.00  0.00    +0.295 HD
ENDBRANCH  14  16
ENDBRANCH  13  14
ENDBRANCH   1  13
TORSDOF 6
ENDMDL
