MODEL 1
REMARK VINA RESULT:      -6.8      0.000      0.000
REMARK  Name = 
REMARK  11 active torsions:
REMARK  status: ('A' for Active; 'I' for Inactive)
REMARK    1  A    between atoms: C_2  and  C_3
REMARK    2  A    between atoms: C_2  and  N_15
REMARK    3  A    between atoms: C_2  and  C_29
REMARK    4  A    between atoms: C_3  and  S_4
REMARK    5  A    between atoms: S_4  and  C_7
REMARK    6  A    between atoms: C_7  and  C_8
REMARK    7  A    between atoms: N_15  and  C_16
REMARK    8  A    between atoms: C_16  and  C_18
REMARK    9  A    between atoms: C_16  and  C_25
REMARK   10  A    between atoms: N_31  and  C_32
REMARK   11  A    between atoms: C_32  and  C_35
REMARK                            x       y       z     vdW  Elec       q    Type
REMARK                         _______ _______ _______ _____ _____    ______ ____
ROOT
ATOM      1  C   UNL     1       7.437  -4.447  25.281  0.00  0.00    +0.162 C 
ENDROOT
BRANCH   1   2
ATOM      2  C   UNL     1       6.797  -5.198  26.501  0.00  0.00    +0.233 C 
ATOM      3  N   UNL     1       5.552  -4.738  26.888  0.00  0.00    -0.296 N 
ATOM      4  H   UNL     1       5.144  -3.916  26.469  0.00  0.00    +0.150 HD
ATOM      5  O   UNL     1       7.368  -6.106  27.101  0.00  0.00    -0.274 OA
BRANCH   3   6
ATOM      6  C   UNL     1       4.769  -5.347  27.936  0.00  0.00    +0.121 C 
ATOM      7  C   UNL     1       3.933  -6.594  27.703  0.00  0.00    +0.044 C 
ATOM      8  C   UNL     1       3.254  -5.264  27.744  0.00  0.00    +0.044 C 
BRANCH   6   9
ATOM      9  C   UNL     1       5.270  -5.131  29.273  0.00  0.00    +0.088 C 
ATOM     10  N   UNL     1       5.727  -4.967  30.332  0.00  0.00    -0.194 NA
ENDBRANCH   6   9
ENDBRANCH   3   6
ENDBRANCH   1   2
BRANCH   1  11
ATOM     11  N   UNL     1       6.403  -4.277  24.233  0.00  0.00    -0.290 NA
ATOM     12  H   UNL     1       6.666  -3.512  23.598  0.00  0.00    +0.124 HD
BRANCH  11  13
ATOM     13  C   UNL     1       6.023  -5.469  23.424  0.00  0.00    +0.190 C 
BRANCH  13  14
ATOM     14  C   UNL     1       4.561  -5.825  23.664  0.00  0.00    -0.022 A 
ATOM     15  C   UNL     1       4.192  -7.108  24.104  0.00  0.00    +0.008 A 
ATOM     16  C   UNL     1       2.846  -7.418  24.314  0.00  0.00    +0.038 A 
ATOM     17  C   UNL     1       1.872  -6.452  24.084  0.00  0.00    +0.123 A 
ATOM     18  F   UNL     1       0.584  -6.758  24.282  0.00  0.00    -0.205 F 
ATOM     19  C   UNL     1       2.215  -5.179  23.652  0.00  0.00    +0.038 A 
ATOM     20  C   UNL     1       3.557  -4.863  23.447  0.00  0.00    +0.008 A 
ENDBRANCH  13  14
BRANCH  13  21
ATOM     21  C   UNL     1       6.361  -5.372  21.887  0.00  0.00    +0.409 C 
ATOM     22  F   UNL     1       7.635  -5.707  21.586  0.00  0.00    -0.169 F 
ATOM     23  F   UNL     1       6.172  -4.100  21.449  0.00  0.00    -0.169 F 
ATOM     24  F   UNL     1       5.551  -6.168  21.147  0.00  0.00    -0.169 F 
ENDBRANCH  13  21
ENDBRANCH  11  13
ENDBRANCH   1  11
BRANCH   1  25
ATOM     25  C   UNL     1       8.164  -3.162  25.700  0.00  0.00    +0.194 C 
BRANCH  25  26
ATOM     26  S   UNL     1       8.946  -2.337  24.331  0.00  0.00    -0.027 S 
ATOM     27  O   UNL     1       7.938  -2.032  23.344  0.00  0.00    -0.174 OA
ATOM     28  O   UNL     1      10.137  -3.087  23.984  0.00  0.00    -0.174 OA
BRANCH  26  29
ATOM     29  C   UNL     1       9.471  -0.800  25.046  0.00  0.00    +0.188 C 
BRANCH  29  30
ATOM     30  C   UNL     1      10.520  -0.129  24.162  0.00  0.00    +0.094 C 
ATOM     31  N   UNL     1      10.267  -0.304  22.757  0.00  0.00    -0.311 N 
ATOM     32  H   UNL     1      10.376  -1.174  22.242  0.00  0.00    +0.149 HD
ATOM     33  C   UNL     1       9.588   0.754  22.191  0.00  0.00    +0.213 C 
ATOM     34  O   UNL     1       9.132   0.783  21.065  0.00  0.00    -0.276 OA
ATOM     35  C   UNL     1       9.436   1.817  23.249  0.00  0.00    +0.097 C 
ATOM     36  C   UNL     1      10.460   1.391  24.302  0.00  0.00    +0.033 C 
ENDBRANCH  29  30
ENDBRANCH  26  29
ENDBRANCH  25  26
ENDBRANCH   1  25
TORSDOF 11
ENDMDL
MODEL 2
REMARK VINA RESULT:      -6.5      1.991      2.305
REMARK  Name = 
REMARK  11 active torsions:
REMARK  status: ('A' for Active; 'I' for Inactive)
REMARK    1  A    between atoms: C_2  and  C_3
REMARK    2  A    between atoms: C_2  and  N_15
REMARK    3  A    between atoms: C_2  and  C_29
REMARK    4  A    between atoms: C_3  and  S_4
REMARK    5  A    between atoms: S_4  and  C_7
REMARK    6  A    between atoms: C_7  and  C_8
REMARK    7  A    between atoms: N_15  and  C_16
REMARK    8  A    between atoms: C_16  and  C_18
REMARK    9  A    between atoms: C_16  and  C_25
REMARK   10  A    between atoms: N_31  and  C_32
REMARK   11  A    between atoms: C_32  and  C_35
REMARK                            x       y       z     vdW  Elec       q    Type
REMARK                         _______ _______ _______ _____ _____    ______ ____
ROOT
ATOM      1  C   UNL     1       8.002  -3.558  24.445  0.00  0.00    +0.162 C 
ENDROOT
BRANCH   1   2
ATOM      2  C   UNL     1       7.224  -3.218  25.765  0.00  0.00    +0.233 C 
ATOM      3  N   UNL     1       6.096  -2.437  25.599  0.00  0.00    -0.296 N 
ATOM      4  H   UNL     1       5.859  -2.043  24.702  0.00  0.00    +0.150 HD
ATOM      5  O   UNL     1       7.604  -3.582  26.876  0.00  0.00    -0.274 OA
BRANCH   3   6
ATOM      6  C   UNL     1       5.207  -2.083  26.680  0.00  0.00    +0.121 C 
ATOM      7  C   UNL     1       4.393  -3.122  27.433  0.00  0.00    +0.044 C 
ATOM      8  C   UNL     1       3.720  -2.291  26.389  0.00  0.00    +0.044 C 
BRANCH   6   9
ATOM      9  C   UNL     1       5.571  -0.885  27.399  0.00  0.00    +0.088 C 
ATOM     10  N   UNL     1       5.917   0.061  27.984  0.00  0.00    -0.194 NA
ENDBRANCH   6   9
ENDBRANCH   3   6
ENDBRANCH   1   2
BRANCH   1  11
ATOM     11  N   UNL     1       7.020  -3.718  23.345  0.00  0.00    -0.290 NA
ATOM     12  H   UNL     1       7.392  -3.309  22.479  0.00  0.00    +0.124 HD
BRANCH  11  13
ATOM     13  C   UNL     1       6.512  -5.088  23.055  0.00  0.00    +0.190 C 
BRANCH  13  14
ATOM     14  C   UNL     1       5.185  -5.320  23.767  0.00  0.00    -0.022 A 
ATOM     15  C   UNL     1       5.083  -6.244  24.821  0.00  0.00    +0.008 A 
ATOM     16  C   UNL     1       3.857  -6.447  25.460  0.00  0.00    +0.038 A 
ATOM     17  C   UNL     1       2.738  -5.733  25.047  0.00  0.00    +0.123 A 
ATOM     18  F   UNL     1       1.565  -5.937  25.661  0.00  0.00    -0.205 F 
ATOM     19  C   UNL     1       2.817  -4.814  24.011  0.00  0.00    +0.038 A 
ATOM     20  C   UNL     1       4.040  -4.603  23.374  0.00  0.00    +0.008 A 
ENDBRANCH  13  14
BRANCH  13  21
ATOM     21  C   UNL     1       6.432  -5.464  21.525  0.00  0.00    +0.409 C 
ATOM     22  F   UNL     1       7.597  -5.919  21.013  0.00  0.00    -0.169 F 
ATOM     23  F   UNL     1       6.080  -4.373  20.797  0.00  0.00    -0.169 F 
ATOM     24  F   UNL     1       5.493  -6.413  21.292  0.00  0.00    -0.169 F 
ENDBRANCH  13  21
ENDBRANCH  11  13
ENDBRANCH   1  11
BRANCH   1  25
ATOM     25  C   UNL     1       9.144  -2.572  24.167  0.00  0.00    +0.194 C 
BRANCH  25  26
ATOM     26  S   UNL     1       8.692  -1.310  22.996  0.00  0.00    -0.027 S 
ATOM     27  O   UNL     1       7.404  -0.777  23.372  0.00  0.00    -0.174 OA
ATOM     28  O   UNL     1       8.931  -1.834  21.666  0.00  0.00    -0.174 OA
BRANCH  26  29
ATOM     29  C   UNL     1       9.899  -0.044  23.297  0.00  0.00    +0.188 C 
BRANCH  29  30
ATOM     30  C   UNL     1       9.975   0.915  22.112  0.00  0.00    +0.094 C 
ATOM     31  N   UNL     1       8.696   1.159  21.502  0.00  0.00    -0.311 N 
ATOM     32  H   UNL     1       8.173   0.492  20.940  0.00  0.00    +0.149 HD
ATOM     33  C   UNL     1       8.081   2.302  21.967  0.00  0.00    +0.213 C 
ATOM     34  O   UNL     1       6.943   2.647  21.719  0.00  0.00    -0.276 OA
ATOM     35  C   UNL     1       9.042   2.988  22.905  0.00  0.00    +0.097 C 
ATOM     36  C   UNL     1      10.375   2.316  22.568  0.00  0.00    +0.033 C 
ENDBRANCH  29  30
ENDBRANCH  26  29
ENDBRANCH  25  26
ENDBRANCH   1  25
TORSDOF 11
ENDMDL
MODEL 3
REMARK VINA RESULT:      -6.5      3.702      7.538
REMARK  Name = 
REMARK  11 active torsions:
REMARK  status: ('A' for Active; 'I' for Inactive)
REMARK    1  A    between atoms: C_2  and  C_3
REMARK    2  A    between atoms: C_2  and  N_15
REMARK    3  A    between atoms: C_2  and  C_29
REMARK    4  A    between atoms: C_3  and  S_4
REMARK    5  A    between atoms: S_4  and  C_7
REMARK    6  A    between atoms: C_7  and  C_8
REMARK    7  A    between atoms: N_15  and  C_16
REMARK    8  A    between atoms: C_16  and  C_18
REMARK    9  A    between atoms: C_16  and  C_25
REMARK   10  A    between atoms: N_31  and  C_32
REMARK   11  A    between atoms: C_32  and  C_35
REMARK                            x       y       z     vdW  Elec       q    Type
REMARK                         _______ _______ _______ _____ _____    ______ ____
ROOT
ATOM      1  C   UNL     1       7.902  -1.412  25.212  0.00  0.00    +0.162 C 
ENDROOT
BRANCH   1   2
ATOM      2  C   UNL     1       7.069  -0.508  26.189  0.00  0.00    +0.233 C 
ATOM      3  N   UNL     1       7.663   0.694  26.528  0.00  0.00    -0.296 N 
ATOM      4  H   UNL     1       8.603   0.913  26.239  0.00  0.00    +0.150 HD
ATOM      5  O   UNL     1       5.985  -0.850  26.654  0.00  0.00    -0.274 OA
BRANCH   3   6
ATOM      6  C   UNL     1       7.023   1.693  27.350  0.00  0.00    +0.121 C 
ATOM      7  C   UNL     1       5.810   2.476  26.877  0.00  0.00    +0.044 C 
ATOM      8  C   UNL     1       7.153   3.129  26.841  0.00  0.00    +0.044 C 
BRANCH   6   9
ATOM      9  C   UNL     1       7.161   1.489  28.773  0.00  0.00    +0.088 C 
ATOM     10  N   UNL     1       7.244   1.374  29.929  0.00  0.00    -0.194 NA
ENDBRANCH   6   9
ENDBRANCH   3   6
ENDBRANCH   1   2
BRANCH   1  11
ATOM     11  N   UNL     1       8.879  -0.559  24.494  0.00  0.00    -0.290 NA
ATOM     12  H   UNL     1       9.786  -1.038  24.433  0.00  0.00    +0.124 HD
BRANCH  11  13
ATOM     13  C   UNL     1       8.505  -0.053  23.144  0.00  0.00    +0.190 C 
BRANCH  13  14
ATOM     14  C   UNL     1       8.391   1.467  23.164  0.00  0.00    -0.022 A 
ATOM     15  C   UNL     1       7.282   2.116  22.594  0.00  0.00    +0.008 A 
ATOM     16  C   UNL     1       7.196   3.510  22.617  0.00  0.00    +0.038 A 
ATOM     17  C   UNL     1       8.213   4.254  23.206  0.00  0.00    +0.123 A 
ATOM     18  F   UNL     1       8.126   5.590  23.219  0.00  0.00    -0.205 F 
ATOM     19  C   UNL     1       9.315   3.633  23.776  0.00  0.00    +0.038 A 
ATOM     20  C   UNL     1       9.403   2.242  23.761  0.00  0.00    +0.008 A 
ENDBRANCH  13  14
BRANCH  13  21
ATOM     21  C   UNL     1       9.418  -0.558  21.961  0.00  0.00    +0.409 C 
ATOM     22  F   UNL     1      10.716  -0.715  22.302  0.00  0.00    -0.169 F 
ATOM     23  F   UNL     1       9.383   0.331  20.935  0.00  0.00    -0.169 F 
ATOM     24  F   UNL     1       8.986  -1.745  21.469  0.00  0.00    -0.169 F 
ENDBRANCH  13  21
ENDBRANCH  11  13
ENDBRANCH   1  11
BRANCH   1  25
ATOM     25  C   UNL     1       8.495  -2.641  25.915  0.00  0.00    +0.194 C 
BRANCH  25  26
ATOM     26  S   UNL     1       9.065  -3.878  24.770  0.00  0.00    -0.027 S 
ATOM     27  O   UNL     1       9.154  -5.140  25.467  0.00  0.00    -0.174 OA
ATOM     28  O   UNL     1      10.201  -3.331  24.056  0.00  0.00    -0.174 OA
BRANCH  26  29
ATOM     29  C   UNL     1       7.719  -4.000  23.620  0.00  0.00    +0.188 C 
BRANCH  29  30
ATOM     30  C   UNL     1       7.250  -5.448  23.496  0.00  0.00    +0.094 C 
ATOM     31  N   UNL     1       5.846  -5.611  23.762  0.00  0.00    -0.311 N 
ATOM     32  H   UNL     1       5.406  -5.537  24.676  0.00  0.00    +0.149 HD
ATOM     33  C   UNL     1       5.073  -5.607  22.621  0.00  0.00    +0.213 C 
ATOM     34  O   UNL     1       3.859  -5.582  22.587  0.00  0.00    -0.276 OA
ATOM     35  C   UNL     1       6.005  -5.544  21.438  0.00  0.00    +0.097 C 
ATOM     36  C   UNL     1       7.351  -5.933  22.052  0.00  0.00    +0.033 C 
ENDBRANCH  29  30
ENDBRANCH  26  29
ENDBRANCH  25  26
ENDBRANCH   1  25
TORSDOF 11
ENDMDL
MODEL 4
REMARK VINA RESULT:      -6.4      3.295      7.662
REMARK  Name = 
REMARK  11 active torsions:
REMARK  status: ('A' for Active; 'I' for Inactive)
REMARK    1  A    between atoms: C_2  and  C_3
REMARK    2  A    between atoms: C_2  and  N_15
REMARK    3  A    between atoms: C_2  and  C_29
REMARK    4  A    between atoms: C_3  and  S_4
REMARK    5  A    between atoms: S_4  and  C_7
REMARK    6  A    between atoms: C_7  and  C_8
REMARK    7  A    between atoms: N_15  and  C_16
REMARK    8  A    between atoms: C_16  and  C_18
REMARK    9  A    between atoms: C_16  and  C_25
REMARK   10  A    between atoms: N_31  and  C_32
REMARK   11  A    between atoms: C_32  and  C_35
REMARK                            x       y       z     vdW  Elec       q    Type
REMARK                         _______ _______ _______ _____ _____    ______ ____
ROOT
ATOM      1  C   UNL     1       8.301  -1.862  22.612  0.00  0.00    +0.162 C 
ENDROOT
BRANCH   1   2
ATOM      2  C   UNL     1       8.807  -0.449  22.153  0.00  0.00    +0.233 C 
ATOM      3  N   UNL     1       8.450   0.601  22.978  0.00  0.00    -0.296 N 
ATOM      4  H   UNL     1       7.827   0.465  23.759  0.00  0.00    +0.150 HD
ATOM      5  O   UNL     1       9.443  -0.273  21.117  0.00  0.00    -0.274 OA
BRANCH   3   6
ATOM      6  C   UNL     1       8.884   1.961  22.768  0.00  0.00    +0.121 C 
ATOM      7  C   UNL     1      10.332   2.313  22.472  0.00  0.00    +0.044 C 
ATOM      8  C   UNL     1       9.804   2.522  23.854  0.00  0.00    +0.044 C 
BRANCH   6   9
ATOM      9  C   UNL     1       7.872   2.850  22.248  0.00  0.00    +0.088 C 
ATOM     10  N   UNL     1       7.077   3.608  21.860  0.00  0.00    -0.194 NA
ENDBRANCH   6   9
ENDBRANCH   3   6
ENDBRANCH   1   2
BRANCH   1  11
ATOM     11  N   UNL     1       8.904  -2.177  23.929  0.00  0.00    -0.290 NA
ATOM     12  H   UNL     1       9.858  -1.797  23.979  0.00  0.00    +0.124 HD
BRANCH  11  13
ATOM     13  C   UNL     1       8.157  -1.776  25.155  0.00  0.00    +0.190 C 
BRANCH  13  14
ATOM     14  C   UNL     1       7.740  -3.010  25.945  0.00  0.00    -0.022 A 
ATOM     15  C   UNL     1       8.570  -4.142  26.010  0.00  0.00    +0.008 A 
ATOM     16  C   UNL     1       8.169  -5.266  26.735  0.00  0.00    +0.038 A 
ATOM     17  C   UNL     1       6.943  -5.263  27.392  0.00  0.00    +0.123 A 
ATOM     18  F   UNL     1       6.563  -6.346  28.080  0.00  0.00    -0.205 F 
ATOM     19  C   UNL     1       6.109  -4.155  27.342  0.00  0.00    +0.038 A 
ATOM     20  C   UNL     1       6.507  -3.028  26.625  0.00  0.00    +0.008 A 
ENDBRANCH  13  14
BRANCH  13  21
ATOM     21  C   UNL     1       8.884  -0.713  26.065  0.00  0.00    +0.409 C 
ATOM     22  F   UNL     1       9.082  -1.127  27.336  0.00  0.00    -0.169 F 
ATOM     23  F   UNL     1       8.145   0.425  26.130  0.00  0.00    -0.169 F 
ATOM     24  F   UNL     1      10.094  -0.368  25.562  0.00  0.00    -0.169 F 
ENDBRANCH  13  21
ENDBRANCH  11  13
ENDBRANCH   1  11
BRANCH   1  25
ATOM     25  C   UNL     1       6.772  -1.987  22.544  0.00  0.00    +0.194 C 
BRANCH  25  26
ATOM     26  S   UNL     1       6.231  -3.661  22.281  0.00  0.00    -0.027 S 
ATOM     27  O   UNL     1       7.272  -4.555  22.730  0.00  0.00    -0.174 OA
ATOM     28  O   UNL     1       5.693  -3.747  20.938  0.00  0.00    -0.174 OA
BRANCH  26  29
ATOM     29  C   UNL     1       4.873  -3.818  23.412  0.00  0.00    +0.188 C 
BRANCH  29  30
ATOM     30  C   UNL     1       4.133  -5.133  23.182  0.00  0.00    +0.094 C 
ATOM     31  N   UNL     1       4.735  -6.245  23.868  0.00  0.00    -0.311 N 
ATOM     32  H   UNL     1       5.617  -6.686  23.617  0.00  0.00    +0.149 HD
ATOM     33  C   UNL     1       4.153  -6.510  25.089  0.00  0.00    +0.213 C 
ATOM     34  O   UNL     1       4.568  -7.296  25.917  0.00  0.00    -0.276 OA
ATOM     35  C   UNL     1       2.973  -5.584  25.243  0.00  0.00    +0.097 C 
ATOM     36  C   UNL     1       2.743  -5.095  23.812  0.00  0.00    +0.033 C 
ENDBRANCH  29  30
ENDBRANCH  26  29
ENDBRANCH  25  26
ENDBRANCH   1  25
TORSDOF 11
ENDMDL
MODEL 5
REMARK VINA RESULT:      -6.4      4.107      8.137
REMARK  Name = 
REMARK  11 active torsions:
REMARK  status: ('A' for Active; 'I' for Inactive)
REMARK    1  A    between atoms: C_2  and  C_3
REMARK    2  A    between atoms: C_2  and  N_15
REMARK    3  A    between atoms: C_2  and  C_29
REMARK    4  A    between atoms: C_3  and  S_4
REMARK    5  A    between atoms: S_4  and  C_7
REMARK    6  A    between atoms: C_7  and  C_8
REMARK    7  A    between atoms: N_15  and  C_16
REMARK    8  A    between atoms: C_16  and  C_18
REMARK    9  A    between atoms: C_16  and  C_25
REMARK   10  A    between atoms: N_31  and  C_32
REMARK   11  A    between atoms: C_32  and  C_35
REMARK                            x       y       z     vdW  Elec       q    Type
REMARK                         _______ _______ _______ _____ _____    ______ ____
ROOT
ATOM      1  C   UNL     1       7.869  -0.279  24.829  0.00  0.00    +0.162 C 
ENDROOT
BRANCH   1   2
ATOM      2  C   UNL     1       7.035   0.377  25.986  0.00  0.00    +0.233 C 
ATOM      3  N   UNL     1       7.568   1.541  26.510  0.00  0.00    -0.296 N 
ATOM      4  H   UNL     1       8.475   1.875  26.225  0.00  0.00    +0.150 HD
ATOM      5  O   UNL     1       6.001  -0.119  26.428  0.00  0.00    -0.274 OA
BRANCH   3   6
ATOM      6  C   UNL     1       6.911   2.331  27.523  0.00  0.00    +0.121 C 
ATOM      7  C   UNL     1       5.677   3.165  27.227  0.00  0.00    +0.044 C 
ATOM      8  C   UNL     1       7.004   3.844  27.324  0.00  0.00    +0.044 C 
BRANCH   6   9
ATOM      9  C   UNL     1       7.064   1.839  28.872  0.00  0.00    +0.088 C 
ATOM     10  N   UNL     1       7.219   1.399  29.939  0.00  0.00    -0.194 NA
ENDBRANCH   6   9
ENDBRANCH   3   6
ENDBRANCH   1   2
BRANCH   1  11
ATOM     11  N   UNL     1       8.874   0.702  24.354  0.00  0.00    -0.290 NA
ATOM     12  H   UNL     1       9.811   0.281  24.367  0.00  0.00    +0.124 HD
BRANCH  11  13
ATOM     13  C   UNL     1       8.650   1.347  23.030  0.00  0.00    +0.190 C 
BRANCH  13  14
ATOM     14  C   UNL     1       8.502   2.855  23.196  0.00  0.00    -0.022 A 
ATOM     15  C   UNL     1       9.249   3.552  24.161  0.00  0.00    +0.008 A 
ATOM     16  C   UNL     1       9.097   4.934  24.303  0.00  0.00    +0.038 A 
ATOM     17  C   UNL     1       8.203   5.617  23.485  0.00  0.00    +0.123 A 
ATOM     18  F   UNL     1       8.059   6.940  23.631  0.00  0.00    -0.205 F 
ATOM     19  C   UNL     1       7.458   4.948  22.525  0.00  0.00    +0.038 A 
ATOM     20  C   UNL     1       7.610   3.570  22.376  0.00  0.00    +0.008 A 
ENDBRANCH  13  14
BRANCH  13  21
ATOM     21  C   UNL     1       9.705   0.979  21.918  0.00  0.00    +0.409 C 
ATOM     22  F   UNL     1      10.551  -0.013  22.275  0.00  0.00    -0.169 F 
ATOM     23  F   UNL     1      10.469   2.063  21.624  0.00  0.00    -0.169 F 
ATOM     24  F   UNL     1       9.103   0.598  20.765  0.00  0.00    -0.169 F 
ENDBRANCH  13  21
ENDBRANCH  11  13
ENDBRANCH   1  11
BRANCH   1  25
ATOM     25  C   UNL     1       8.427  -1.655  25.218  0.00  0.00    +0.194 C 
BRANCH  25  26
ATOM     26  S   UNL     1       8.806  -2.666  23.804  0.00  0.00    -0.027 S 
ATOM     27  O   UNL     1      10.200  -3.039  23.869  0.00  0.00    -0.174 OA
ATOM     28  O   UNL     1       8.255  -2.015  22.632  0.00  0.00    -0.174 OA
BRANCH  26  29
ATOM     29  C   UNL     1       7.851  -4.132  24.101  0.00  0.00    +0.188 C 
BRANCH  29  30
ATOM     30  C   UNL     1       6.425  -3.955  23.586  0.00  0.00    +0.094 C 
ATOM     31  N   UNL     1       6.336  -4.000  22.151  0.00  0.00    -0.311 N 
ATOM     32  H   UNL     1       6.664  -3.278  21.516  0.00  0.00    +0.149 HD
ATOM     33  C   UNL     1       6.007  -5.249  21.666  0.00  0.00    +0.213 C 
ATOM     34  O   UNL     1       6.012  -5.579  20.497  0.00  0.00    -0.276 OA
ATOM     35  C   UNL     1       5.735  -6.142  22.850  0.00  0.00    +0.097 C 
ATOM     36  C   UNL     1       5.548  -5.138  23.990  0.00  0.00    +0.033 C 
ENDBRANCH  29  30
ENDBRANCH  26  29
ENDBRANCH  25  26
ENDBRANCH   1  25
TORSDOF 11
ENDMDL
MODEL 6
REMARK VINA RESULT:      -6.3      3.491      7.352
REMARK  Name = 
REMARK  11 active torsions:
REMARK  status: ('A' for Active; 'I' for Inactive)
REMARK    1  A    between atoms: C_2  and  C_3
REMARK    2  A    between atoms: C_2  and  N_15
REMARK    3  A    between atoms: C_2  and  C_29
REMARK    4  A    between atoms: C_3  and  S_4
REMARK    5  A    between atoms: S_4  and  C_7
REMARK    6  A    between atoms: C_7  and  C_8
REMARK    7  A    between atoms: N_15  and  C_16
REMARK    8  A    between atoms: C_16  and  C_18
REMARK    9  A    between atoms: C_16  and  C_25
REMARK   10  A    between atoms: N_31  and  C_32
REMARK   11  A    between atoms: C_32  and  C_35
REMARK                            x       y       z     vdW  Elec       q    Type
REMARK                         _______ _______ _______ _____ _____    ______ ____
ROOT
ATOM      1  C   UNL     1       7.631  -1.180  24.627  0.00  0.00    +0.162 C 
ENDROOT
BRANCH   1   2
ATOM      2  C   UNL     1       6.168  -1.168  25.196  0.00  0.00    +0.233 C 
ATOM      3  N   UNL     1       5.832  -2.256  25.981  0.00  0.00    -0.296 N 
ATOM      4  H   UNL     1       6.460  -3.037  26.089  0.00  0.00    +0.150 HD
ATOM      5  O   UNL     1       5.359  -0.280  24.937  0.00  0.00    -0.274 OA
BRANCH   3   6
ATOM      6  C   UNL     1       4.563  -2.388  26.655  0.00  0.00    +0.121 C 
ATOM      7  C   UNL     1       4.194  -1.541  27.861  0.00  0.00    +0.044 C 
ATOM      8  C   UNL     1       4.642  -2.950  28.076  0.00  0.00    +0.044 C 
BRANCH   6   9
ATOM      9  C   UNL     1       3.480  -2.859  25.825  0.00  0.00    +0.088 C 
ATOM     10  N   UNL     1       2.639  -3.232  25.111  0.00  0.00    -0.194 NA
ENDBRANCH   6   9
ENDBRANCH   3   6
ENDBRANCH   1   2
BRANCH   1  11
ATOM     11  N   UNL     1       8.093   0.220  24.477  0.00  0.00    -0.290 NA
ATOM     12  H   UNL     1       8.966   0.361  25.002  0.00  0.00    +0.124 HD
BRANCH  11  13
ATOM     13  C   UNL     1       8.263   0.757  23.098  0.00  0.00    +0.190 C 
BRANCH  13  14
ATOM     14  C   UNL     1       8.172   2.278  23.110  0.00  0.00    -0.022 A 
ATOM     15  C   UNL     1       7.303   2.956  22.239  0.00  0.00    +0.008 A 
ATOM     16  C   UNL     1       7.236   4.352  22.260  0.00  0.00    +0.038 A 
ATOM     17  C   UNL     1       8.034   5.067  23.145  0.00  0.00    +0.123 A 
ATOM     18  F   UNL     1       7.968   6.405  23.156  0.00  0.00    -0.205 F 
ATOM     19  C   UNL     1       8.897   4.418  24.016  0.00  0.00    +0.038 A 
ATOM     20  C   UNL     1       8.963   3.025  24.003  0.00  0.00    +0.008 A 
ENDBRANCH  13  14
BRANCH  13  21
ATOM     21  C   UNL     1       9.547   0.250  22.335  0.00  0.00    +0.409 C 
ATOM     22  F   UNL     1      10.024   1.129  21.425  0.00  0.00    -0.169 F 
ATOM     23  F   UNL     1       9.266  -0.898  21.666  0.00  0.00    -0.169 F 
ATOM     24  F   UNL     1      10.559  -0.031  23.191  0.00  0.00    -0.169 F 
ENDBRANCH  13  21
ENDBRANCH  11  13
ENDBRANCH   1  11
BRANCH   1  25
ATOM     25  C   UNL     1       8.564  -2.097  25.431  0.00  0.00    +0.194 C 
BRANCH  25  26
ATOM     26  S   UNL     1       9.199  -3.449  24.465  0.00  0.00    -0.027 S 
ATOM     27  O   UNL     1       9.288  -4.615  25.312  0.00  0.00    -0.174 OA
ATOM     28  O   UNL     1      10.348  -2.965  23.727  0.00  0.00    -0.174 OA
BRANCH  26  29
ATOM     29  C   UNL     1       7.897  -3.742  23.295  0.00  0.00    +0.188 C 
BRANCH  29  30
ATOM     30  C   UNL     1       7.312  -5.140  23.484  0.00  0.00    +0.094 C 
ATOM     31  N   UNL     1       5.907  -5.125  23.796  0.00  0.00    -0.311 N 
ATOM     32  H   UNL     1       5.502  -4.826  24.679  0.00  0.00    +0.149 HD
ATOM     33  C   UNL     1       5.103  -5.295  22.689  0.00  0.00    +0.213 C 
ATOM     34  O   UNL     1       3.895  -5.176  22.665  0.00  0.00    -0.276 OA
ATOM     35  C   UNL     1       6.003  -5.558  21.507  0.00  0.00    +0.097 C 
ATOM     36  C   UNL     1       7.331  -5.922  22.173  0.00  0.00    +0.033 C 
ENDBRANCH  29  30
ENDBRANCH  26  29
ENDBRANCH  25  26
ENDBRANCH   1  25
TORSDOF 11
ENDMDL
MODEL 7
REMARK VINA RESULT:      -6.3      2.534      3.924
REMARK  Name = 
REMARK  11 active torsions:
REMARK  status: ('A' for Active; 'I' for Inactive)
REMARK    1  A    between atoms: C_2  and  C_3
REMARK    2  A    between atoms: C_2  and  N_15
REMARK    3  A    between atoms: C_2  and  C_29
REMARK    4  A    between atoms: C_3  and  S_4
REMARK    5  A    between atoms: S_4  and  C_7
REMARK    6  A    between atoms: C_7  and  C_8
REMARK    7  A    between atoms: N_15  and  C_16
REMARK    8  A    between atoms: C_16  and  C_18
REMARK    9  A    between atoms: C_16  and  C_25
REMARK   10  A    between atoms: N_31  and  C_32
REMARK   11  A    between atoms: C_32  and  C_35
REMARK                            x       y       z     vdW  Elec       q    Type
REMARK                         _______ _______ _______ _____ _____    ______ ____
ROOT
ATOM      1  C   UNL     1       6.392  -2.308  26.108  0.00  0.00    +0.162 C 
ENDROOT
BRANCH   1   2
ATOM      2  C   UNL     1       5.673  -3.577  26.691  0.00  0.00    +0.233 C 
ATOM      3  N   UNL     1       4.634  -4.069  25.923  0.00  0.00    -0.296 N 
ATOM      4  H   UNL     1       4.311  -3.580  25.103  0.00  0.00    +0.150 HD
ATOM      5  O   UNL     1       5.980  -4.082  27.768  0.00  0.00    -0.274 OA
BRANCH   3   6
ATOM      6  C   UNL     1       3.903  -5.270  26.250  0.00  0.00    +0.121 C 
ATOM      7  C   UNL     1       4.537  -6.649  26.180  0.00  0.00    +0.044 C 
ATOM      8  C   UNL     1       3.639  -6.208  25.071  0.00  0.00    +0.044 C 
BRANCH   6   9
ATOM      9  C   UNL     1       2.826  -5.089  27.194  0.00  0.00    +0.088 C 
ATOM     10  N   UNL     1       1.995  -4.950  27.998  0.00  0.00    -0.194 NA
ENDBRANCH   6   9
ENDBRANCH   3   6
ENDBRANCH   1   2
BRANCH   1  11
ATOM     11  N   UNL     1       7.648  -2.736  25.448  0.00  0.00    -0.290 NA
ATOM     12  H   UNL     1       8.459  -2.381  25.969  0.00  0.00    +0.124 HD
BRANCH  11  13
ATOM     13  C   UNL     1       7.839  -4.190  25.184  0.00  0.00    +0.190 C 
BRANCH  13  14
ATOM     14  C   UNL     1       7.344  -4.542  23.787  0.00  0.00    -0.022 A 
ATOM     15  C   UNL     1       7.241  -3.559  22.787  0.00  0.00    +0.008 A 
ATOM     16  C   UNL     1       6.781  -3.899  21.513  0.00  0.00    +0.038 A 
ATOM     17  C   UNL     1       6.423  -5.215  21.237  0.00  0.00    +0.123 A 
ATOM     18  F   UNL     1       5.977  -5.532  20.015  0.00  0.00    -0.205 F 
ATOM     19  C   UNL     1       6.520  -6.201  22.208  0.00  0.00    +0.038 A 
ATOM     20  C   UNL     1       6.985  -5.868  23.480  0.00  0.00    +0.008 A 
ENDBRANCH  13  14
BRANCH  13  21
ATOM     21  C   UNL     1       9.297  -4.733  25.446  0.00  0.00    +0.409 C 
ATOM     22  F   UNL     1       9.447  -6.048  25.172  0.00  0.00    -0.169 F 
ATOM     23  F   UNL     1       9.629  -4.560  26.752  0.00  0.00    -0.169 F 
ATOM     24  F   UNL     1      10.218  -4.062  24.713  0.00  0.00    -0.169 F 
ENDBRANCH  13  21
ENDBRANCH  11  13
ENDBRANCH   1  11
BRANCH   1  25
ATOM     25  C   UNL     1       5.456  -1.450  25.246  0.00  0.00    +0.194 C 
BRANCH  25  26
ATOM     26  S   UNL     1       6.092   0.187  24.963  0.00  0.00    -0.027 S 
ATOM     27  O   UNL     1       7.132   0.447  25.930  0.00  0.00    -0.174 OA
ATOM     28  O   UNL     1       4.961   1.082  24.814  0.00  0.00    -0.174 OA
BRANCH  26  29
ATOM     29  C   UNL     1       6.869   0.038  23.374  0.00  0.00    +0.188 C 
BRANCH  29  30
ATOM     30  C   UNL     1       8.302   0.560  23.429  0.00  0.00    +0.094 C 
ATOM     31  N   UNL     1       9.268  -0.473  23.692  0.00  0.00    -0.311 N 
ATOM     32  H   UNL     1       9.398  -0.947  24.582  0.00  0.00    +0.149 HD
ATOM     33  C   UNL     1       9.845  -0.983  22.548  0.00  0.00    +0.213 C 
ATOM     34  O   UNL     1      10.574  -1.952  22.493  0.00  0.00    -0.276 OA
ATOM     35  C   UNL     1       9.330  -0.179  21.381  0.00  0.00    +0.097 C 
ATOM     36  C   UNL     1       8.752   1.065  22.059  0.00  0.00    +0.033 C 
ENDBRANCH  29  30
ENDBRANCH  26  29
ENDBRANCH  25  26
ENDBRANCH   1  25
TORSDOF 11
ENDMDL
MODEL 8
REMARK VINA RESULT:      -6.3      3.910      7.240
REMARK  Name = 
REMARK  11 active torsions:
REMARK  status: ('A' for Active; 'I' for Inactive)
REMARK    1  A    between atoms: C_2  and  C_3
REMARK    2  A    between atoms: C_2  and  N_15
REMARK    3  A    between atoms: C_2  and  C_29
REMARK    4  A    between atoms: C_3  and  S_4
REMARK    5  A    between atoms: S_4  and  C_7
REMARK    6  A    between atoms: C_7  and  C_8
REMARK    7  A    between atoms: N_15  and  C_16
REMARK    8  A    between atoms: C_16  and  C_18
REMARK    9  A    between atoms: C_16  and  C_25
REMARK   10  A    between atoms: N_31  and  C_32
REMARK   11  A    between atoms: C_32  and  C_35
REMARK                            x       y       z     vdW  Elec       q    Type
REMARK                         _______ _______ _______ _____ _____    ______ ____
ROOT
ATOM      1  C   UNL     1       7.694  -1.793  25.029  0.00  0.00    +0.162 C 
ENDROOT
BRANCH   1   2
ATOM      2  C   UNL     1       6.364  -0.961  25.089  0.00  0.00    +0.233 C 
ATOM      3  N   UNL     1       6.436   0.214  25.814  0.00  0.00    -0.296 N 
ATOM      4  H   UNL     1       7.262   0.454  26.340  0.00  0.00    +0.150 HD
ATOM      5  O   UNL     1       5.318  -1.337  24.564  0.00  0.00    -0.274 OA
BRANCH   3   6
ATOM      6  C   UNL     1       5.344   1.151  25.920  0.00  0.00    +0.121 C 
ATOM      7  C   UNL     1       4.946   2.066  24.774  0.00  0.00    +0.044 C 
ATOM      8  C   UNL     1       5.753   2.625  25.900  0.00  0.00    +0.044 C 
BRANCH   6   9
ATOM      9  C   UNL     1       4.307   0.773  26.851  0.00  0.00    +0.088 C 
ATOM     10  N   UNL     1       3.436   0.506  27.576  0.00  0.00    -0.194 NA
ENDBRANCH   6   9
ENDBRANCH   3   6
ENDBRANCH   1   2
BRANCH   1  11
ATOM     11  N   UNL     1       8.772  -0.925  24.498  0.00  0.00    -0.290 NA
ATOM     12  H   UNL     1       9.676  -1.410  24.557  0.00  0.00    +0.124 HD
BRANCH  11  13
ATOM     13  C   UNL     1       8.610  -0.368  23.126  0.00  0.00    +0.190 C 
BRANCH  13  14
ATOM     14  C   UNL     1       8.509   1.152  23.183  0.00  0.00    -0.022 A 
ATOM     15  C   UNL     1       9.230   1.889  24.138  0.00  0.00    +0.008 A 
ATOM     16  C   UNL     1       9.122   3.281  24.179  0.00  0.00    +0.038 A 
ATOM     17  C   UNL     1       8.297   3.935  23.270  0.00  0.00    +0.123 A 
ATOM     18  F   UNL     1       8.194   5.270  23.319  0.00  0.00    -0.205 F 
ATOM     19  C   UNL     1       7.579   3.228  22.317  0.00  0.00    +0.038 A 
ATOM     20  C   UNL     1       7.688   1.838  22.269  0.00  0.00    +0.008 A 
ENDBRANCH  13  14
BRANCH  13  21
ATOM     21  C   UNL     1       9.684  -0.847  22.076  0.00  0.00    +0.409 C 
ATOM     22  F   UNL     1      10.359   0.164  21.485  0.00  0.00    -0.169 F 
ATOM     23  F   UNL     1       9.081  -1.552  21.084  0.00  0.00    -0.169 F 
ATOM     24  F   UNL     1      10.602  -1.668  22.640  0.00  0.00    -0.169 F 
ENDBRANCH  13  21
ENDBRANCH  11  13
ENDBRANCH   1  11
BRANCH   1  25
ATOM     25  C   UNL     1       8.008  -2.490  26.360  0.00  0.00    +0.194 C 
BRANCH  25  26
ATOM     26  S   UNL     1       7.681  -4.239  26.312  0.00  0.00    -0.027 S 
ATOM     27  O   UNL     1       6.274  -4.448  26.564  0.00  0.00    -0.174 OA
ATOM     28  O   UNL     1       8.694  -4.901  27.109  0.00  0.00    -0.174 OA
BRANCH  26  29
ATOM     29  C   UNL     1       7.983  -4.650  24.613  0.00  0.00    +0.188 C 
BRANCH  29  30
ATOM     30  C   UNL     1       6.737  -5.267  23.982  0.00  0.00    +0.094 C 
ATOM     31  N   UNL     1       5.783  -4.284  23.543  0.00  0.00    -0.311 N 
ATOM     32  H   UNL     1       5.202  -3.712  24.151  0.00  0.00    +0.149 HD
ATOM     33  C   UNL     1       5.903  -3.968  22.206  0.00  0.00    +0.213 C 
ATOM     34  O   UNL     1       5.318  -3.071  21.634  0.00  0.00    -0.276 OA
ATOM     35  C   UNL     1       6.956  -4.872  21.616  0.00  0.00    +0.097 C 
ATOM     36  C   UNL     1       7.081  -5.973  22.672  0.00  0.00    +0.033 C 
ENDBRANCH  29  30
ENDBRANCH  26  29
ENDBRANCH  25  26
ENDBRANCH   1  25
TORSDOF 11
ENDMDL
MODEL 9
REMARK VINA RESULT:      -6.3      2.987      7.484
REMARK  Name = 
REMARK  11 active torsions:
REMARK  status: ('A' for Active; 'I' for Inactive)
REMARK    1  A    between atoms: C_2  and  C_3
REMARK    2  A    between atoms: C_2  and  N_15
REMARK    3  A    between atoms: C_2  and  C_29
REMARK    4  A    between atoms: C_3  and  S_4
REMARK    5  A    between atoms: S_4  and  C_7
REMARK    6  A    between atoms: C_7  and  C_8
REMARK    7  A    between atoms: N_15  and  C_16
REMARK    8  A    between atoms: C_16  and  C_18
REMARK    9  A    between atoms: C_16  and  C_25
REMARK   10  A    between atoms: N_31  and  C_32
REMARK   11  A    between atoms: C_32  and  C_35
REMARK                            x       y       z     vdW  Elec       q    Type
REMARK                         _______ _______ _______ _____ _____    ______ ____
ROOT
ATOM      1  C   UNL     1       6.917  -2.386  25.183  0.00  0.00    +0.162 C 
ENDROOT
BRANCH   1   2
ATOM      2  C   UNL     1       6.910  -3.894  24.745  0.00  0.00    +0.233 C 
ATOM      3  N   UNL     1       6.088  -4.192  23.674  0.00  0.00    -0.296 N 
ATOM      4  H   UNL     1       5.472  -3.499  23.278  0.00  0.00    +0.150 HD
ATOM      5  O   UNL     1       7.555  -4.761  25.329  0.00  0.00    -0.274 OA
BRANCH   3   6
ATOM      6  C   UNL     1       6.004  -5.503  23.076  0.00  0.00    +0.121 C 
ATOM      7  C   UNL     1       7.131  -6.086  22.241  0.00  0.00    +0.044 C 
ATOM      8  C   UNL     1       5.937  -5.514  21.548  0.00  0.00    +0.044 C 
BRANCH   6   9
ATOM      9  C   UNL     1       5.152  -6.436  23.774  0.00  0.00    +0.088 C 
ATOM     10  N   UNL     1       4.437  -7.145  24.361  0.00  0.00    -0.194 NA
ENDBRANCH   6   9
ENDBRANCH   3   6
ENDBRANCH   1   2
BRANCH   1  11
ATOM     11  N   UNL     1       8.181  -1.765  24.722  0.00  0.00    -0.290 NA
ATOM     12  H   UNL     1       8.941  -2.457  24.742  0.00  0.00    +0.124 HD
BRANCH  11  13
ATOM     13  C   UNL     1       8.183  -1.080  23.399  0.00  0.00    +0.190 C 
BRANCH  13  14
ATOM     14  C   UNL     1       8.726   0.337  23.539  0.00  0.00    -0.022 A 
ATOM     15  C   UNL     1       7.977   1.444  23.107  0.00  0.00    +0.008 A 
ATOM     16  C   UNL     1       8.493   2.736  23.239  0.00  0.00    +0.038 A 
ATOM     17  C   UNL     1       9.752   2.921  23.800  0.00  0.00    +0.123 A 
ATOM     18  F   UNL     1      10.242   4.162  23.919  0.00  0.00    -0.205 F 
ATOM     19  C   UNL     1      10.507   1.842  24.236  0.00  0.00    +0.038 A 
ATOM     20  C   UNL     1       9.994   0.552  24.112  0.00  0.00    +0.008 A 
ENDBRANCH  13  14
BRANCH  13  21
ATOM     21  C   UNL     1       8.895  -1.871  22.235  0.00  0.00    +0.409 C 
ATOM     22  F   UNL     1       8.177  -2.914  21.765  0.00  0.00    -0.169 F 
ATOM     23  F   UNL     1      10.081  -2.371  22.671  0.00  0.00    -0.169 F 
ATOM     24  F   UNL     1       9.172  -1.065  21.181  0.00  0.00    -0.169 F 
ENDBRANCH  13  21
ENDBRANCH  11  13
ENDBRANCH   1  11
BRANCH   1  25
ATOM     25  C   UNL     1       5.635  -1.651  24.769  0.00  0.00    +0.194 C 
BRANCH  25  26
ATOM     26  S   UNL     1       4.262  -2.007  25.842  0.00  0.00    -0.027 S 
ATOM     27  O   UNL     1       3.412  -2.977  25.193  0.00  0.00    -0.174 OA
ATOM     28  O   UNL     1       3.733  -0.745  26.320  0.00  0.00    -0.174 OA
BRANCH  26  29
ATOM     29  C   UNL     1       5.037  -2.817  27.218  0.00  0.00    +0.188 C 
BRANCH  29  30
ATOM     30  C   UNL     1       4.144  -3.933  27.755  0.00  0.00    +0.094 C 
ATOM     31  N   UNL     1       4.388  -5.202  27.124  0.00  0.00    -0.311 N 
ATOM     32  H   UNL     1       4.133  -5.446  26.170  0.00  0.00    +0.149 HD
ATOM     33  C   UNL     1       5.258  -6.004  27.833  0.00  0.00    +0.213 C 
ATOM     34  O   UNL     1       5.732  -7.052  27.444  0.00  0.00    -0.276 OA
ATOM     35  C   UNL     1       5.579  -5.297  29.125  0.00  0.00    +0.097 C 
ATOM     36  C   UNL     1       4.475  -4.242  29.214  0.00  0.00    +0.033 C 
ENDBRANCH  29  30
ENDBRANCH  26  29
ENDBRANCH  25  26
ENDBRANCH   1  25
TORSDOF 11
ENDMDL
