MODEL 1
REMARK VINA RESULT:      -4.6      0.000      0.000
REMARK  Name = 
REMARK  31 active torsions:
REMARK  status: ('A' for Active; 'I' for Inactive)
REMARK    1  A    between atoms: C_1  and  C_2
REMARK    2  A    between atoms: C_2  and  C_3
REMARK    3  A    between atoms: C_3  and  C_4
REMARK    4  A    between atoms: C_4  and  C_5
REMARK    5  A    between atoms: C_5  and  C_6
REMARK    6  A    between atoms: C_6  and  C_7
REMARK    7  A    between atoms: C_7  and  C_8
REMARK    8  A    between atoms: C_8  and  C_9
REMARK    9  A    between atoms: C_9  and  C_10
REMARK   10  A    between atoms: C_10  and  C_11
REMARK   11  A    between atoms: C_11  and  C_12
REMARK   12  A    between atoms: C_12  and  C_13
REMARK   13  A    between atoms: C_13  and  C_14
REMARK   14  A    between atoms: C_14  and  C_15
REMARK   15  A    between atoms: C_15  and  C_16
REMARK   16  A    between atoms: C_16  and  O_17
REMARK   17  A    between atoms: O_17  and  C_18
REMARK   18  A    between atoms: C_18  and  C_19
REMARK   19  A    between atoms: C_19  and  C_21
REMARK   20  A    between atoms: C_19  and  O_33
REMARK   21  A    between atoms: C_21  and  O_22
REMARK   22  A    between atoms: O_22  and  P_23
REMARK   23  A    between atoms: P_23  and  O_26
REMARK   24  A    between atoms: O_26  and  C_27
REMARK   25  A    between atoms: C_27  and  C_28
REMARK   26  A    between atoms: C_28  and  N_29
REMARK   27  A    between atoms: N_29  and  C_30
REMARK   28  A    between atoms: N_29  and  C_31
REMARK   29  A    between atoms: N_29  and  C_32
REMARK   30  A    between atoms: O_33  and  C_34
REMARK   31  A    between atoms: C_34  and  C_35
REMARK                            x       y       z     vdW  Elec       q    Type
REMARK                         _______ _______ _______ _____ _____    ______ ____
ROOT
ATOM      1  C   UNL     1       9.685  -2.971  24.156  0.00  0.00    +0.206 C 
ENDROOT
BRANCH   1   2
ATOM      2  C   UNL     1       8.466  -3.652  24.813  0.00  0.00    +0.228 C 
BRANCH   2   3
ATOM      3  C   UNL     1       8.391  -3.649  26.365  0.00  0.00    +0.214 C 
BRANCH   3   4
ATOM      4  O   UNL     1       8.066  -4.868  27.014  0.00  0.00    -0.324 OA
BRANCH   4   5
ATOM      5  P   UNL     1       6.529  -5.152  27.449  0.00  0.00    +0.213 P 
ATOM      6  O   UNL     1       5.609  -4.047  26.999  0.00  0.00    -0.517 OA
ATOM      7  O   UNL     1       6.523  -5.656  28.867  0.00  0.00    -0.437 OA
BRANCH   5   8
ATOM      8  O   UNL     1       6.108  -6.431  26.495  0.00  0.00    -0.322 OA
BRANCH   8   9
ATOM      9  C   UNL     1       4.718  -6.359  26.176  0.00  0.00    +0.218 C 
BRANCH   9  10
ATOM     10  C   UNL     1       4.247  -7.119  24.930  0.00  0.00    +0.161 C 
BRANCH  10  11
ATOM     11  N   UNL     1       2.809  -6.835  24.417  0.00  0.00    +0.239 N 
ATOM     12  C   UNL     1       2.030  -6.129  25.523  0.00  0.00    +0.192 C 
ATOM     13  C   UNL     1       2.122  -8.146  24.070  0.00  0.00    +0.192 C 
ATOM     14  C   UNL     1       2.815  -5.941  23.181  0.00  0.00    +0.192 C 
ENDBRANCH  10  11
ENDBRANCH   9  10
ENDBRANCH   8   9
ENDBRANCH   5   8
ENDBRANCH   4   5
ENDBRANCH   3   4
ENDBRANCH   2   3
BRANCH   2  15
ATOM     15  O   UNL     1       8.295  -5.027  24.322  0.00  0.00    -0.457 OA
BRANCH  15  16
ATOM     16  C   UNL     1       7.444  -5.248  23.286  0.00  0.00    +0.304 C 
ATOM     17  O   UNL     1       7.604  -6.062  22.386  0.00  0.00    -0.251 OA
ATOM     18  C   UNL     1       6.235  -4.364  23.373  0.00  0.00    +0.136 C 
ENDBRANCH  15  16
ENDBRANCH   2  15
ENDBRANCH   1   2
BRANCH   1  19
ATOM     19  O   UNL     1       9.262  -2.264  22.969  0.00  0.00    -0.376 OA
BRANCH  19  20
ATOM     20  C   UNL     1      10.137  -1.211  22.557  0.00  0.00    +0.160 C 
BRANCH  20  21
ATOM     21  C   UNL     1       9.496  -0.229  21.571  0.00  0.00    +0.028 C 
BRANCH  21  22
ATOM     22  C   UNL     1       9.815   1.235  21.875  0.00  0.00    +0.002 C 
BRANCH  22  23
ATOM     23  C   UNL     1      10.400   1.434  23.269  0.00  0.00    +0.000 C 
BRANCH  23  24
ATOM     24  C   UNL     1       9.752   2.631  23.954  0.00  0.00    +0.000 C 
BRANCH  24  25
ATOM     25  C   UNL     1       8.605   2.181  24.851  0.00  0.00    +0.000 C 
BRANCH  25  26
ATOM     26  C   UNL     1       7.279   2.666  24.296  0.00  0.00    -0.000 C 
BRANCH  26  27
ATOM     27  C   UNL     1       6.377   1.493  23.937  0.00  0.00    -0.000 C 
BRANCH  27  28
ATOM     28  C   UNL     1       7.020   0.176  24.354  0.00  0.00    -0.000 C 
BRANCH  28  29
ATOM     29  C   UNL     1       5.958  -0.885  24.596  0.00  0.00    -0.000 C 
BRANCH  29  30
ATOM     30  C   UNL     1       5.246  -0.640  25.921  0.00  0.00    -0.000 C 
BRANCH  30  31
ATOM     31  C   UNL     1       6.251  -0.596  27.066  0.00  0.00    -0.000 C 
BRANCH  31  32
ATOM     32  C   UNL     1       5.836   0.434  28.111  0.00  0.00    -0.000 C 
BRANCH  32  33
ATOM     33  C   UNL     1       7.017   1.322  28.492  0.00  0.00    -0.000 C 
BRANCH  33  35
ATOM     34  C   UNL     1       5.385   2.985  27.557  0.00  0.00    +0.004 C 
ATOM     35  C   UNL     1       6.826   2.743  27.973  0.00  0.00    -0.003 C 
ENDBRANCH  33  35
ENDBRANCH  32  33
ENDBRANCH  31  32
ENDBRANCH  30  31
ENDBRANCH  29  30
ENDBRANCH  28  29
ENDBRANCH  27  28
ENDBRANCH  26  27
ENDBRANCH  25  26
ENDBRANCH  24  25
ENDBRANCH  23  24
ENDBRANCH  22  23
ENDBRANCH  21  22
ENDBRANCH  20  21
ENDBRANCH  19  20
ENDBRANCH   1  19
TORSDOF 26
ENDMDL
MODEL 2
REMARK VINA RESULT:      -4.6      1.842      3.462
REMARK  Name = 
REMARK  31 active torsions:
REMARK  status: ('A' for Active; 'I' for Inactive)
REMARK    1  A    between atoms: C_1  and  C_2
REMARK    2  A    between atoms: C_2  and  C_3
REMARK    3  A    between atoms: C_3  and  C_4
REMARK    4  A    between atoms: C_4  and  C_5
REMARK    5  A    between atoms: C_5  and  C_6
REMARK    6  A    between atoms: C_6  and  C_7
REMARK    7  A    between atoms: C_7  and  C_8
REMARK    8  A    between atoms: C_8  and  C_9
REMARK    9  A    between atoms: C_9  and  C_10
REMARK   10  A    between atoms: C_10  and  C_11
REMARK   11  A    between atoms: C_11  and  C_12
REMARK   12  A    between atoms: C_12  and  C_13
REMARK   13  A    between atoms: C_13  and  C_14
REMARK   14  A    between atoms: C_14  and  C_15
REMARK   15  A    between atoms: C_15  and  C_16
REMARK   16  A    between atoms: C_16  and  O_17
REMARK   17  A    between atoms: O_17  and  C_18
REMARK   18  A    between atoms: C_18  and  C_19
REMARK   19  A    between atoms: C_19  and  C_21
REMARK   20  A    between atoms: C_19  and  O_33
REMARK   21  A    between atoms: C_21  and  O_22
REMARK   22  A    between atoms: O_22  and  P_23
REMARK   23  A    between atoms: P_23  and  O_26
REMARK   24  A    between atoms: O_26  and  C_27
REMARK   25  A    between atoms: C_27  and  C_28
REMARK   26  A    between atoms: C_28  and  N_29
REMARK   27  A    between atoms: N_29  and  C_30
REMARK   28  A    between atoms: N_29  and  C_31
REMARK   29  A    between atoms: N_29  and  C_32
REMARK   30  A    between atoms: O_33  and  C_34
REMARK   31  A    between atoms: C_34  and  C_35
REMARK                            x       y       z     vdW  Elec       q    Type
REMARK                         _______ _______ _______ _____ _____    ______ ____
ROOT
ATOM      1  C   UNL     1       9.589  -3.157  24.212  0.00  0.00    +0.206 C 
ENDROOT
BRANCH   1   2
ATOM      2  C   UNL     1       8.560  -4.223  24.644  0.00  0.00    +0.228 C 
BRANCH   2   3
ATOM      3  C   UNL     1       7.985  -5.155  23.542  0.00  0.00    +0.214 C 
BRANCH   3   4
ATOM      4  O   UNL     1       7.544  -4.556  22.333  0.00  0.00    -0.324 OA
BRANCH   4   5
ATOM      5  P   UNL     1       5.992  -4.709  21.890  0.00  0.00    +0.213 P 
ATOM      6  O   UNL     1       5.813  -5.778  20.845  0.00  0.00    -0.517 OA
ATOM      7  O   UNL     1       5.410  -3.332  21.718  0.00  0.00    -0.437 OA
BRANCH   5   8
ATOM      8  O   UNL     1       5.287  -5.349  23.237  0.00  0.00    -0.322 OA
BRANCH   8   9
ATOM      9  C   UNL     1       3.950  -4.864  23.361  0.00  0.00    +0.218 C 
BRANCH   9  10
ATOM     10  C   UNL     1       3.340  -4.844  24.767  0.00  0.00    +0.161 C 
BRANCH  10  11
ATOM     11  N   UNL     1       2.825  -6.190  25.347  0.00  0.00    +0.239 N 
ATOM     12  C   UNL     1       2.388  -7.080  24.187  0.00  0.00    +0.192 C 
ATOM     13  C   UNL     1       1.639  -5.931  26.262  0.00  0.00    +0.192 C 
ATOM     14  C   UNL     1       3.907  -6.918  26.137  0.00  0.00    +0.192 C 
ENDBRANCH  10  11
ENDBRANCH   9  10
ENDBRANCH   8   9
ENDBRANCH   5   8
ENDBRANCH   4   5
ENDBRANCH   3   4
ENDBRANCH   2   3
BRANCH   2  15
ATOM     15  O   UNL     1       7.451  -3.619  25.397  0.00  0.00    -0.457 OA
BRANCH  15  16
ATOM     16  C   UNL     1       7.152  -4.114  26.627  0.00  0.00    +0.304 C 
ATOM     17  O   UNL     1       7.836  -4.899  27.271  0.00  0.00    -0.251 OA
ATOM     18  C   UNL     1       5.852  -3.566  27.135  0.00  0.00    +0.136 C 
ENDBRANCH  15  16
ENDBRANCH   2  15
ENDBRANCH   1   2
BRANCH   1  19
ATOM     19  O   UNL     1       8.946  -2.178  23.367  0.00  0.00    -0.376 OA
BRANCH  19  20
ATOM     20  C   UNL     1       9.808  -1.558  22.409  0.00  0.00    +0.160 C 
BRANCH  20  21
ATOM     21  C   UNL     1       9.218  -0.291  21.781  0.00  0.00    +0.028 C 
BRANCH  21  22
ATOM     22  C   UNL     1       9.960   0.987  22.174  0.00  0.00    +0.002 C 
BRANCH  22  23
ATOM     23  C   UNL     1      10.532   0.925  23.587  0.00  0.00    +0.000 C 
BRANCH  23  24
ATOM     24  C   UNL     1       9.855   1.955  24.482  0.00  0.00    +0.000 C 
BRANCH  24  25
ATOM     25  C   UNL     1       9.724   3.292  23.762  0.00  0.00    +0.000 C 
BRANCH  25  26
ATOM     26  C   UNL     1       8.773   4.205  24.512  0.00  0.00    -0.000 C 
BRANCH  26  27
ATOM     27  C   UNL     1       7.695   4.748  23.585  0.00  0.00    -0.000 C 
BRANCH  27  28
ATOM     28  C   UNL     1       7.564   3.872  22.345  0.00  0.00    -0.000 C 
BRANCH  28  29
ATOM     29  C   UNL     1       6.230   3.140  22.345  0.00  0.00    -0.000 C 
BRANCH  29  30
ATOM     30  C   UNL     1       6.361   1.787  23.033  0.00  0.00    -0.000 C 
BRANCH  30  31
ATOM     31  C   UNL     1       5.497   1.740  24.288  0.00  0.00    -0.000 C 
BRANCH  31  32
ATOM     32  C   UNL     1       6.358   1.549  25.533  0.00  0.00    -0.000 C 
BRANCH  32  33
ATOM     33  C   UNL     1       6.892   0.122  25.604  0.00  0.00    -0.000 C 
BRANCH  33  35
ATOM     34  C   UNL     1       8.834  -0.767  26.925  0.00  0.00    +0.004 C 
ATOM     35  C   UNL     1       7.429  -0.195  26.996  0.00  0.00    -0.003 C 
ENDBRANCH  33  35
ENDBRANCH  32  33
ENDBRANCH  31  32
ENDBRANCH  30  31
ENDBRANCH  29  30
ENDBRANCH  28  29
ENDBRANCH  27  28
ENDBRANCH  26  27
ENDBRANCH  25  26
ENDBRANCH  24  25
ENDBRANCH  23  24
ENDBRANCH  22  23
ENDBRANCH  21  22
ENDBRANCH  20  21
ENDBRANCH  19  20
ENDBRANCH   1  19
TORSDOF 26
ENDMDL
MODEL 3
REMARK VINA RESULT:      -4.6      1.669      3.487
REMARK  Name = 
REMARK  31 active torsions:
REMARK  status: ('A' for Active; 'I' for Inactive)
REMARK    1  A    between atoms: C_1  and  C_2
REMARK    2  A    between atoms: C_2  and  C_3
REMARK    3  A    between atoms: C_3  and  C_4
REMARK    4  A    between atoms: C_4  and  C_5
REMARK    5  A    between atoms: C_5  and  C_6
REMARK    6  A    between atoms: C_6  and  C_7
REMARK    7  A    between atoms: C_7  and  C_8
REMARK    8  A    between atoms: C_8  and  C_9
REMARK    9  A    between atoms: C_9  and  C_10
REMARK   10  A    between atoms: C_10  and  C_11
REMARK   11  A    between atoms: C_11  and  C_12
REMARK   12  A    between atoms: C_12  and  C_13
REMARK   13  A    between atoms: C_13  and  C_14
REMARK   14  A    between atoms: C_14  and  C_15
REMARK   15  A    between atoms: C_15  and  C_16
REMARK   16  A    between atoms: C_16  and  O_17
REMARK   17  A    between atoms: O_17  and  C_18
REMARK   18  A    between atoms: C_18  and  C_19
REMARK   19  A    between atoms: C_19  and  C_21
REMARK   20  A    between atoms: C_19  and  O_33
REMARK   21  A    between atoms: C_21  and  O_22
REMARK   22  A    between atoms: O_22  and  P_23
REMARK   23  A    between atoms: P_23  and  O_26
REMARK   24  A    between atoms: O_26  and  C_27
REMARK   25  A    between atoms: C_27  and  C_28
REMARK   26  A    between atoms: C_28  and  N_29
REMARK   27  A    between atoms: N_29  and  C_30
REMARK   28  A    between atoms: N_29  and  C_31
REMARK   29  A    between atoms: N_29  and  C_32
REMARK   30  A    between atoms: O_33  and  C_34
REMARK   31  A    between atoms: C_34  and  C_35
REMARK                            x       y       z     vdW  Elec       q    Type
REMARK                         _______ _______ _______ _____ _____    ______ ____
ROOT
ATOM      1  C   UNL     1       8.722  -3.317  24.955  0.00  0.00    +0.206 C 
ENDROOT
BRANCH   1   2
ATOM      2  C   UNL     1       7.862  -3.794  26.145  0.00  0.00    +0.228 C 
BRANCH   2   3
ATOM      3  C   UNL     1       7.836  -5.317  26.447  0.00  0.00    +0.214 C 
BRANCH   3   4
ATOM      4  O   UNL     1       7.600  -5.722  27.786  0.00  0.00    -0.324 OA
BRANCH   4   5
ATOM      5  P   UNL     1       6.109  -6.186  28.226  0.00  0.00    +0.213 P 
ATOM      6  O   UNL     1       5.254  -5.011  28.624  0.00  0.00    -0.517 OA
ATOM      7  O   UNL     1       6.230  -7.405  29.099  0.00  0.00    -0.437 OA
BRANCH   5   8
ATOM      8  O   UNL     1       5.448  -6.693  26.802  0.00  0.00    -0.322 OA
BRANCH   8   9
ATOM      9  C   UNL     1       4.086  -6.269  26.723  0.00  0.00    +0.218 C 
BRANCH   9  10
ATOM     10  C   UNL     1       3.702  -5.366  25.545  0.00  0.00    +0.161 C 
BRANCH  10  11
ATOM     11  N   UNL     1       3.499  -6.038  24.160  0.00  0.00    +0.239 N 
ATOM     12  C   UNL     1       3.017  -7.469  24.383  0.00  0.00    +0.192 C 
ATOM     13  C   UNL     1       4.817  -6.059  23.403  0.00  0.00    +0.192 C 
ATOM     14  C   UNL     1       2.461  -5.301  23.320  0.00  0.00    +0.192 C 
ENDBRANCH  10  11
ENDBRANCH   9  10
ENDBRANCH   8   9
ENDBRANCH   5   8
ENDBRANCH   4   5
ENDBRANCH   3   4
ENDBRANCH   2   3
BRANCH   2  15
ATOM     15  O   UNL     1       6.484  -3.296  26.040  0.00  0.00    -0.457 OA
BRANCH  15  16
ATOM     16  C   UNL     1       6.255  -1.968  26.218  0.00  0.00    +0.304 C 
ATOM     17  O   UNL     1       6.746  -1.265  27.091  0.00  0.00    -0.251 OA
ATOM     18  C   UNL     1       5.309  -1.433  25.184  0.00  0.00    +0.136 C 
ENDBRANCH  15  16
ENDBRANCH   2  15
ENDBRANCH   1   2
BRANCH   1  19
ATOM     19  O   UNL     1       8.382  -4.080  23.776  0.00  0.00    -0.376 OA
BRANCH  19  20
ATOM     20  C   UNL     1       7.706  -3.338  22.758  0.00  0.00    +0.160 C 
BRANCH  20  21
ATOM     21  C   UNL     1       8.043  -1.843  22.760  0.00  0.00    +0.028 C 
BRANCH  21  22
ATOM     22  C   UNL     1       9.330  -1.508  22.007  0.00  0.00    +0.002 C 
BRANCH  22  23
ATOM     23  C   UNL     1       9.271  -0.151  21.314  0.00  0.00    +0.000 C 
BRANCH  23  24
ATOM     24  C   UNL     1      10.007   0.901  22.135  0.00  0.00    +0.000 C 
BRANCH  24  25
ATOM     25  C   UNL     1      10.660   0.269  23.357  0.00  0.00    +0.000 C 
BRANCH  25  26
ATOM     26  C   UNL     1      10.288   1.037  24.612  0.00  0.00    -0.000 C 
BRANCH  26  27
ATOM     27  C   UNL     1       9.748   2.417  24.264  0.00  0.00    -0.000 C 
BRANCH  27  28
ATOM     28  C   UNL     1       8.527   2.744  25.114  0.00  0.00    -0.000 C 
BRANCH  28  29
ATOM     29  C   UNL     1       7.489   1.636  25.008  0.00  0.00    -0.000 C 
BRANCH  29  30
ATOM     30  C   UNL     1       6.300   2.093  24.172  0.00  0.00    -0.000 C 
BRANCH  30  31
ATOM     31  C   UNL     1       6.526   1.769  22.700  0.00  0.00    -0.000 C 
BRANCH  31  32
ATOM     32  C   UNL     1       6.417   3.027  21.845  0.00  0.00    -0.000 C 
BRANCH  32  33
ATOM     33  C   UNL     1       6.369   4.274  22.724  0.00  0.00    -0.000 C 
BRANCH  33  35
ATOM     34  C   UNL     1       8.271   5.839  23.212  0.00  0.00    +0.004 C 
ATOM     35  C   UNL     1       7.269   5.372  22.169  0.00  0.00    -0.003 C 
ENDBRANCH  33  35
ENDBRANCH  32  33
ENDBRANCH  31  32
ENDBRANCH  30  31
ENDBRANCH  29  30
ENDBRANCH  28  29
ENDBRANCH  27  28
ENDBRANCH  26  27
ENDBRANCH  25  26
ENDBRANCH  24  25
ENDBRANCH  23  24
ENDBRANCH  22  23
ENDBRANCH  21  22
ENDBRANCH  20  21
ENDBRANCH  19  20
ENDBRANCH   1  19
TORSDOF 26
ENDMDL
MODEL 4
REMARK VINA RESULT:      -4.6      2.256      4.112
REMARK  Name = 
REMARK  31 active torsions:
REMARK  status: ('A' for Active; 'I' for Inactive)
REMARK    1  A    between atoms: C_1  and  C_2
REMARK    2  A    between atoms: C_2  and  C_3
REMARK    3  A    between atoms: C_3  and  C_4
REMARK    4  A    between atoms: C_4  and  C_5
REMARK    5  A    between atoms: C_5  and  C_6
REMARK    6  A    between atoms: C_6  and  C_7
REMARK    7  A    between atoms: C_7  and  C_8
REMARK    8  A    between atoms: C_8  and  C_9
REMARK    9  A    between atoms: C_9  and  C_10
REMARK   10  A    between atoms: C_10  and  C_11
REMARK   11  A    between atoms: C_11  and  C_12
REMARK   12  A    between atoms: C_12  and  C_13
REMARK   13  A    between atoms: C_13  and  C_14
REMARK   14  A    between atoms: C_14  and  C_15
REMARK   15  A    between atoms: C_15  and  C_16
REMARK   16  A    between atoms: C_16  and  O_17
REMARK   17  A    between atoms: O_17  and  C_18
REMARK   18  A    between atoms: C_18  and  C_19
REMARK   19  A    between atoms: C_19  and  C_21
REMARK   20  A    between atoms: C_19  and  O_33
REMARK   21  A    between atoms: C_21  and  O_22
REMARK   22  A    between atoms: O_22  and  P_23
REMARK   23  A    between atoms: P_23  and  O_26
REMARK   24  A    between atoms: O_26  and  C_27
REMARK   25  A    between atoms: C_27  and  C_28
REMARK   26  A    between atoms: C_28  and  N_29
REMARK   27  A    between atoms: N_29  and  C_30
REMARK   28  A    between atoms: N_29  and  C_31
REMARK   29  A    between atoms: N_29  and  C_32
REMARK   30  A    between atoms: O_33  and  C_34
REMARK   31  A    between atoms: C_34  and  C_35
REMARK                            x       y       z     vdW  Elec       q    Type
REMARK                         _______ _______ _______ _____ _____    ______ ____
ROOT
ATOM      1  C   UNL     1       7.833  -3.157  22.650  0.00  0.00    +0.206 C 
ENDROOT
BRANCH   1   2
ATOM      2  C   UNL     1       7.448  -4.564  23.154  0.00  0.00    +0.228 C 
BRANCH   2   3
ATOM      3  C   UNL     1       8.328  -5.192  24.270  0.00  0.00    +0.214 C 
BRANCH   3   4
ATOM      4  O   UNL     1       8.241  -4.635  25.573  0.00  0.00    -0.324 OA
BRANCH   4   5
ATOM      5  P   UNL     1       7.040  -5.099  26.558  0.00  0.00    +0.213 P 
ATOM      6  O   UNL     1       7.564  -5.791  27.789  0.00  0.00    -0.517 OA
ATOM      7  O   UNL     1       5.945  -5.701  25.720  0.00  0.00    -0.437 OA
BRANCH   5   8
ATOM      8  O   UNL     1       6.458  -3.664  27.128  0.00  0.00    -0.322 OA
BRANCH   8   9
ATOM      9  C   UNL     1       5.053  -3.769  27.357  0.00  0.00    +0.218 C 
BRANCH   9  10
ATOM     10  C   UNL     1       4.604  -4.358  28.699  0.00  0.00    +0.161 C 
BRANCH  10  11
ATOM     11  N   UNL     1       3.485  -5.435  28.674  0.00  0.00    +0.239 N 
ATOM     12  C   UNL     1       4.118  -6.796  28.949  0.00  0.00    +0.192 C 
ATOM     13  C   UNL     1       2.822  -5.451  27.306  0.00  0.00    +0.192 C 
ATOM     14  C   UNL     1       2.421  -5.171  29.733  0.00  0.00    +0.192 C 
ENDBRANCH  10  11
ENDBRANCH   9  10
ENDBRANCH   8   9
ENDBRANCH   5   8
ENDBRANCH   4   5
ENDBRANCH   3   4
ENDBRANCH   2   3
BRANCH   2  15
ATOM     15  O   UNL     1       7.326  -5.514  22.040  0.00  0.00    -0.457 OA
BRANCH  15  16
ATOM     16  C   UNL     1       6.136  -5.608  21.391  0.00  0.00    +0.304 C 
ATOM     17  O   UNL     1       5.975  -5.583  20.177  0.00  0.00    -0.251 OA
ATOM     18  C   UNL     1       4.997  -5.762  22.355  0.00  0.00    +0.136 C 
ENDBRANCH  15  16
ENDBRANCH   2  15
ENDBRANCH   1   2
BRANCH   1  19
ATOM     19  O   UNL     1       6.663  -2.308  22.643  0.00  0.00    -0.376 OA
BRANCH  19  20
ATOM     20  C   UNL     1       6.308  -1.768  23.918  0.00  0.00    +0.160 C 
BRANCH  20  21
ATOM     21  C   UNL     1       7.496  -1.190  24.693  0.00  0.00    +0.028 C 
BRANCH  21  22
ATOM     22  C   UNL     1       7.269   0.241  25.181  0.00  0.00    +0.002 C 
BRANCH  22  23
ATOM     23  C   UNL     1       8.566   1.030  25.317  0.00  0.00    +0.000 C 
BRANCH  23  24
ATOM     24  C   UNL     1       9.762   0.160  24.951  0.00  0.00    +0.000 C 
BRANCH  24  25
ATOM     25  C   UNL     1      10.448   0.688  23.697  0.00  0.00    +0.000 C 
BRANCH  25  26
ATOM     26  C   UNL     1      10.348  -0.327  22.574  0.00  0.00    -0.000 C 
BRANCH  26  27
ATOM     27  C   UNL     1       9.279   0.078  21.568  0.00  0.00    -0.000 C 
BRANCH  27  28
ATOM     28  C   UNL     1       9.062   1.585  21.594  0.00  0.00    -0.000 C 
BRANCH  28  29
ATOM     29  C   UNL     1       7.605   1.911  21.888  0.00  0.00    -0.000 C 
BRANCH  29  30
ATOM     30  C   UNL     1       7.405   3.417  22.005  0.00  0.00    -0.000 C 
BRANCH  30  31
ATOM     31  C   UNL     1       6.609   3.755  23.260  0.00  0.00    -0.000 C 
BRANCH  31  32
ATOM     32  C   UNL     1       6.930   5.165  23.743  0.00  0.00    -0.000 C 
BRANCH  32  33
ATOM     33  C   UNL     1       7.812   5.894  22.732  0.00  0.00    -0.000 C 
BRANCH  33  35
ATOM     34  C   UNL     1       9.862   5.314  24.062  0.00  0.00    +0.004 C 
ATOM     35  C   UNL     1       9.077   6.430  23.393  0.00  0.00    -0.003 C 
ENDBRANCH  33  35
ENDBRANCH  32  33
ENDBRANCH  31  32
ENDBRANCH  30  31
ENDBRANCH  29  30
ENDBRANCH  28  29
ENDBRANCH  27  28
ENDBRANCH  26  27
ENDBRANCH  25  26
ENDBRANCH  24  25
ENDBRANCH  23  24
ENDBRANCH  22  23
ENDBRANCH  21  22
ENDBRANCH  20  21
ENDBRANCH  19  20
ENDBRANCH   1  19
TORSDOF 26
ENDMDL
MODEL 5
REMARK VINA RESULT:      -4.6      2.353      4.562
REMARK  Name = 
REMARK  31 active torsions:
REMARK  status: ('A' for Active; 'I' for Inactive)
REMARK    1  A    between atoms: C_1  and  C_2
REMARK    2  A    between atoms: C_2  and  C_3
REMARK    3  A    between atoms: C_3  and  C_4
REMARK    4  A    between atoms: C_4  and  C_5
REMARK    5  A    between atoms: C_5  and  C_6
REMARK    6  A    between atoms: C_6  and  C_7
REMARK    7  A    between atoms: C_7  and  C_8
REMARK    8  A    between atoms: C_8  and  C_9
REMARK    9  A    between atoms: C_9  and  C_10
REMARK   10  A    between atoms: C_10  and  C_11
REMARK   11  A    between atoms: C_11  and  C_12
REMARK   12  A    between atoms: C_12  and  C_13
REMARK   13  A    between atoms: C_13  and  C_14
REMARK   14  A    between atoms: C_14  and  C_15
REMARK   15  A    between atoms: C_15  and  C_16
REMARK   16  A    between atoms: C_16  and  O_17
REMARK   17  A    between atoms: O_17  and  C_18
REMARK   18  A    between atoms: C_18  and  C_19
REMARK   19  A    between atoms: C_19  and  C_21
REMARK   20  A    between atoms: C_19  and  O_33
REMARK   21  A    between atoms: C_21  and  O_22
REMARK   22  A    between atoms: O_22  and  P_23
REMARK   23  A    between atoms: P_23  and  O_26
REMARK   24  A    between atoms: O_26  and  C_27
REMARK   25  A    between atoms: C_27  and  C_28
REMARK   26  A    between atoms: C_28  and  N_29
REMARK   27  A    between atoms: N_29  and  C_30
REMARK   28  A    between atoms: N_29  and  C_31
REMARK   29  A    between atoms: N_29  and  C_32
REMARK   30  A    between atoms: O_33  and  C_34
REMARK   31  A    between atoms: C_34  and  C_35
REMARK                            x       y       z     vdW  Elec       q    Type
REMARK                         _______ _______ _______ _____ _____    ______ ____
ROOT
ATOM      1  C   UNL     1       9.916  -1.645  23.691  0.00  0.00    +0.206 C 
ENDROOT
BRANCH   1   2
ATOM      2  C   UNL     1       9.061  -2.930  23.672  0.00  0.00    +0.228 C 
BRANCH   2   3
ATOM      3  C   UNL     1       7.735  -2.898  22.863  0.00  0.00    +0.214 C 
BRANCH   3   4
ATOM      4  O   UNL     1       7.497  -3.951  21.942  0.00  0.00    -0.324 OA
BRANCH   4   5
ATOM      5  P   UNL     1       6.074  -4.728  21.974  0.00  0.00    +0.213 P 
ATOM      6  O   UNL     1       5.887  -5.600  20.760  0.00  0.00    -0.517 OA
ATOM      7  O   UNL     1       5.013  -3.758  22.420  0.00  0.00    -0.437 OA
BRANCH   5   8
ATOM      8  O   UNL     1       6.271  -5.806  23.208  0.00  0.00    -0.322 OA
BRANCH   8   9
ATOM      9  C   UNL     1       5.158  -5.731  24.099  0.00  0.00    +0.218 C 
BRANCH   9  10
ATOM     10  C   UNL     1       4.243  -6.958  24.180  0.00  0.00    +0.161 C 
BRANCH  10  11
ATOM     11  N   UNL     1       2.759  -6.725  24.573  0.00  0.00    +0.239 N 
ATOM     12  C   UNL     1       1.970  -7.994  24.260  0.00  0.00    +0.192 C 
ATOM     13  C   UNL     1       2.193  -5.565  23.770  0.00  0.00    +0.192 C 
ATOM     14  C   UNL     1       2.609  -6.414  26.059  0.00  0.00    +0.192 C 
ENDBRANCH  10  11
ENDBRANCH   9  10
ENDBRANCH   8   9
ENDBRANCH   5   8
ENDBRANCH   4   5
ENDBRANCH   3   4
ENDBRANCH   2   3
BRANCH   2  15
ATOM     15  O   UNL     1       8.788  -3.409  25.034  0.00  0.00    -0.457 OA
BRANCH  15  16
ATOM     16  C   UNL     1       8.850  -4.743  25.281  0.00  0.00    +0.304 C 
ATOM     17  O   UNL     1       9.422  -5.576  24.590  0.00  0.00    -0.251 OA
ATOM     18  C   UNL     1       8.124  -5.101  26.544  0.00  0.00    +0.136 C 
ENDBRANCH  15  16
ENDBRANCH   2  15
ENDBRANCH   1   2
BRANCH   1  19
ATOM     19  O   UNL     1       9.491  -0.765  22.626  0.00  0.00    -0.376 OA
BRANCH  19  20
ATOM     20  C   UNL     1      10.099   0.529  22.643  0.00  0.00    +0.160 C 
BRANCH  20  21
ATOM     21  C   UNL     1      10.378   1.060  24.052  0.00  0.00    +0.028 C 
BRANCH  21  22
ATOM     22  C   UNL     1       9.258   1.942  24.605  0.00  0.00    +0.002 C 
BRANCH  22  23
ATOM     23  C   UNL     1       8.307   1.181  25.523  0.00  0.00    +0.000 C 
BRANCH  23  24
ATOM     24  C   UNL     1       6.864   1.593  25.257  0.00  0.00    +0.000 C 
BRANCH  24  25
ATOM     25  C   UNL     1       6.807   2.983  24.637  0.00  0.00    +0.000 C 
BRANCH  25  26
ATOM     26  C   UNL     1       5.609   3.102  23.714  0.00  0.00    -0.000 C 
BRANCH  26  27
ATOM     27  C   UNL     1       6.047   3.416  22.290  0.00  0.00    -0.000 C 
BRANCH  27  28
ATOM     28  C   UNL     1       7.364   4.181  22.292  0.00  0.00    -0.000 C 
BRANCH  28  29
ATOM     29  C   UNL     1       7.114   5.679  22.186  0.00  0.00    -0.000 C 
BRANCH  29  30
ATOM     30  C   UNL     1       8.273   6.461  22.790  0.00  0.00    -0.000 C 
BRANCH  30  31
ATOM     31  C   UNL     1       8.299   6.293  24.305  0.00  0.00    -0.000 C 
BRANCH  31  32
ATOM     32  C   UNL     1       9.645   5.746  24.768  0.00  0.00    -0.000 C 
BRANCH  32  33
ATOM     33  C   UNL     1      10.718   5.990  23.711  0.00  0.00    -0.000 C 
BRANCH  33  35
ATOM     34  C   UNL     1      12.987   5.033  23.217  0.00  0.00    +0.004 C 
ATOM     35  C   UNL     1      11.516   4.720  23.434  0.00  0.00    -0.003 C 
ENDBRANCH  33  35
ENDBRANCH  32  33
ENDBRANCH  31  32
ENDBRANCH  30  31
ENDBRANCH  29  30
ENDBRANCH  28  29
ENDBRANCH  27  28
ENDBRANCH  26  27
ENDBRANCH  25  26
ENDBRANCH  24  25
ENDBRANCH  23  24
ENDBRANCH  22  23
ENDBRANCH  21  22
ENDBRANCH  20  21
ENDBRANCH  19  20
ENDBRANCH   1  19
TORSDOF 26
ENDMDL
MODEL 6
REMARK VINA RESULT:      -4.5      1.788      3.192
REMARK  Name = 
REMARK  31 active torsions:
REMARK  status: ('A' for Active; 'I' for Inactive)
REMARK    1  A    between atoms: C_1  and  C_2
REMARK    2  A    between atoms: C_2  and  C_3
REMARK    3  A    between atoms: C_3  and  C_4
REMARK    4  A    between atoms: C_4  and  C_5
REMARK    5  A    between atoms: C_5  and  C_6
REMARK    6  A    between atoms: C_6  and  C_7
REMARK    7  A    between atoms: C_7  and  C_8
REMARK    8  A    between atoms: C_8  and  C_9
REMARK    9  A    between atoms: C_9  and  C_10
REMARK   10  A    between atoms: C_10  and  C_11
REMARK   11  A    between atoms: C_11  and  C_12
REMARK   12  A    between atoms: C_12  and  C_13
REMARK   13  A    between atoms: C_13  and  C_14
REMARK   14  A    between atoms: C_14  and  C_15
REMARK   15  A    between atoms: C_15  and  C_16
REMARK   16  A    between atoms: C_16  and  O_17
REMARK   17  A    between atoms: O_17  and  C_18
REMARK   18  A    between atoms: C_18  and  C_19
REMARK   19  A    between atoms: C_19  and  C_21
REMARK   20  A    between atoms: C_19  and  O_33
REMARK   21  A    between atoms: C_21  and  O_22
REMARK   22  A    between atoms: O_22  and  P_23
REMARK   23  A    between atoms: P_23  and  O_26
REMARK   24  A    between atoms: O_26  and  C_27
REMARK   25  A    between atoms: C_27  and  C_28
REMARK   26  A    between atoms: C_28  and  N_29
REMARK   27  A    between atoms: N_29  and  C_30
REMARK   28  A    between atoms: N_29  and  C_31
REMARK   29  A    between atoms: N_29  and  C_32
REMARK   30  A    between atoms: O_33  and  C_34
REMARK   31  A    between atoms: C_34  and  C_35
REMARK                            x       y       z     vdW  Elec       q    Type
REMARK                         _______ _______ _______ _____ _____    ______ ____
ROOT
ATOM      1  C   UNL     1       9.829  -2.830  24.127  0.00  0.00    +0.206 C 
ENDROOT
BRANCH   1   2
ATOM      2  C   UNL     1       8.590  -3.582  24.658  0.00  0.00    +0.228 C 
BRANCH   2   3
ATOM      3  C   UNL     1       8.562  -3.945  26.168  0.00  0.00    +0.214 C 
BRANCH   3   4
ATOM      4  O   UNL     1       8.094  -5.234  26.530  0.00  0.00    -0.324 OA
BRANCH   4   5
ATOM      5  P   UNL     1       6.644  -5.383  27.241  0.00  0.00    +0.213 P 
ATOM      6  O   UNL     1       5.858  -4.099  27.180  0.00  0.00    -0.517 OA
ATOM      7  O   UNL     1       6.822  -6.138  28.530  0.00  0.00    -0.437 OA
BRANCH   5   8
ATOM      8  O   UNL     1       5.834  -6.391  26.216  0.00  0.00    -0.322 OA
BRANCH   8   9
ATOM      9  C   UNL     1       4.472  -5.978  26.106  0.00  0.00    +0.218 C 
BRANCH   9  10
ATOM     10  C   UNL     1       3.624  -6.645  25.016  0.00  0.00    +0.161 C 
BRANCH  10  11
ATOM     11  N   UNL     1       2.831  -5.719  24.055  0.00  0.00    +0.239 N 
ATOM     12  C   UNL     1       3.816  -4.779  23.365  0.00  0.00    +0.192 C 
ATOM     13  C   UNL     1       1.822  -4.904  24.847  0.00  0.00    +0.192 C 
ATOM     14  C   UNL     1       2.090  -6.515  22.986  0.00  0.00    +0.192 C 
ENDBRANCH  10  11
ENDBRANCH   9  10
ENDBRANCH   8   9
ENDBRANCH   5   8
ENDBRANCH   4   5
ENDBRANCH   3   4
ENDBRANCH   2   3
BRANCH   2  15
ATOM     15  O   UNL     1       8.318  -4.788  23.864  0.00  0.00    -0.457 OA
BRANCH  15  16
ATOM     16  C   UNL     1       7.489  -4.689  22.791  0.00  0.00    +0.304 C 
ATOM     17  O   UNL     1       7.065  -3.649  22.304  0.00  0.00    -0.251 OA
ATOM     18  C   UNL     1       7.145  -6.040  22.239  0.00  0.00    +0.136 C 
ENDBRANCH  15  16
ENDBRANCH   2  15
ENDBRANCH   1   2
BRANCH   1  19
ATOM     19  O   UNL     1       9.409  -1.639  23.425  0.00  0.00    -0.376 OA
BRANCH  19  20
ATOM     20  C   UNL     1      10.149  -1.354  22.236  0.00  0.00    +0.160 C 
BRANCH  20  21
ATOM     21  C   UNL     1       9.417  -0.423  21.264  0.00  0.00    +0.028 C 
BRANCH  21  22
ATOM     22  C   UNL     1       8.511   0.594  21.959  0.00  0.00    +0.002 C 
BRANCH  22  23
ATOM     23  C   UNL     1       9.026   2.024  21.835  0.00  0.00    +0.000 C 
BRANCH  23  24
ATOM     24  C   UNL     1      10.310   2.200  22.638  0.00  0.00    +0.000 C 
BRANCH  24  25
ATOM     25  C   UNL     1      10.066   1.904  24.113  0.00  0.00    +0.000 C 
BRANCH  25  26
ATOM     26  C   UNL     1       9.065   2.887  24.690  0.00  0.00    -0.000 C 
BRANCH  26  27
ATOM     27  C   UNL     1       7.943   2.158  25.416  0.00  0.00    -0.000 C 
BRANCH  27  28
ATOM     28  C   UNL     1       6.744   3.078  25.610  0.00  0.00    -0.000 C 
BRANCH  28  29
ATOM     29  C   UNL     1       5.941   3.189  24.322  0.00  0.00    -0.000 C 
BRANCH  29  30
ATOM     30  C   UNL     1       5.506   4.630  24.083  0.00  0.00    -0.000 C 
BRANCH  30  31
ATOM     31  C   UNL     1       5.726   5.019  22.627  0.00  0.00    -0.000 C 
BRANCH  31  32
ATOM     32  C   UNL     1       7.211   5.013  22.282  0.00  0.00    -0.000 C 
BRANCH  32  33
ATOM     33  C   UNL     1       7.813   6.403  22.468  0.00  0.00    -0.000 C 
BRANCH  33  35
ATOM     34  C   UNL     1       8.669   6.474  24.827  0.00  0.00    +0.004 C 
ATOM     35  C   UNL     1       9.048   6.352  23.361  0.00  0.00    -0.003 C 
ENDBRANCH  33  35
ENDBRANCH  32  33
ENDBRANCH  31  32
ENDBRANCH  30  31
ENDBRANCH  29  30
ENDBRANCH  28  29
ENDBRANCH  27  28
ENDBRANCH  26  27
ENDBRANCH  25  26
ENDBRANCH  24  25
ENDBRANCH  23  24
ENDBRANCH  22  23
ENDBRANCH  21  22
ENDBRANCH  20  21
ENDBRANCH  19  20
ENDBRANCH   1  19
TORSDOF 26
ENDMDL
MODEL 7
REMARK VINA RESULT:      -4.5      2.080      3.752
REMARK  Name = 
REMARK  31 active torsions:
REMARK  status: ('A' for Active; 'I' for Inactive)
REMARK    1  A    between atoms: C_1  and  C_2
REMARK    2  A    between atoms: C_2  and  C_3
REMARK    3  A    between atoms: C_3  and  C_4
REMARK    4  A    between atoms: C_4  and  C_5
REMARK    5  A    between atoms: C_5  and  C_6
REMARK    6  A    between atoms: C_6  and  C_7
REMARK    7  A    between atoms: C_7  and  C_8
REMARK    8  A    between atoms: C_8  and  C_9
REMARK    9  A    between atoms: C_9  and  C_10
REMARK   10  A    between atoms: C_10  and  C_11
REMARK   11  A    between atoms: C_11  and  C_12
REMARK   12  A    between atoms: C_12  and  C_13
REMARK   13  A    between atoms: C_13  and  C_14
REMARK   14  A    between atoms: C_14  and  C_15
REMARK   15  A    between atoms: C_15  and  C_16
REMARK   16  A    between atoms: C_16  and  O_17
REMARK   17  A    between atoms: O_17  and  C_18
REMARK   18  A    between atoms: C_18  and  C_19
REMARK   19  A    between atoms: C_19  and  C_21
REMARK   20  A    between atoms: C_19  and  O_33
REMARK   21  A    between atoms: C_21  and  O_22
REMARK   22  A    between atoms: O_22  and  P_23
REMARK   23  A    between atoms: P_23  and  O_26
REMARK   24  A    between atoms: O_26  and  C_27
REMARK   25  A    between atoms: C_27  and  C_28
REMARK   26  A    between atoms: C_28  and  N_29
REMARK   27  A    between atoms: N_29  and  C_30
REMARK   28  A    between atoms: N_29  and  C_31
REMARK   29  A    between atoms: N_29  and  C_32
REMARK   30  A    between atoms: O_33  and  C_34
REMARK   31  A    between atoms: C_34  and  C_35
REMARK                            x       y       z     vdW  Elec       q    Type
REMARK                         _______ _______ _______ _____ _____    ______ ____
ROOT
ATOM      1  C   UNL     1       9.284  -3.687  24.853  0.00  0.00    +0.206 C 
ENDROOT
BRANCH   1   2
ATOM      2  C   UNL     1       8.248  -4.830  24.836  0.00  0.00    +0.228 C 
BRANCH   2   3
ATOM      3  C   UNL     1       7.871  -5.437  23.456  0.00  0.00    +0.214 C 
BRANCH   3   4
ATOM      4  O   UNL     1       7.433  -4.548  22.440  0.00  0.00    -0.324 OA
BRANCH   4   5
ATOM      5  P   UNL     1       5.946  -4.724  21.817  0.00  0.00    +0.213 P 
ATOM      6  O   UNL     1       5.985  -5.339  20.443  0.00  0.00    -0.517 OA
ATOM      7  O   UNL     1       5.162  -3.471  22.099  0.00  0.00    -0.437 OA
BRANCH   5   8
ATOM      8  O   UNL     1       5.290  -5.908  22.761  0.00  0.00    -0.322 OA
BRANCH   8   9
ATOM      9  C   UNL     1       4.038  -5.470  23.287  0.00  0.00    +0.218 C 
BRANCH   9  10
ATOM     10  C   UNL     1       2.924  -6.517  23.407  0.00  0.00    +0.161 C 
BRANCH  10  11
ATOM     11  N   UNL     1       2.600  -7.063  24.824  0.00  0.00    +0.239 N 
ATOM     12  C   UNL     1       1.593  -6.125  25.486  0.00  0.00    +0.192 C 
ATOM     13  C   UNL     1       3.871  -7.111  25.657  0.00  0.00    +0.192 C 
ATOM     14  C   UNL     1       1.995  -8.462  24.768  0.00  0.00    +0.192 C 
ENDBRANCH  10  11
ENDBRANCH   9  10
ENDBRANCH   8   9
ENDBRANCH   5   8
ENDBRANCH   4   5
ENDBRANCH   3   4
ENDBRANCH   2   3
BRANCH   2  15
ATOM     15  O   UNL     1       7.021  -4.449  25.550  0.00  0.00    -0.457 OA
BRANCH  15  16
ATOM     16  C   UNL     1       6.799  -4.967  26.786  0.00  0.00    +0.304 C 
ATOM     17  O   UNL     1       7.375  -5.929  27.276  0.00  0.00    -0.251 OA
ATOM     18  C   UNL     1       5.741  -4.197  27.519  0.00  0.00    +0.136 C 
ENDBRANCH  15  16
ENDBRANCH   2  15
ENDBRANCH   1   2
BRANCH   1  19
ATOM     19  O   UNL     1       8.616  -2.431  25.105  0.00  0.00    -0.376 OA
BRANCH  19  20
ATOM     20  C   UNL     1       8.604  -1.527  23.998  0.00  0.00    +0.160 C 
BRANCH  20  21
ATOM     21  C   UNL     1       9.963  -0.874  23.723  0.00  0.00    +0.028 C 
BRANCH  21  22
ATOM     22  C   UNL     1      10.396   0.113  24.807  0.00  0.00    +0.002 C 
BRANCH  22  23
ATOM     23  C   UNL     1       9.868   1.523  24.565  0.00  0.00    +0.000 C 
BRANCH  23  24
ATOM     24  C   UNL     1      10.630   2.190  23.427  0.00  0.00    +0.000 C 
BRANCH  24  25
ATOM     25  C   UNL     1       9.952   1.913  22.091  0.00  0.00    +0.000 C 
BRANCH  25  26
ATOM     26  C   UNL     1       8.612   2.620  22.021  0.00  0.00    -0.000 C 
BRANCH  26  27
ATOM     27  C   UNL     1       7.474   1.618  21.888  0.00  0.00    -0.000 C 
BRANCH  27  28
ATOM     28  C   UNL     1       6.267   2.068  22.701  0.00  0.00    -0.000 C 
BRANCH  28  29
ATOM     29  C   UNL     1       6.320   1.484  24.106  0.00  0.00    -0.000 C 
BRANCH  29  30
ATOM     30  C   UNL     1       6.044   2.563  25.146  0.00  0.00    -0.000 C 
BRANCH  30  31
ATOM     31  C   UNL     1       6.812   3.836  24.811  0.00  0.00    -0.000 C 
BRANCH  31  32
ATOM     32  C   UNL     1       7.798   4.183  25.923  0.00  0.00    -0.000 C 
BRANCH  32  33
ATOM     33  C   UNL     1       8.580   5.446  25.574  0.00  0.00    -0.000 C 
BRANCH  33  35
ATOM     34  C   UNL     1      10.334   5.936  23.845  0.00  0.00    +0.004 C 
ATOM     35  C   UNL     1       8.898   5.501  24.083  0.00  0.00    -0.003 C 
ENDBRANCH  33  35
ENDBRANCH  32  33
ENDBRANCH  31  32
ENDBRANCH  30  31
ENDBRANCH  29  30
ENDBRANCH  28  29
ENDBRANCH  27  28
ENDBRANCH  26  27
ENDBRANCH  25  26
ENDBRANCH  24  25
ENDBRANCH  23  24
ENDBRANCH  22  23
ENDBRANCH  21  22
ENDBRANCH  20  21
ENDBRANCH  19  20
ENDBRANCH   1  19
TORSDOF 26
ENDMDL
MODEL 8
REMARK VINA RESULT:      -4.5      2.291      4.670
REMARK  Name = 
REMARK  31 active torsions:
REMARK  status: ('A' for Active; 'I' for Inactive)
REMARK    1  A    between atoms: C_1  and  C_2
REMARK    2  A    between atoms: C_2  and  C_3
REMARK    3  A    between atoms: C_3  and  C_4
REMARK    4  A    between atoms: C_4  and  C_5
REMARK    5  A    between atoms: C_5  and  C_6
REMARK    6  A    between atoms: C_6  and  C_7
REMARK    7  A    between atoms: C_7  and  C_8
REMARK    8  A    between atoms: C_8  and  C_9
REMARK    9  A    between atoms: C_9  and  C_10
REMARK   10  A    between atoms: C_10  and  C_11
REMARK   11  A    between atoms: C_11  and  C_12
REMARK   12  A    between atoms: C_12  and  C_13
REMARK   13  A    between atoms: C_13  and  C_14
REMARK   14  A    between atoms: C_14  and  C_15
REMARK   15  A    between atoms: C_15  and  C_16
REMARK   16  A    between atoms: C_16  and  O_17
REMARK   17  A    between atoms: O_17  and  C_18
REMARK   18  A    between atoms: C_18  and  C_19
REMARK   19  A    between atoms: C_19  and  C_21
REMARK   20  A    between atoms: C_19  and  O_33
REMARK   21  A    between atoms: C_21  and  O_22
REMARK   22  A    between atoms: O_22  and  P_23
REMARK   23  A    between atoms: P_23  and  O_26
REMARK   24  A    between atoms: O_26  and  C_27
REMARK   25  A    between atoms: C_27  and  C_28
REMARK   26  A    between atoms: C_28  and  N_29
REMARK   27  A    between atoms: N_29  and  C_30
REMARK   28  A    between atoms: N_29  and  C_31
REMARK   29  A    between atoms: N_29  and  C_32
REMARK   30  A    between atoms: O_33  and  C_34
REMARK   31  A    between atoms: C_34  and  C_35
REMARK                            x       y       z     vdW  Elec       q    Type
REMARK                         _______ _______ _______ _____ _____    ______ ____
ROOT
ATOM      1  C   UNL     1       7.933  -2.225  24.100  0.00  0.00    +0.206 C 
ENDROOT
BRANCH   1   2
ATOM      2  C   UNL     1       8.143  -3.726  24.390  0.00  0.00    +0.228 C 
BRANCH   2   3
ATOM      3  C   UNL     1       7.871  -4.726  23.233  0.00  0.00    +0.214 C 
BRANCH   3   4
ATOM      4  O   UNL     1       6.609  -5.374  23.202  0.00  0.00    -0.324 OA
BRANCH   4   5
ATOM      5  P   UNL     1       5.557  -5.012  22.021  0.00  0.00    +0.213 P 
ATOM      6  O   UNL     1       5.933  -5.667  20.719  0.00  0.00    -0.517 OA
ATOM      7  O   UNL     1       5.240  -3.543  22.104  0.00  0.00    -0.437 OA
BRANCH   5   8
ATOM      8  O   UNL     1       4.192  -5.813  22.488  0.00  0.00    -0.322 OA
BRANCH   8   9
ATOM      9  C   UNL     1       3.605  -5.155  23.611  0.00  0.00    +0.218 C 
BRANCH   9  10
ATOM     10  C   UNL     1       3.721  -5.855  24.971  0.00  0.00    +0.161 C 
BRANCH  10  11
ATOM     11  N   UNL     1       3.103  -5.140  26.202  0.00  0.00    +0.239 N 
ATOM     12  C   UNL     1       4.030  -4.000  26.617  0.00  0.00    +0.192 C 
ATOM     13  C   UNL     1       2.967  -6.126  27.351  0.00  0.00    +0.192 C 
ATOM     14  C   UNL     1       1.728  -4.558  25.889  0.00  0.00    +0.192 C 
ENDBRANCH  10  11
ENDBRANCH   9  10
ENDBRANCH   8   9
ENDBRANCH   5   8
ENDBRANCH   4   5
ENDBRANCH   3   4
ENDBRANCH   2   3
BRANCH   2  15
ATOM     15  O   UNL     1       7.396  -4.149  25.583  0.00  0.00    -0.457 OA
BRANCH  15  16
ATOM     16  C   UNL     1       7.996  -4.993  26.463  0.00  0.00    +0.304 C 
ATOM     17  O   UNL     1       7.432  -5.840  27.143  0.00  0.00    -0.251 OA
ATOM     18  C   UNL     1       9.479  -4.775  26.507  0.00  0.00    +0.136 C 
ENDBRANCH  15  16
ENDBRANCH   2  15
ENDBRANCH   1   2
BRANCH   1  19
ATOM     19  O   UNL     1       8.890  -1.448  24.853  0.00  0.00    -0.376 OA
BRANCH  19  20
ATOM     20  C   UNL     1       8.331  -0.690  25.929  0.00  0.00    +0.160 C 
BRANCH  20  21
ATOM     21  C   UNL     1       8.268   0.816  25.653  0.00  0.00    +0.028 C 
BRANCH  21  22
ATOM     22  C   UNL     1       7.026   1.241  24.869  0.00  0.00    +0.002 C 
BRANCH  22  23
ATOM     23  C   UNL     1       6.989   2.740  24.592  0.00  0.00    +0.000 C 
BRANCH  23  24
ATOM     24  C   UNL     1       6.969   3.006  23.091  0.00  0.00    +0.000 C 
BRANCH  24  25
ATOM     25  C   UNL     1       6.899   1.697  22.315  0.00  0.00    +0.000 C 
BRANCH  25  26
ATOM     26  C   UNL     1       8.037   1.614  21.315  0.00  0.00    -0.000 C 
BRANCH  26  27
ATOM     27  C   UNL     1       8.954   0.440  21.631  0.00  0.00    -0.000 C 
BRANCH  27  28
ATOM     28  C   UNL     1      10.100   0.883  22.533  0.00  0.00    -0.000 C 
BRANCH  28  29
ATOM     29  C   UNL     1      10.499   2.319  22.224  0.00  0.00    -0.000 C 
BRANCH  29  30
ATOM     30  C   UNL     1      10.714   3.104  23.512  0.00  0.00    -0.000 C 
BRANCH  30  31
ATOM     31  C   UNL     1      11.733   4.216  23.296  0.00  0.00    -0.000 C 
BRANCH  31  32
ATOM     32  C   UNL     1      11.186   5.555  23.780  0.00  0.00    -0.000 C 
BRANCH  32  33
ATOM     33  C   UNL     1       9.712   5.431  24.155  0.00  0.00    -0.000 C 
BRANCH  33  35
ATOM     34  C   UNL     1       8.030   6.465  22.603  0.00  0.00    +0.004 C 
ATOM     35  C   UNL     1       8.944   6.698  23.794  0.00  0.00    -0.003 C 
ENDBRANCH  33  35
ENDBRANCH  32  33
ENDBRANCH  31  32
ENDBRANCH  30  31
ENDBRANCH  29  30
ENDBRANCH  28  29
ENDBRANCH  27  28
ENDBRANCH  26  27
ENDBRANCH  25  26
ENDBRANCH  24  25
ENDBRANCH  23  24
ENDBRANCH  22  23
ENDBRANCH  21  22
ENDBRANCH  20  21
ENDBRANCH  19  20
ENDBRANCH   1  19
TORSDOF 26
ENDMDL
MODEL 9
REMARK VINA RESULT:      -4.4      2.356      4.174
REMARK  Name = 
REMARK  31 active torsions:
REMARK  status: ('A' for Active; 'I' for Inactive)
REMARK    1  A    between atoms: C_1  and  C_2
REMARK    2  A    between atoms: C_2  and  C_3
REMARK    3  A    between atoms: C_3  and  C_4
REMARK    4  A    between atoms: C_4  and  C_5
REMARK    5  A    between atoms: C_5  and  C_6
REMARK    6  A    between atoms: C_6  and  C_7
REMARK    7  A    between atoms: C_7  and  C_8
REMARK    8  A    between atoms: C_8  and  C_9
REMARK    9  A    between atoms: C_9  and  C_10
REMARK   10  A    between atoms: C_10  and  C_11
REMARK   11  A    between atoms: C_11  and  C_12
REMARK   12  A    between atoms: C_12  and  C_13
REMARK   13  A    between atoms: C_13  and  C_14
REMARK   14  A    between atoms: C_14  and  C_15
REMARK   15  A    between atoms: C_15  and  C_16
REMARK   16  A    between atoms: C_16  and  O_17
REMARK   17  A    between atoms: O_17  and  C_18
REMARK   18  A    between atoms: C_18  and  C_19
REMARK   19  A    between atoms: C_19  and  C_21
REMARK   20  A    between atoms: C_19  and  O_33
REMARK   21  A    between atoms: C_21  and  O_22
REMARK   22  A    between atoms: O_22  and  P_23
REMARK   23  A    between atoms: P_23  and  O_26
REMARK   24  A    between atoms: O_26  and  C_27
REMARK   25  A    between atoms: C_27  and  C_28
REMARK   26  A    between atoms: C_28  and  N_29
REMARK   27  A    between atoms: N_29  and  C_30
REMARK   28  A    between atoms: N_29  and  C_31
REMARK   29  A    between atoms: N_29  and  C_32
REMARK   30  A    between atoms: O_33  and  C_34
REMARK   31  A    between atoms: C_34  and  C_35
REMARK                            x       y       z     vdW  Elec       q    Type
REMARK                         _______ _______ _______ _____ _____    ______ ____
ROOT
ATOM      1  C   UNL     1       9.723  -2.020  23.690  0.00  0.00    +0.206 C 
ENDROOT
BRANCH   1   2
ATOM      2  C   UNL     1       8.613  -2.994  24.139  0.00  0.00    +0.228 C 
BRANCH   2   3
ATOM      3  C   UNL     1       7.177  -2.742  23.602  0.00  0.00    +0.214 C 
BRANCH   3   4
ATOM      4  O   UNL     1       6.860  -3.227  22.307  0.00  0.00    -0.324 OA
BRANCH   4   5
ATOM      5  P   UNL     1       6.039  -4.618  22.157  0.00  0.00    +0.213 P 
ATOM      6  O   UNL     1       6.492  -5.644  23.161  0.00  0.00    -0.517 OA
ATOM      7  O   UNL     1       5.922  -4.943  20.693  0.00  0.00    -0.437 OA
BRANCH   5   8
ATOM      8  O   UNL     1       4.525  -4.206  22.667  0.00  0.00    -0.322 OA
BRANCH   8   9
ATOM      9  C   UNL     1       4.024  -5.208  23.553  0.00  0.00    +0.218 C 
BRANCH   9  10
ATOM     10  C   UNL     1       2.660  -5.821  23.215  0.00  0.00    +0.161 C 
BRANCH  10  11
ATOM     11  N   UNL     1       1.974  -6.694  24.301  0.00  0.00    +0.239 N 
ATOM     12  C   UNL     1       2.753  -6.542  25.605  0.00  0.00    +0.192 C 
ATOM     13  C   UNL     1       1.988  -8.151  23.869  0.00  0.00    +0.192 C 
ATOM     14  C   UNL     1       0.531  -6.266  24.545  0.00  0.00    +0.192 C 
ENDBRANCH  10  11
ENDBRANCH   9  10
ENDBRANCH   8   9
ENDBRANCH   5   8
ENDBRANCH   4   5
ENDBRANCH   3   4
ENDBRANCH   2   3
BRANCH   2  15
ATOM     15  O   UNL     1       8.570  -3.115  25.603  0.00  0.00    -0.457 OA
BRANCH  15  16
ATOM     16  C   UNL     1       8.696  -4.348  26.159  0.00  0.00    +0.304 C 
ATOM     17  O   UNL     1       8.101  -4.754  27.150  0.00  0.00    -0.251 OA
ATOM     18  C   UNL     1       9.670  -5.196  25.397  0.00  0.00    +0.136 C 
ENDBRANCH  15  16
ENDBRANCH   2  15
ENDBRANCH   1   2
BRANCH   1  19
ATOM     19  O   UNL     1       9.845  -2.056  22.251  0.00  0.00    -0.376 OA
BRANCH  19  20
ATOM     20  C   UNL     1       9.804  -0.776  21.615  0.00  0.00    +0.160 C 
BRANCH  20  21
ATOM     21  C   UNL     1       9.304   0.348  22.528  0.00  0.00    +0.028 C 
BRANCH  21  22
ATOM     22  C   UNL     1       8.975   1.640  21.780  0.00  0.00    +0.002 C 
BRANCH  22  23
ATOM     23  C   UNL     1       7.488   1.979  21.814  0.00  0.00    +0.000 C 
BRANCH  23  24
ATOM     24  C   UNL     1       7.285   3.489  21.808  0.00  0.00    +0.000 C 
BRANCH  24  25
ATOM     25  C   UNL     1       5.957   3.855  22.460  0.00  0.00    +0.000 C 
BRANCH  25  26
ATOM     26  C   UNL     1       5.950   5.319  22.859  0.00  0.00    -0.000 C 
BRANCH  26  27
ATOM     27  C   UNL     1       7.102   6.067  22.202  0.00  0.00    -0.000 C 
BRANCH  27  28
ATOM     28  C   UNL     1       7.892   6.853  23.240  0.00  0.00    -0.000 C 
BRANCH  28  29
ATOM     29  C   UNL     1       9.296   6.285  23.387  0.00  0.00    -0.000 C 
BRANCH  29  30
ATOM     30  C   UNL     1       9.644   6.087  24.858  0.00  0.00    -0.000 C 
BRANCH  30  31
ATOM     31  C   UNL     1       8.569   5.262  25.554  0.00  0.00    -0.000 C 
BRANCH  31  32
ATOM     32  C   UNL     1       8.645   3.800  25.127  0.00  0.00    -0.000 C 
BRANCH  32  33
ATOM     33  C   UNL     1       7.441   3.022  25.652  0.00  0.00    -0.000 C 
BRANCH  33  35
ATOM     34  C   UNL     1       6.304   0.788  25.505  0.00  0.00    +0.004 C 
ATOM     35  C   UNL     1       7.634   1.521  25.467  0.00  0.00    -0.003 C 
ENDBRANCH  33  35
ENDBRANCH  32  33
ENDBRANCH  31  32
ENDBRANCH  30  31
ENDBRANCH  29  30
ENDBRANCH  28  29
ENDBRANCH  27  28
ENDBRANCH  26  27
ENDBRANCH  25  26
ENDBRANCH  24  25
ENDBRANCH  23  24
ENDBRANCH  22  23
ENDBRANCH  21  22
ENDBRANCH  20  21
ENDBRANCH  19  20
ENDBRANCH   1  19
TORSDOF 26
ENDMDL
