MODEL 1
REMARK VINA RESULT:      -8.1      0.000      0.000
REMARK  Name = 
REMARK  4 active torsions:
REMARK  status: ('A' for Active; 'I' for Inactive)
REMARK    1  A    between atoms: C_6  and  N_7
REMARK    2  A    between atoms: C_14  and  C_15
REMARK    3  A    between atoms: C_15  and  C_16
REMARK    4  A    between atoms: C_16  and  N_17
REMARK                            x       y       z     vdW  Elec       q    Type
REMARK                         _______ _______ _______ _____ _____    ______ ____
ROOT
ATOM      1  N   UNL     1       9.654   1.610  23.728  0.00  0.00    -0.269 N 
ATOM      2  H   UNL     1       9.306   1.206  24.597  0.00  0.00    +0.156 HD
ATOM      3  C   UNL     1       9.674   0.752  22.660  0.00  0.00    +0.310 C 
ATOM      4  N   UNL     1       9.507  -0.575  22.931  0.00  0.00    -0.248 N 
ATOM      5  H   UNL     1       9.597  -1.195  22.143  0.00  0.00    +0.158 HD
ATOM      6  C   UNL     1       9.217  -1.111  24.147  0.00  0.00    +0.166 A 
ATOM      7  S   UNL     1       9.181  -2.809  24.201  0.00  0.00    -0.057 S 
ATOM      8  C   UNL     1       8.773  -2.724  25.870  0.00  0.00    +0.013 A 
ATOM      9  C   UNL     1       8.693  -1.393  26.246  0.00  0.00    +0.124 A 
ATOM     10  N   UNL     1       8.962  -0.470  25.259  0.00  0.00    -0.233 NA
ATOM     11  O   UNL     1       9.853   1.071  21.485  0.00  0.00    -0.252 OA
ENDROOT
BRANCH   1  15
ATOM     12 CL   UNL     1      13.229   5.161  22.956  0.00  0.00    -0.083 Cl
ATOM     13  C   UNL     1      11.623   4.706  23.376  0.00  0.00    +0.043 A 
ATOM     14  C   UNL     1      11.258   3.358  23.360  0.00  0.00    +0.043 A 
ATOM     15  C   UNL     1       9.964   2.982  23.735  0.00  0.00    +0.036 A 
ATOM     16  C   UNL     1       9.037   3.972  24.073  0.00  0.00    +0.023 A 
ATOM     17  C   UNL     1       9.404   5.319  24.076  0.00  0.00    +0.003 A 
ATOM     18  C   UNL     1      10.703   5.690  23.737  0.00  0.00    +0.020 A 
ENDBRANCH   1  15
BRANCH   8  19
ATOM     19  C   UNL     1       8.567  -3.979  26.664  0.00  0.00    +0.062 C 
BRANCH  19  20
ATOM     20  C   UNL     1       8.216  -5.178  25.784  0.00  0.00    +0.108 C 
BRANCH  20  21
ATOM     21  N   UNL     1       6.812  -5.540  25.905  0.00  0.00    -0.328 N 
ATOM     22  H   UNL     1       6.573  -6.325  26.502  0.00  0.00    +0.147 HD
ATOM     23  C   UNL     1       6.108  -5.552  24.696  0.00  0.00    +0.136 A 
ATOM     24  C   UNL     1       4.812  -6.071  24.580  0.00  0.00    +0.077 A 
ATOM     25  S   UNL     1       3.800  -6.797  25.771  0.00  0.00    -0.092 S 
ATOM     26  C   UNL     1       2.514  -6.996  24.663  0.00  0.00    +0.048 A 
ATOM     27  C   UNL     1       2.844  -6.545  23.407  0.00  0.00    +0.036 A 
ATOM     28  C   UNL     1       4.167  -6.017  23.348  0.00  0.00    +0.083 A 
ATOM     29  N   UNL     1       4.744  -5.503  22.235  0.00  0.00    -0.235 NA
ATOM     30  C   UNL     1       5.977  -5.037  22.434  0.00  0.00    +0.223 A 
ATOM     31  N   UNL     1       6.670  -5.029  23.582  0.00  0.00    -0.220 NA
ENDBRANCH  20  21
ENDBRANCH  19  20
ENDBRANCH   8  19
TORSDOF 4
ENDMDL
MODEL 2
REMARK VINA RESULT:      -8.0      4.144     10.304
REMARK  Name = 
REMARK  4 active torsions:
REMARK  status: ('A' for Active; 'I' for Inactive)
REMARK    1  A    between atoms: C_6  and  N_7
REMARK    2  A    between atoms: C_14  and  C_15
REMARK    3  A    between atoms: C_15  and  C_16
REMARK    4  A    between atoms: C_16  and  N_17
REMARK                            x       y       z     vdW  Elec       q    Type
REMARK                         _______ _______ _______ _____ _____    ______ ____
ROOT
ATOM      1  N   UNL     1       7.709  -4.111  25.273  0.00  0.00    -0.269 N 
ATOM      2  H   UNL     1       7.352  -3.216  24.941  0.00  0.00    +0.156 HD
ATOM      3  C   UNL     1       9.065  -4.272  25.151  0.00  0.00    +0.310 C 
ATOM      4  N   UNL     1       9.726  -3.372  24.367  0.00  0.00    -0.248 N 
ATOM      5  H   UNL     1      10.708  -3.549  24.233  0.00  0.00    +0.158 HD
ATOM      6  C   UNL     1       9.181  -2.271  23.783  0.00  0.00    +0.166 A 
ATOM      7  S   UNL     1      10.226  -1.398  22.766  0.00  0.00    -0.057 S 
ATOM      8  C   UNL     1       8.957  -0.276  22.465  0.00  0.00    +0.013 A 
ATOM      9  C   UNL     1       7.835  -0.665  23.177  0.00  0.00    +0.124 A 
ATOM     10  N   UNL     1       7.961  -1.818  23.922  0.00  0.00    -0.233 NA
ATOM     11  O   UNL     1       9.732  -5.169  25.667  0.00  0.00    -0.252 OA
ENDROOT
BRANCH   1  15
ATOM     12 CL   UNL     1       3.751  -7.249  24.589  0.00  0.00    -0.083 Cl
ATOM     13  C   UNL     1       4.915  -6.492  25.605  0.00  0.00    +0.043 A 
ATOM     14  C   UNL     1       5.865  -5.633  25.049  0.00  0.00    +0.043 A 
ATOM     15  C   UNL     1       6.791  -4.987  25.877  0.00  0.00    +0.036 A 
ATOM     16  C   UNL     1       6.780  -5.254  27.249  0.00  0.00    +0.023 A 
ATOM     17  C   UNL     1       5.835  -6.123  27.798  0.00  0.00    +0.003 A 
ATOM     18  C   UNL     1       4.892  -6.737  26.978  0.00  0.00    +0.020 A 
ENDBRANCH   1  15
BRANCH   8  19
ATOM     19  C   UNL     1       9.179   0.891  21.550  0.00  0.00    +0.062 C 
BRANCH  19  20
ATOM     20  C   UNL     1      10.167   1.905  22.125  0.00  0.00    +0.108 C 
BRANCH  20  21
ATOM     21  N   UNL     1       9.514   2.841  23.028  0.00  0.00    -0.328 N 
ATOM     22  H   UNL     1       8.552   3.097  22.833  0.00  0.00    +0.147 HD
ATOM     23  C   UNL     1      10.299   3.940  23.394  0.00  0.00    +0.136 A 
ATOM     24  C   UNL     1       9.780   5.044  24.082  0.00  0.00    +0.077 A 
ATOM     25  S   UNL     1       8.172   5.359  24.618  0.00  0.00    -0.092 S 
ATOM     26  C   UNL     1       8.626   6.838  25.344  0.00  0.00    +0.048 A 
ATOM     27  C   UNL     1       9.963   7.108  25.169  0.00  0.00    +0.036 A 
ATOM     28  C   UNL     1      10.634   6.085  24.438  0.00  0.00    +0.083 A 
ATOM     29  N   UNL     1      11.952   6.096  24.128  0.00  0.00    -0.235 NA
ATOM     30  C   UNL     1      12.360   5.011  23.469  0.00  0.00    +0.223 A 
ATOM     31  N   UNL     1      11.620   3.955  23.101  0.00  0.00    -0.220 NA
ENDBRANCH  20  21
ENDBRANCH  19  20
ENDBRANCH   8  19
TORSDOF 4
ENDMDL
MODEL 3
REMARK VINA RESULT:      -7.8      1.917      2.911
REMARK  Name = 
REMARK  4 active torsions:
REMARK  status: ('A' for Active; 'I' for Inactive)
REMARK    1  A    between atoms: C_6  and  N_7
REMARK    2  A    between atoms: C_14  and  C_15
REMARK    3  A    between atoms: C_15  and  C_16
REMARK    4  A    between atoms: C_16  and  N_17
REMARK                            x       y       z     vdW  Elec       q    Type
REMARK                         _______ _______ _______ _____ _____    ______ ____
ROOT
ATOM      1  N   UNL     1       9.792   1.599  23.787  0.00  0.00    -0.269 N 
ATOM      2  H   UNL     1       8.960   1.301  23.280  0.00  0.00    +0.156 HD
ATOM      3  C   UNL     1      10.569   0.579  24.272  0.00  0.00    +0.310 C 
ATOM      4  N   UNL     1      10.017  -0.669  24.274  0.00  0.00    -0.248 N 
ATOM      5  H   UNL     1      10.576  -1.392  24.700  0.00  0.00    +0.158 HD
ATOM      6  C   UNL     1       8.813  -1.011  23.744  0.00  0.00    +0.166 A 
ATOM      7  S   UNL     1       8.338  -2.623  24.000  0.00  0.00    -0.057 S 
ATOM      8  C   UNL     1       6.895  -2.314  23.115  0.00  0.00    +0.013 A 
ATOM      9  C   UNL     1       6.902  -0.995  22.691  0.00  0.00    +0.124 A 
ATOM     10  N   UNL     1       7.996  -0.246  23.065  0.00  0.00    -0.233 NA
ATOM     11  O   UNL     1      11.707   0.695  24.725  0.00  0.00    -0.252 OA
ENDROOT
BRANCH   1  15
ATOM     12 CL   UNL     1      13.147   5.307  22.800  0.00  0.00    -0.083 Cl
ATOM     13  C   UNL     1      11.615   4.776  23.376  0.00  0.00    +0.043 A 
ATOM     14  C   UNL     1      11.291   3.418  23.330  0.00  0.00    +0.043 A 
ATOM     15  C   UNL     1      10.060   2.978  23.830  0.00  0.00    +0.036 A 
ATOM     16  C   UNL     1       9.150   3.918  24.324  0.00  0.00    +0.023 A 
ATOM     17  C   UNL     1       9.474   5.275  24.356  0.00  0.00    +0.003 A 
ATOM     18  C   UNL     1      10.713   5.708  23.891  0.00  0.00    +0.020 A 
ENDBRANCH   1  15
BRANCH   8  19
ATOM     19  C   UNL     1       5.882  -3.400  22.916  0.00  0.00    +0.062 C 
BRANCH  19  20
ATOM     20  C   UNL     1       6.388  -4.765  23.380  0.00  0.00    +0.108 C 
BRANCH  20  21
ATOM     21  N   UNL     1       5.446  -5.410  24.282  0.00  0.00    -0.328 N 
ATOM     22  H   UNL     1       4.475  -5.117  24.244  0.00  0.00    +0.147 HD
ATOM     23  C   UNL     1       5.909  -5.565  25.593  0.00  0.00    +0.136 A 
ATOM     24  C   UNL     1       5.079  -5.971  26.645  0.00  0.00    +0.077 A 
ATOM     25  S   UNL     1       3.397  -6.348  26.647  0.00  0.00    -0.092 S 
ATOM     26  C   UNL     1       3.414  -6.755  28.306  0.00  0.00    +0.048 A 
ATOM     27  C   UNL     1       4.661  -6.591  28.862  0.00  0.00    +0.036 A 
ATOM     28  C   UNL     1       5.624  -6.134  27.916  0.00  0.00    +0.083 A 
ATOM     29  N   UNL     1       6.927  -5.893  28.196  0.00  0.00    -0.235 NA
ATOM     30  C   UNL     1       7.643  -5.506  27.139  0.00  0.00    +0.223 A 
ATOM     31  N   UNL     1       7.212  -5.340  25.880  0.00  0.00    -0.220 NA
ENDBRANCH  20  21
ENDBRANCH  19  20
ENDBRANCH   8  19
TORSDOF 4
ENDMDL
MODEL 4
REMARK VINA RESULT:      -7.7      4.336      9.681
REMARK  Name = 
REMARK  4 active torsions:
REMARK  status: ('A' for Active; 'I' for Inactive)
REMARK    1  A    between atoms: C_6  and  N_7
REMARK    2  A    between atoms: C_14  and  C_15
REMARK    3  A    between atoms: C_15  and  C_16
REMARK    4  A    between atoms: C_16  and  N_17
REMARK                            x       y       z     vdW  Elec       q    Type
REMARK                         _______ _______ _______ _____ _____    ______ ____
ROOT
ATOM      1  N   UNL     1       7.714  -4.215  25.415  0.00  0.00    -0.269 N 
ATOM      2  H   UNL     1       7.357  -3.339  25.038  0.00  0.00    +0.156 HD
ATOM      3  C   UNL     1       9.066  -4.396  25.276  0.00  0.00    +0.310 C 
ATOM      4  N   UNL     1       9.717  -3.549  24.427  0.00  0.00    -0.248 N 
ATOM      5  H   UNL     1      10.695  -3.743  24.283  0.00  0.00    +0.158 HD
ATOM      6  C   UNL     1       9.168  -2.480  23.789  0.00  0.00    +0.166 A 
ATOM      7  S   UNL     1      10.198  -1.678  22.701  0.00  0.00    -0.057 S 
ATOM      8  C   UNL     1       8.931  -0.565  22.359  0.00  0.00    +0.013 A 
ATOM      9  C   UNL     1       7.821  -0.901  23.116  0.00  0.00    +0.124 A 
ATOM     10  N   UNL     1       7.955  -2.009  23.925  0.00  0.00    -0.233 NA
ATOM     11  O   UNL     1       9.736  -5.266  25.831  0.00  0.00    -0.252 OA
ENDROOT
BRANCH   1  15
ATOM     12 CL   UNL     1       3.767  -7.414  24.993  0.00  0.00    -0.083 Cl
ATOM     13  C   UNL     1       4.932  -6.575  25.942  0.00  0.00    +0.043 A 
ATOM     14  C   UNL     1       5.876  -5.757  25.318  0.00  0.00    +0.043 A 
ATOM     15  C   UNL     1       6.802  -5.046  26.089  0.00  0.00    +0.036 A 
ATOM     16  C   UNL     1       6.798  -5.206  27.478  0.00  0.00    +0.023 A 
ATOM     17  C   UNL     1       5.859  -6.035  28.097  0.00  0.00    +0.003 A 
ATOM     18  C   UNL     1       4.915  -6.714  27.330  0.00  0.00    +0.020 A 
ENDBRANCH   1  15
BRANCH   8  19
ATOM     19  C   UNL     1       9.143   0.544  21.373  0.00  0.00    +0.062 C 
BRANCH  19  20
ATOM     20  C   UNL     1       9.769   1.784  22.011  0.00  0.00    +0.108 C 
BRANCH  20  21
ATOM     21  N   UNL     1       8.878   2.931  21.945  0.00  0.00    -0.328 N 
ATOM     22  H   UNL     1       9.149   3.711  21.354  0.00  0.00    +0.147 HD
ATOM     23  C   UNL     1       8.371   3.346  23.181  0.00  0.00    +0.136 A 
ATOM     24  C   UNL     1       7.669   4.547  23.347  0.00  0.00    +0.077 A 
ATOM     25  S   UNL     1       7.272   5.765  22.193  0.00  0.00    -0.092 S 
ATOM     26  C   UNL     1       6.417   6.686  23.351  0.00  0.00    +0.048 A 
ATOM     27  C   UNL     1       6.445   6.101  24.595  0.00  0.00    +0.036 A 
ATOM     28  C   UNL     1       7.169   4.874  24.604  0.00  0.00    +0.083 A 
ATOM     29  N   UNL     1       7.349   4.092  25.695  0.00  0.00    -0.235 NA
ATOM     30  C   UNL     1       8.032   2.973  25.450  0.00  0.00    +0.223 A 
ATOM     31  N   UNL     1       8.534   2.566  24.275  0.00  0.00    -0.220 NA
ENDBRANCH  20  21
ENDBRANCH  19  20
ENDBRANCH   8  19
TORSDOF 4
ENDMDL
MODEL 5
REMARK VINA RESULT:      -7.7      1.905      2.675
REMARK  Name = 
REMARK  4 active torsions:
REMARK  status: ('A' for Active; 'I' for Inactive)
REMARK    1  A    between atoms: C_6  and  N_7
REMARK    2  A    between atoms: C_14  and  C_15
REMARK    3  A    between atoms: C_15  and  C_16
REMARK    4  A    between atoms: C_16  and  N_17
REMARK                            x       y       z     vdW  Elec       q    Type
REMARK                         _______ _______ _______ _____ _____    ______ ____
ROOT
ATOM      1  N   UNL     1       9.279   1.985  23.486  0.00  0.00    -0.269 N 
ATOM      2  H   UNL     1       9.454   1.313  24.231  0.00  0.00    +0.156 HD
ATOM      3  C   UNL     1       8.468   1.533  22.478  0.00  0.00    +0.310 C 
ATOM      4  N   UNL     1       8.225   0.191  22.436  0.00  0.00    -0.248 N 
ATOM      5  H   UNL     1       7.687  -0.131  21.648  0.00  0.00    +0.158 HD
ATOM      6  C   UNL     1       8.626  -0.722  23.361  0.00  0.00    +0.166 A 
ATOM      7  S   UNL     1       8.275  -2.341  22.982  0.00  0.00    -0.057 S 
ATOM      8  C   UNL     1       8.991  -2.820  24.472  0.00  0.00    +0.013 A 
ATOM      9  C   UNL     1       9.436  -1.692  25.140  0.00  0.00    +0.124 A 
ATOM     10  N   UNL     1       9.238  -0.490  24.495  0.00  0.00    -0.233 NA
ATOM     11  O   UNL     1       7.961   2.226  21.597  0.00  0.00    -0.252 OA
ENDROOT
BRANCH   1  15
ATOM     12 CL   UNL     1      13.371   4.989  23.014  0.00  0.00    -0.083 Cl
ATOM     13  C   UNL     1      11.721   4.746  23.437  0.00  0.00    +0.043 A 
ATOM     14  C   UNL     1      11.141   3.487  23.271  0.00  0.00    +0.043 A 
ATOM     15  C   UNL     1       9.809   3.277  23.647  0.00  0.00    +0.036 A 
ATOM     16  C   UNL     1       9.063   4.352  24.140  0.00  0.00    +0.023 A 
ATOM     17  C   UNL     1       9.645   5.612  24.293  0.00  0.00    +0.003 A 
ATOM     18  C   UNL     1      10.980   5.811  23.951  0.00  0.00    +0.020 A 
ENDBRANCH   1  15
BRANCH   8  19
ATOM     19  C   UNL     1       9.051  -4.269  24.852  0.00  0.00    +0.062 C 
BRANCH  19  20
ATOM     20  C   UNL     1       8.292  -4.567  26.146  0.00  0.00    +0.108 C 
BRANCH  20  21
ATOM     21  N   UNL     1       6.923  -4.980  25.883  0.00  0.00    -0.328 N 
ATOM     22  H   UNL     1       6.312  -4.328  25.402  0.00  0.00    +0.147 HD
ATOM     23  C   UNL     1       6.290  -5.614  26.958  0.00  0.00    +0.136 A 
ATOM     24  C   UNL     1       4.917  -5.896  26.969  0.00  0.00    +0.077 A 
ATOM     25  S   UNL     1       3.710  -5.564  25.784  0.00  0.00    -0.092 S 
ATOM     26  C   UNL     1       2.491  -6.327  26.707  0.00  0.00    +0.048 A 
ATOM     27  C   UNL     1       2.975  -6.807  27.901  0.00  0.00    +0.036 A 
ATOM     28  C   UNL     1       4.369  -6.557  28.064  0.00  0.00    +0.083 A 
ATOM     29  N   UNL     1       5.098  -6.926  29.144  0.00  0.00    -0.235 NA
ATOM     30  C   UNL     1       6.392  -6.615  29.053  0.00  0.00    +0.223 A 
ATOM     31  N   UNL     1       7.012  -5.998  28.036  0.00  0.00    -0.220 NA
ENDBRANCH  20  21
ENDBRANCH  19  20
ENDBRANCH   8  19
TORSDOF 4
ENDMDL
MODEL 6
REMARK VINA RESULT:      -7.5      4.014      9.634
REMARK  Name = 
REMARK  4 active torsions:
REMARK  status: ('A' for Active; 'I' for Inactive)
REMARK    1  A    between atoms: C_6  and  N_7
REMARK    2  A    between atoms: C_14  and  C_15
REMARK    3  A    between atoms: C_15  and  C_16
REMARK    4  A    between atoms: C_16  and  N_17
REMARK                            x       y       z     vdW  Elec       q    Type
REMARK                         _______ _______ _______ _____ _____    ______ ____
ROOT
ATOM      1  N   UNL     1       6.062  -4.843  23.792  0.00  0.00    -0.269 N 
ATOM      2  H   UNL     1       6.371  -4.232  24.547  0.00  0.00    +0.156 HD
ATOM      3  C   UNL     1       6.912  -4.911  22.719  0.00  0.00    +0.310 C 
ATOM      4  N   UNL     1       7.900  -3.971  22.654  0.00  0.00    -0.248 N 
ATOM      5  H   UNL     1       8.469  -3.994  21.823  0.00  0.00    +0.158 HD
ATOM      6  C   UNL     1       8.181  -3.042  23.605  0.00  0.00    +0.166 A 
ATOM      7  S   UNL     1       9.397  -1.927  23.194  0.00  0.00    -0.057 S 
ATOM      8  C   UNL     1       9.207  -1.187  24.735  0.00  0.00    +0.013 A 
ATOM      9  C   UNL     1       8.227  -1.864  25.441  0.00  0.00    +0.124 A 
ATOM     10  N   UNL     1       7.630  -2.919  24.786  0.00  0.00    -0.233 NA
ATOM     11  O   UNL     1       6.849  -5.729  21.802  0.00  0.00    -0.252 OA
ENDROOT
BRANCH   1  15
ATOM     12 CL   UNL     1       1.085  -5.270  22.773  0.00  0.00    -0.083 Cl
ATOM     13  C   UNL     1       2.519  -5.829  23.544  0.00  0.00    +0.043 A 
ATOM     14  C   UNL     1       3.722  -5.148  23.347  0.00  0.00    +0.043 A 
ATOM     15  C   UNL     1       4.882  -5.578  24.001  0.00  0.00    +0.036 A 
ATOM     16  C   UNL     1       4.827  -6.721  24.805  0.00  0.00    +0.023 A 
ATOM     17  C   UNL     1       3.624  -7.405  24.989  0.00  0.00    +0.003 A 
ATOM     18  C   UNL     1       2.463  -6.954  24.366  0.00  0.00    +0.020 A 
ENDBRANCH   1  15
BRANCH   8  19
ATOM     19  C   UNL     1      10.043  -0.002  25.114  0.00  0.00    +0.062 C 
BRANCH  19  20
ATOM     20  C   UNL     1      10.676   0.680  23.901  0.00  0.00    +0.108 C 
BRANCH  20  21
ATOM     21  N   UNL     1      10.435   2.114  23.904  0.00  0.00    -0.328 N 
ATOM     22  H   UNL     1      10.573   2.619  24.774  0.00  0.00    +0.147 HD
ATOM     23  C   UNL     1       9.273   2.510  23.233  0.00  0.00    +0.136 A 
ATOM     24  C   UNL     1       8.766   3.814  23.302  0.00  0.00    +0.077 A 
ATOM     25  S   UNL     1       9.354   5.186  24.165  0.00  0.00    -0.092 S 
ATOM     26  C   UNL     1       8.120   6.194  23.548  0.00  0.00    +0.048 A 
ATOM     27  C   UNL     1       7.262   5.509  22.721  0.00  0.00    +0.036 A 
ATOM     28  C   UNL     1       7.621   4.137  22.579  0.00  0.00    +0.083 A 
ATOM     29  N   UNL     1       6.950   3.237  21.821  0.00  0.00    -0.235 NA
ATOM     30  C   UNL     1       7.497   2.021  21.816  0.00  0.00    +0.223 A 
ATOM     31  N   UNL     1       8.602   1.623  22.462  0.00  0.00    -0.220 NA
ENDBRANCH  20  21
ENDBRANCH  19  20
ENDBRANCH   8  19
TORSDOF 4
ENDMDL
MODEL 7
REMARK VINA RESULT:      -7.4      2.732      4.137
REMARK  Name = 
REMARK  4 active torsions:
REMARK  status: ('A' for Active; 'I' for Inactive)
REMARK    1  A    between atoms: C_6  and  N_7
REMARK    2  A    between atoms: C_14  and  C_15
REMARK    3  A    between atoms: C_15  and  C_16
REMARK    4  A    between atoms: C_16  and  N_17
REMARK                            x       y       z     vdW  Elec       q    Type
REMARK                         _______ _______ _______ _____ _____    ______ ____
ROOT
ATOM      1  N   UNL     1       8.455  -0.729  22.828  0.00  0.00    -0.269 N 
ATOM      2  H   UNL     1       7.461  -0.949  22.840  0.00  0.00    +0.156 HD
ATOM      3  C   UNL     1       9.275  -1.775  22.493  0.00  0.00    +0.310 C 
ATOM      4  N   UNL     1       8.717  -3.020  22.493  0.00  0.00    -0.248 N 
ATOM      5  H   UNL     1       9.352  -3.782  22.314  0.00  0.00    +0.158 HD
ATOM      6  C   UNL     1       7.403  -3.306  22.691  0.00  0.00    +0.166 A 
ATOM      7  S   UNL     1       7.021  -4.961  22.750  0.00  0.00    -0.057 S 
ATOM      8  C   UNL     1       5.367  -4.548  22.978  0.00  0.00    +0.013 A 
ATOM      9  C   UNL     1       5.245  -3.168  22.984  0.00  0.00    +0.124 A 
ATOM     10  N   UNL     1       6.416  -2.458  22.833  0.00  0.00    -0.233 NA
ATOM     11  O   UNL     1      10.471  -1.691  22.215  0.00  0.00    -0.252 OA
ENDROOT
BRANCH   1  15
ATOM     12 CL   UNL     1       7.279   4.181  22.123  0.00  0.00    -0.083 Cl
ATOM     13  C   UNL     1       8.305   2.953  22.758  0.00  0.00    +0.043 A 
ATOM     14  C   UNL     1       7.972   1.610  22.576  0.00  0.00    +0.043 A 
ATOM     15  C   UNL     1       8.821   0.609  23.060  0.00  0.00    +0.036 A 
ATOM     16  C   UNL     1       9.971   0.974  23.767  0.00  0.00    +0.023 A 
ATOM     17  C   UNL     1      10.294   2.319  23.956  0.00  0.00    +0.003 A 
ATOM     18  C   UNL     1       9.466   3.314  23.443  0.00  0.00    +0.020 A 
ENDBRANCH   1  15
BRANCH   8  19
ATOM     19  C   UNL     1       4.332  -5.621  23.131  0.00  0.00    +0.062 C 
BRANCH  19  20
ATOM     20  C   UNL     1       4.783  -6.741  24.069  0.00  0.00    +0.108 C 
BRANCH  20  21
ATOM     21  N   UNL     1       4.143  -6.642  25.371  0.00  0.00    -0.328 N 
ATOM     22  H   UNL     1       3.207  -6.253  25.413  0.00  0.00    +0.147 HD
ATOM     23  C   UNL     1       4.971  -6.160  26.391  0.00  0.00    +0.136 A 
ATOM     24  C   UNL     1       4.484  -5.803  27.655  0.00  0.00    +0.077 A 
ATOM     25  S   UNL     1       2.873  -5.829  28.269  0.00  0.00    -0.092 S 
ATOM     26  C   UNL     1       3.375  -5.297  29.813  0.00  0.00    +0.048 A 
ATOM     27  C   UNL     1       4.732  -5.080  29.866  0.00  0.00    +0.036 A 
ATOM     28  C   UNL     1       5.377  -5.361  28.627  0.00  0.00    +0.083 A 
ATOM     29  N   UNL     1       6.708  -5.235  28.403  0.00  0.00    -0.235 NA
ATOM     30  C   UNL     1       7.084  -5.591  27.174  0.00  0.00    +0.223 A 
ATOM     31  N   UNL     1       6.303  -6.043  26.182  0.00  0.00    -0.220 NA
ENDBRANCH  20  21
ENDBRANCH  19  20
ENDBRANCH   8  19
TORSDOF 4
ENDMDL
MODEL 8
REMARK VINA RESULT:      -7.2      3.110      4.170
REMARK  Name = 
REMARK  4 active torsions:
REMARK  status: ('A' for Active; 'I' for Inactive)
REMARK    1  A    between atoms: C_6  and  N_7
REMARK    2  A    between atoms: C_14  and  C_15
REMARK    3  A    between atoms: C_15  and  C_16
REMARK    4  A    between atoms: C_16  and  N_17
REMARK                            x       y       z     vdW  Elec       q    Type
REMARK                         _______ _______ _______ _____ _____    ______ ____
ROOT
ATOM      1  N   UNL     1       7.772   3.707  23.774  0.00  0.00    -0.269 N 
ATOM      2  H   UNL     1       8.131   3.015  23.118  0.00  0.00    +0.156 HD
ATOM      3  C   UNL     1       8.084   3.474  25.088  0.00  0.00    +0.310 C 
ATOM      4  N   UNL     1       8.576   2.239  25.396  0.00  0.00    -0.248 N 
ATOM      5  H   UNL     1       8.732   2.064  26.375  0.00  0.00    +0.158 HD
ATOM      6  C   UNL     1       8.882   1.257  24.506  0.00  0.00    +0.166 A 
ATOM      7  S   UNL     1       9.368  -0.219  25.194  0.00  0.00    -0.057 S 
ATOM      8  C   UNL     1       9.578  -0.860  23.610  0.00  0.00    +0.013 A 
ATOM      9  C   UNL     1       9.261   0.119  22.684  0.00  0.00    +0.124 A 
ATOM     10  N   UNL     1       8.849   1.328  23.200  0.00  0.00    -0.233 NA
ATOM     11  O   UNL     1       7.939   4.271  26.014  0.00  0.00    -0.252 OA
ENDROOT
BRANCH   1  15
ATOM     12 CL   UNL     1       3.301   6.055  23.076  0.00  0.00    -0.083 Cl
ATOM     13  C   UNL     1       5.009   5.978  22.881  0.00  0.00    +0.043 A 
ATOM     14  C   UNL     1       5.721   4.905  23.421  0.00  0.00    +0.043 A 
ATOM     15  C   UNL     1       7.105   4.821  23.234  0.00  0.00    +0.036 A 
ATOM     16  C   UNL     1       7.763   5.846  22.548  0.00  0.00    +0.023 A 
ATOM     17  C   UNL     1       7.049   6.923  22.020  0.00  0.00    +0.003 A 
ATOM     18  C   UNL     1       5.666   6.987  22.176  0.00  0.00    +0.020 A 
ENDBRANCH   1  15
BRANCH   8  19
ATOM     19  C   UNL     1      10.037  -2.275  23.421  0.00  0.00    +0.062 C 
BRANCH  19  20
ATOM     20  C   UNL     1       9.497  -3.215  24.498  0.00  0.00    +0.108 C 
BRANCH  20  21
ATOM     21  N   UNL     1       8.398  -4.027  24.002  0.00  0.00    -0.328 N 
ATOM     22  H   UNL     1       7.795  -3.628  23.289  0.00  0.00    +0.147 HD
ATOM     23  C   UNL     1       7.679  -4.703  24.994  0.00  0.00    +0.136 A 
ATOM     24  C   UNL     1       6.471  -5.364  24.736  0.00  0.00    +0.077 A 
ATOM     25  S   UNL     1       5.582  -5.512  23.267  0.00  0.00    -0.092 S 
ATOM     26  C   UNL     1       4.392  -6.495  24.000  0.00  0.00    +0.048 A 
ATOM     27  C   UNL     1       4.643  -6.694  25.337  0.00  0.00    +0.036 A 
ATOM     28  C   UNL     1       5.833  -6.041  25.771  0.00  0.00    +0.083 A 
ATOM     29  N   UNL     1       6.314  -6.075  27.037  0.00  0.00    -0.235 NA
ATOM     30  C   UNL     1       7.463  -5.417  27.195  0.00  0.00    +0.223 A 
ATOM     31  N   UNL     1       8.158  -4.755  26.258  0.00  0.00    -0.220 NA
ENDBRANCH  20  21
ENDBRANCH  19  20
ENDBRANCH   8  19
TORSDOF 4
ENDMDL
MODEL 9
REMARK VINA RESULT:      -7.1      4.113      8.642
REMARK  Name = 
REMARK  4 active torsions:
REMARK  status: ('A' for Active; 'I' for Inactive)
REMARK    1  A    between atoms: C_6  and  N_7
REMARK    2  A    between atoms: C_14  and  C_15
REMARK    3  A    between atoms: C_15  and  C_16
REMARK    4  A    between atoms: C_16  and  N_17
REMARK                            x       y       z     vdW  Elec       q    Type
REMARK                         _______ _______ _______ _____ _____    ______ ____
ROOT
ATOM      1  N   UNL     1       7.029  -4.304  24.012  0.00  0.00    -0.269 N 
ATOM      2  H   UNL     1       7.541  -3.748  24.695  0.00  0.00    +0.156 HD
ATOM      3  C   UNL     1       7.456  -4.165  22.717  0.00  0.00    +0.310 C 
ATOM      4  N   UNL     1       8.298  -3.123  22.454  0.00  0.00    -0.248 N 
ATOM      5  H   UNL     1       8.543  -2.996  21.485  0.00  0.00    +0.158 HD
ATOM      6  C   UNL     1       8.832  -2.276  23.374  0.00  0.00    +0.166 A 
ATOM      7  S   UNL     1       9.755  -1.000  22.735  0.00  0.00    -0.057 S 
ATOM      8  C   UNL     1      10.066  -0.455  24.337  0.00  0.00    +0.013 A 
ATOM      9  C   UNL     1       9.437  -1.305  25.231  0.00  0.00    +0.124 A 
ATOM     10  N   UNL     1       8.718  -2.341  24.676  0.00  0.00    -0.233 NA
ATOM     11  O   UNL     1       7.131  -4.882  21.771  0.00  0.00    -0.252 OA
ENDROOT
BRANCH   1  15
ATOM     12 CL   UNL     1       5.307  -6.948  28.016  0.00  0.00    -0.083 Cl
ATOM     13  C   UNL     1       5.183  -6.449  26.374  0.00  0.00    +0.043 A 
ATOM     14  C   UNL     1       6.121  -5.560  25.846  0.00  0.00    +0.043 A 
ATOM     15  C   UNL     1       6.044  -5.180  24.502  0.00  0.00    +0.036 A 
ATOM     16  C   UNL     1       4.991  -5.661  23.717  0.00  0.00    +0.023 A 
ATOM     17  C   UNL     1       4.049  -6.540  24.253  0.00  0.00    +0.003 A 
ATOM     18  C   UNL     1       4.148  -6.946  25.581  0.00  0.00    +0.020 A 
ENDBRANCH   1  15
BRANCH   8  19
ATOM     19  C   UNL     1      10.904   0.766  24.572  0.00  0.00    +0.062 C 
BRANCH  19  20
ATOM     20  C   UNL     1      10.196   2.053  24.150  0.00  0.00    +0.108 C 
BRANCH  20  21
ATOM     21  N   UNL     1       8.958   2.252  24.889  0.00  0.00    -0.328 N 
ATOM     22  H   UNL     1       8.755   1.621  25.657  0.00  0.00    +0.147 HD
ATOM     23  C   UNL     1       7.837   2.500  24.089  0.00  0.00    +0.136 A 
ATOM     24  C   UNL     1       6.532   2.512  24.598  0.00  0.00    +0.077 A 
ATOM     25  S   UNL     1       5.967   2.234  26.202  0.00  0.00    -0.092 S 
ATOM     26  C   UNL     1       4.343   2.531  25.761  0.00  0.00    +0.048 A 
ATOM     27  C   UNL     1       4.219   2.814  24.421  0.00  0.00    +0.036 A 
ATOM     28  C   UNL     1       5.472   2.799  23.742  0.00  0.00    +0.083 A 
ATOM     29  N   UNL     1       5.637   3.047  22.421  0.00  0.00    -0.235 NA
ATOM     30  C   UNL     1       6.909   3.010  22.020  0.00  0.00    +0.223 A 
ATOM     31  N   UNL     1       7.992   2.762  22.770  0.00  0.00    -0.220 NA
ENDBRANCH  20  21
ENDBRANCH  19  20
ENDBRANCH   8  19
TORSDOF 4
ENDMDL
