MODEL 1
REMARK VINA RESULT:      -4.7      0.000      0.000
REMARK  Name = 
REMARK  11 active torsions:
REMARK  status: ('A' for Active; 'I' for Inactive)
REMARK    1  A    between atoms: C_2  and  N_3
REMARK    2  A    between atoms: C_2  and  C_4
REMARK    3  A    between atoms: C_2  and  C_8
REMARK    4  A    between atoms: C_4  and  C_5
REMARK    5  A    between atoms: C_5  and  C_6
REMARK    6  A    between atoms: C_6  and  C_7
REMARK    7  A    between atoms: C_8  and  O_9
REMARK    8  A    between atoms: C_8  and  O_10
REMARK    9  A    between atoms: C_8  and  C_11
REMARK   10  A    between atoms: C_11  and  N_12
REMARK   11  A    between atoms: N_12  and  C_13
REMARK                            x       y       z     vdW  Elec       q    Type
REMARK                         _______ _______ _______ _____ _____    ______ ____
ROOT
ATOM      1  C   UNL     1       9.140  -4.825  25.857  0.00  0.00    +0.266 C 
ENDROOT
BRANCH   1   2
ATOM      2  O   UNL     1       9.911  -5.495  24.856  0.00  0.00    -0.503 OA
ATOM      3  H   UNL     1      10.541  -4.854  24.496  0.00  0.00    +0.288 HD
ENDBRANCH   1   2
BRANCH   1   4
ATOM      4  O   UNL     1       9.903  -4.795  27.056  0.00  0.00    -0.503 OA
ATOM      5  H   UNL     1      10.337  -3.919  27.049  0.00  0.00    +0.288 HD
ENDBRANCH   1   4
BRANCH   1   6
ATOM      6  C   UNL     1       7.764  -5.553  26.114  0.00  0.00    +0.137 C 
BRANCH   6   7
ATOM      7  N   UNL     1       7.504  -5.839  27.544  0.00  0.00    -0.321 NA
ATOM      8  H   UNL     1       8.376  -5.881  28.071  0.00  0.00    +0.119 HD
ATOM      9  H   UNL     1       6.940  -5.107  27.970  0.00  0.00    +0.119 HD
ENDBRANCH   6   7
BRANCH   6  10
ATOM     10  C   UNL     1       6.510  -4.782  25.611  0.00  0.00    +0.026 C 
BRANCH  10  11
ATOM     11  C   UNL     1       5.869  -5.333  24.335  0.00  0.00    +0.001 C 
BRANCH  11  12
ATOM     12  C   UNL     1       6.499  -4.733  23.074  0.00  0.00    -0.003 C 
ATOM     13  C   UNL     1       7.313  -5.778  22.324  0.00  0.00    +0.004 C 
ENDBRANCH  11  12
ENDBRANCH  10  11
ENDBRANCH   6  10
ENDBRANCH   1   6
BRANCH   1  14
ATOM     14  C   UNL     1       8.968  -3.354  25.379  0.00  0.00    +0.175 C 
BRANCH  14  15
ATOM     15  N   UNL     1       9.680  -3.182  24.089  0.00  0.00    -0.307 NA
ATOM     16  H   UNL     1       9.400  -3.961  23.480  0.00  0.00    +0.122 HD
BRANCH  15  17
ATOM     17  C   UNL     1       9.395  -1.894  23.462  0.00  0.00    +0.054 C 
ATOM     18  C   UNL     1       8.805  -1.840  22.080  0.00  0.00    +0.020 C 
ATOM     19  C   UNL     1      10.245  -1.462  22.295  0.00  0.00    +0.020 C 
ENDBRANCH  15  17
ENDBRANCH  14  15
ENDBRANCH   1  14
TORSDOF 10
ENDMDL
MODEL 2
REMARK VINA RESULT:      -4.6      5.465      7.306
REMARK  Name = 
REMARK  11 active torsions:
REMARK  status: ('A' for Active; 'I' for Inactive)
REMARK    1  A    between atoms: C_2  and  N_3
REMARK    2  A    between atoms: C_2  and  C_4
REMARK    3  A    between atoms: C_2  and  C_8
REMARK    4  A    between atoms: C_4  and  C_5
REMARK    5  A    between atoms: C_5  and  C_6
REMARK    6  A    between atoms: C_6  and  C_7
REMARK    7  A    between atoms: C_8  and  O_9
REMARK    8  A    between atoms: C_8  and  O_10
REMARK    9  A    between atoms: C_8  and  C_11
REMARK   10  A    between atoms: C_11  and  N_12
REMARK   11  A    between atoms: N_12  and  C_13
REMARK                            x       y       z     vdW  Elec       q    Type
REMARK                         _______ _______ _______ _____ _____    ______ ____
ROOT
ATOM      1  C   UNL     1       9.631   2.309  23.953  0.00  0.00    +0.266 C 
ENDROOT
BRANCH   1   2
ATOM      2  O   UNL     1      10.816   1.543  24.184  0.00  0.00    -0.503 OA
ATOM      3  H   UNL     1      10.551   0.722  24.623  0.00  0.00    +0.288 HD
ENDBRANCH   1   2
BRANCH   1   4
ATOM      4  O   UNL     1       8.835   2.258  25.130  0.00  0.00    -0.503 OA
ATOM      5  H   UNL     1       9.222   2.937  25.717  0.00  0.00    +0.288 HD
ENDBRANCH   1   4
BRANCH   1   6
ATOM      6  C   UNL     1       8.810   1.753  22.725  0.00  0.00    +0.137 C 
BRANCH   6   7
ATOM      7  N   UNL     1       9.455   2.010  21.417  0.00  0.00    -0.321 NA
ATOM      8  H   UNL     1       9.523   1.151  20.870  0.00  0.00    +0.119 HD
ATOM      9  H   UNL     1       8.915   2.669  20.862  0.00  0.00    +0.119 HD
ENDBRANCH   6   7
BRANCH   6  10
ATOM     10  C   UNL     1       8.538   0.221  22.758  0.00  0.00    +0.026 C 
BRANCH  10  11
ATOM     11  C   UNL     1       9.339  -0.609  21.753  0.00  0.00    +0.001 C 
BRANCH  11  12
ATOM     12  C   UNL     1      10.352  -1.526  22.446  0.00  0.00    -0.003 C 
ATOM     13  C   UNL     1       9.845  -1.962  23.813  0.00  0.00    +0.004 C 
ENDBRANCH  11  12
ENDBRANCH  10  11
ENDBRANCH   6  10
ENDBRANCH   1   6
BRANCH   1  14
ATOM     14  C   UNL     1      10.083   3.786  23.761  0.00  0.00    +0.175 C 
BRANCH  14  15
ATOM     15  N   UNL     1      11.236   3.817  22.827  0.00  0.00    -0.307 NA
ATOM     16  H   UNL     1      10.916   4.272  21.962  0.00  0.00    +0.122 HD
BRANCH  15  17
ATOM     17  C   UNL     1      12.391   4.509  23.391  0.00  0.00    +0.054 C 
ATOM     18  C   UNL     1      12.275   5.945  23.823  0.00  0.00    +0.020 C 
ATOM     19  C   UNL     1      13.041   5.598  22.577  0.00  0.00    +0.020 C 
ENDBRANCH  15  17
ENDBRANCH  14  15
ENDBRANCH   1  14
TORSDOF 10
ENDMDL
MODEL 3
REMARK VINA RESULT:      -4.5      2.721      5.483
REMARK  Name = 
REMARK  11 active torsions:
REMARK  status: ('A' for Active; 'I' for Inactive)
REMARK    1  A    between atoms: C_2  and  N_3
REMARK    2  A    between atoms: C_2  and  C_4
REMARK    3  A    between atoms: C_2  and  C_8
REMARK    4  A    between atoms: C_4  and  C_5
REMARK    5  A    between atoms: C_5  and  C_6
REMARK    6  A    between atoms: C_6  and  C_7
REMARK    7  A    between atoms: C_8  and  O_9
REMARK    8  A    between atoms: C_8  and  O_10
REMARK    9  A    between atoms: C_8  and  C_11
REMARK   10  A    between atoms: C_11  and  N_12
REMARK   11  A    between atoms: N_12  and  C_13
REMARK                            x       y       z     vdW  Elec       q    Type
REMARK                         _______ _______ _______ _____ _____    ______ ____
ROOT
ATOM      1  C   UNL     1       9.374  -2.079  23.867  0.00  0.00    +0.266 C 
ENDROOT
BRANCH   1   2
ATOM      2  O   UNL     1       9.242  -1.446  25.141  0.00  0.00    -0.503 OA
ATOM      3  H   UNL     1       8.312  -1.197  25.248  0.00  0.00    +0.288 HD
ENDBRANCH   1   2
BRANCH   1   4
ATOM      4  O   UNL     1       9.981  -3.350  24.065  0.00  0.00    -0.503 OA
ATOM      5  H   UNL     1      10.904  -3.230  23.764  0.00  0.00    +0.288 HD
ENDBRANCH   1   4
BRANCH   1   6
ATOM      6  C   UNL     1      10.249  -1.216  22.877  0.00  0.00    +0.137 C 
BRANCH   6   7
ATOM      7  N   UNL     1       9.965  -1.485  21.448  0.00  0.00    -0.321 NA
ATOM      8  H   UNL     1      10.024  -0.628  20.898  0.00  0.00    +0.119 HD
ATOM      9  H   UNL     1      10.643  -2.132  21.053  0.00  0.00    +0.119 HD
ENDBRANCH   6   7
BRANCH   6  10
ATOM     10  C   UNL     1      10.101   0.325  23.045  0.00  0.00    +0.026 C 
BRANCH  10  11
ATOM     11  C   UNL     1       9.780   1.096  21.763  0.00  0.00    +0.001 C 
BRANCH  11  12
ATOM     12  C   UNL     1       8.582   2.034  21.944  0.00  0.00    -0.003 C 
ATOM     13  C   UNL     1       7.358   1.265  22.423  0.00  0.00    +0.004 C 
ENDBRANCH  11  12
ENDBRANCH  10  11
ENDBRANCH   6  10
ENDBRANCH   1   6
BRANCH   1  14
ATOM     14  C   UNL     1       7.932  -2.331  23.339  0.00  0.00    +0.175 C 
BRANCH  14  15
ATOM     15  N   UNL     1       7.974  -3.419  22.330  0.00  0.00    -0.307 NA
ATOM     16  H   UNL     1       8.926  -3.804  22.336  0.00  0.00    +0.122 HD
BRANCH  15  17
ATOM     17  C   UNL     1       6.982  -4.460  22.591  0.00  0.00    +0.054 C 
ATOM     18  C   UNL     1       7.272  -5.888  22.223  0.00  0.00    +0.020 C 
ATOM     19  C   UNL     1       6.283  -5.093  21.417  0.00  0.00    +0.020 C 
ENDBRANCH  15  17
ENDBRANCH  14  15
ENDBRANCH   1  14
TORSDOF 10
ENDMDL
MODEL 4
REMARK VINA RESULT:      -4.4      2.571      5.488
REMARK  Name = 
REMARK  11 active torsions:
REMARK  status: ('A' for Active; 'I' for Inactive)
REMARK    1  A    between atoms: C_2  and  N_3
REMARK    2  A    between atoms: C_2  and  C_4
REMARK    3  A    between atoms: C_2  and  C_8
REMARK    4  A    between atoms: C_4  and  C_5
REMARK    5  A    between atoms: C_5  and  C_6
REMARK    6  A    between atoms: C_6  and  C_7
REMARK    7  A    between atoms: C_8  and  O_9
REMARK    8  A    between atoms: C_8  and  O_10
REMARK    9  A    between atoms: C_8  and  C_11
REMARK   10  A    between atoms: C_11  and  N_12
REMARK   11  A    between atoms: N_12  and  C_13
REMARK                            x       y       z     vdW  Elec       q    Type
REMARK                         _______ _______ _______ _____ _____    ______ ____
ROOT
ATOM      1  C   UNL     1       9.307  -2.124  23.011  0.00  0.00    +0.266 C 
ENDROOT
BRANCH   1   2
ATOM      2  O   UNL     1      10.089  -3.030  23.793  0.00  0.00    -0.503 OA
ATOM      3  H   UNL     1       9.555  -3.293  24.556  0.00  0.00    +0.288 HD
ENDBRANCH   1   2
BRANCH   1   4
ATOM      4  O   UNL     1      10.089  -1.711  21.898  0.00  0.00    -0.503 OA
ATOM      5  H   UNL     1      10.327  -0.783  22.097  0.00  0.00    +0.288 HD
ENDBRANCH   1   4
BRANCH   1   6
ATOM      6  C   UNL     1       8.863  -0.866  23.852  0.00  0.00    +0.137 C 
BRANCH   6   7
ATOM      7  N   UNL     1       7.648  -1.097  24.668  0.00  0.00    -0.321 NA
ATOM      8  H   UNL     1       7.862  -1.668  25.486  0.00  0.00    +0.119 HD
ATOM      9  H   UNL     1       7.263  -0.222  25.014  0.00  0.00    +0.119 HD
ENDBRANCH   6   7
BRANCH   6  10
ATOM     10  C   UNL     1       9.933  -0.331  24.848  0.00  0.00    +0.026 C 
BRANCH  10  11
ATOM     11  C   UNL     1      10.841   0.773  24.304  0.00  0.00    +0.001 C 
BRANCH  11  12
ATOM     12  C   UNL     1      10.037   1.930  23.701  0.00  0.00    -0.003 C 
ATOM     13  C   UNL     1      10.205   1.977  22.189  0.00  0.00    +0.004 C 
ENDBRANCH  11  12
ENDBRANCH  10  11
ENDBRANCH   6  10
ENDBRANCH   1   6
BRANCH   1  14
ATOM     14  C   UNL     1       8.102  -2.938  22.455  0.00  0.00    +0.175 C 
BRANCH  14  15
ATOM     15  N   UNL     1       7.710  -3.959  23.459  0.00  0.00    -0.307 NA
ATOM     16  H   UNL     1       6.863  -3.615  23.929  0.00  0.00    +0.122 HD
BRANCH  15  17
ATOM     17  C   UNL     1       7.483  -5.271  22.858  0.00  0.00    +0.054 C 
ATOM     18  C   UNL     1       6.712  -5.391  21.573  0.00  0.00    +0.020 C 
ATOM     19  C   UNL     1       6.084  -5.831  22.867  0.00  0.00    +0.020 C 
ENDBRANCH  15  17
ENDBRANCH  14  15
ENDBRANCH   1  14
TORSDOF 10
ENDMDL
MODEL 5
REMARK VINA RESULT:      -4.3      5.487      8.187
REMARK  Name = 
REMARK  11 active torsions:
REMARK  status: ('A' for Active; 'I' for Inactive)
REMARK    1  A    between atoms: C_2  and  N_3
REMARK    2  A    between atoms: C_2  and  C_4
REMARK    3  A    between atoms: C_2  and  C_8
REMARK    4  A    between atoms: C_4  and  C_5
REMARK    5  A    between atoms: C_5  and  C_6
REMARK    6  A    between atoms: C_6  and  C_7
REMARK    7  A    between atoms: C_8  and  O_9
REMARK    8  A    between atoms: C_8  and  O_10
REMARK    9  A    between atoms: C_8  and  C_11
REMARK   10  A    between atoms: C_11  and  N_12
REMARK   11  A    between atoms: N_12  and  C_13
REMARK                            x       y       z     vdW  Elec       q    Type
REMARK                         _______ _______ _______ _____ _____    ______ ____
ROOT
ATOM      1  C   UNL     1       9.083   2.162  22.292  0.00  0.00    +0.266 C 
ENDROOT
BRANCH   1   2
ATOM      2  O   UNL     1      10.181   2.178  21.377  0.00  0.00    -0.503 OA
ATOM      3  H   UNL     1      10.817   1.510  21.672  0.00  0.00    +0.288 HD
ENDBRANCH   1   2
BRANCH   1   4
ATOM      4  O   UNL     1       8.008   2.885  21.705  0.00  0.00    -0.503 OA
ATOM      5  H   UNL     1       8.146   3.808  21.997  0.00  0.00    +0.288 HD
ENDBRANCH   1   4
BRANCH   1   6
ATOM      6  C   UNL     1       9.473   2.810  23.677  0.00  0.00    +0.137 C 
BRANCH   6   7
ATOM      7  N   UNL     1       9.616   1.822  24.772  0.00  0.00    -0.321 NA
ATOM      8  H   UNL     1       9.829   0.896  24.401  0.00  0.00    +0.119 HD
ATOM      9  H   UNL     1      10.380   2.071  25.395  0.00  0.00    +0.119 HD
ENDBRANCH   6   7
BRANCH   6  10
ATOM     10  C   UNL     1      10.803   3.618  23.673  0.00  0.00    +0.026 C 
BRANCH  10  11
ATOM     11  C   UNL     1      10.646   5.138  23.759  0.00  0.00    +0.001 C 
BRANCH  11  12
ATOM     12  C   UNL     1      11.997   5.845  23.903  0.00  0.00    -0.003 C 
ATOM     13  C   UNL     1      13.051   5.188  23.024  0.00  0.00    +0.004 C 
ENDBRANCH  11  12
ENDBRANCH  10  11
ENDBRANCH   6  10
ENDBRANCH   1   6
BRANCH   1  14
ATOM     14  C   UNL     1       8.629   0.680  22.422  0.00  0.00    +0.175 C 
BRANCH  14  15
ATOM     15  N   UNL     1       9.833  -0.189  22.450  0.00  0.00    -0.307 NA
ATOM     16  H   UNL     1      10.387   0.084  23.270  0.00  0.00    +0.122 HD
BRANCH  15  17
ATOM     17  C   UNL     1       9.493  -1.610  22.491  0.00  0.00    +0.054 C 
ATOM     18  C   UNL     1       8.479  -2.115  23.480  0.00  0.00    +0.020 C 
ATOM     19  C   UNL     1       9.939  -2.417  23.683  0.00  0.00    +0.020 C 
ENDBRANCH  15  17
ENDBRANCH  14  15
ENDBRANCH   1  14
TORSDOF 10
ENDMDL
MODEL 6
REMARK VINA RESULT:      -4.3      1.289      4.115
REMARK  Name = 
REMARK  11 active torsions:
REMARK  status: ('A' for Active; 'I' for Inactive)
REMARK    1  A    between atoms: C_2  and  N_3
REMARK    2  A    between atoms: C_2  and  C_4
REMARK    3  A    between atoms: C_2  and  C_8
REMARK    4  A    between atoms: C_4  and  C_5
REMARK    5  A    between atoms: C_5  and  C_6
REMARK    6  A    between atoms: C_6  and  C_7
REMARK    7  A    between atoms: C_8  and  O_9
REMARK    8  A    between atoms: C_8  and  O_10
REMARK    9  A    between atoms: C_8  and  C_11
REMARK   10  A    between atoms: C_11  and  N_12
REMARK   11  A    between atoms: N_12  and  C_13
REMARK                            x       y       z     vdW  Elec       q    Type
REMARK                         _______ _______ _______ _____ _____    ______ ____
ROOT
ATOM      1  C   UNL     1       8.898  -4.713  25.635  0.00  0.00    +0.266 C 
ENDROOT
BRANCH   1   2
ATOM      2  O   UNL     1       9.354  -4.669  26.989  0.00  0.00    -0.503 OA
ATOM      3  H   UNL     1       8.793  -4.040  27.465  0.00  0.00    +0.288 HD
ENDBRANCH   1   2
BRANCH   1   4
ATOM      4  O   UNL     1       9.842  -5.455  24.874  0.00  0.00    -0.503 OA
ATOM      5  H   UNL     1       9.335  -5.781  24.104  0.00  0.00    +0.288 HD
ENDBRANCH   1   4
BRANCH   1   6
ATOM      6  C   UNL     1       8.738  -3.265  25.028  0.00  0.00    +0.137 C 
BRANCH   6   7
ATOM      7  N   UNL     1       8.603  -2.206  26.055  0.00  0.00    -0.321 NA
ATOM      8  H   UNL     1       9.090  -1.356  25.766  0.00  0.00    +0.119 HD
ATOM      9  H   UNL     1       7.629  -1.951  26.196  0.00  0.00    +0.119 HD
ENDBRANCH   6   7
BRANCH   6  10
ATOM     10  C   UNL     1       9.909  -2.806  24.111  0.00  0.00    +0.026 C 
BRANCH  10  11
ATOM     11  C   UNL     1       9.824  -1.361  23.614  0.00  0.00    +0.001 C 
BRANCH  11  12
ATOM     12  C   UNL     1       9.964  -1.270  22.091  0.00  0.00    -0.003 C 
ATOM     13  C   UNL     1       9.559   0.108  21.590  0.00  0.00    +0.004 C 
ENDBRANCH  11  12
ENDBRANCH  10  11
ENDBRANCH   6  10
ENDBRANCH   1   6
BRANCH   1  14
ATOM     14  C   UNL     1       7.567  -5.520  25.636  0.00  0.00    +0.175 C 
BRANCH  14  15
ATOM     15  N   UNL     1       6.555  -4.775  24.846  0.00  0.00    -0.307 NA
ATOM     16  H   UNL     1       6.944  -3.845  24.650  0.00  0.00    +0.122 HD
BRANCH  15  17
ATOM     17  C   UNL     1       6.194  -5.467  23.610  0.00  0.00    +0.054 C 
ATOM     18  C   UNL     1       7.199  -5.600  22.499  0.00  0.00    +0.020 C 
ATOM     19  C   UNL     1       6.040  -4.651  22.352  0.00  0.00    +0.020 C 
ENDBRANCH  15  17
ENDBRANCH  14  15
ENDBRANCH   1  14
TORSDOF 10
ENDMDL
MODEL 7
REMARK VINA RESULT:      -4.3      5.570      7.246
REMARK  Name = 
REMARK  11 active torsions:
REMARK  status: ('A' for Active; 'I' for Inactive)
REMARK    1  A    between atoms: C_2  and  N_3
REMARK    2  A    between atoms: C_2  and  C_4
REMARK    3  A    between atoms: C_2  and  C_8
REMARK    4  A    between atoms: C_4  and  C_5
REMARK    5  A    between atoms: C_5  and  C_6
REMARK    6  A    between atoms: C_6  and  C_7
REMARK    7  A    between atoms: C_8  and  O_9
REMARK    8  A    between atoms: C_8  and  O_10
REMARK    9  A    between atoms: C_8  and  C_11
REMARK   10  A    between atoms: C_11  and  N_12
REMARK   11  A    between atoms: N_12  and  C_13
REMARK                            x       y       z     vdW  Elec       q    Type
REMARK                         _______ _______ _______ _____ _____    ______ ____
ROOT
ATOM      1  C   UNL     1       9.530   2.232  24.023  0.00  0.00    +0.266 C 
ENDROOT
BRANCH   1   2
ATOM      2  O   UNL     1      10.947   2.219  23.837  0.00  0.00    -0.503 OA
ATOM      3  H   UNL     1      11.306   1.499  24.375  0.00  0.00    +0.288 HD
ENDBRANCH   1   2
BRANCH   1   4
ATOM      4  O   UNL     1       9.219   1.363  25.105  0.00  0.00    -0.503 OA
ATOM      5  H   UNL     1       9.936   1.511  25.753  0.00  0.00    +0.288 HD
ENDBRANCH   1   4
BRANCH   1   6
ATOM      6  C   UNL     1       8.769   1.764  22.723  0.00  0.00    +0.137 C 
BRANCH   6   7
ATOM      7  N   UNL     1       9.501   2.064  21.469  0.00  0.00    -0.321 NA
ATOM      8  H   UNL     1      10.457   1.712  21.514  0.00  0.00    +0.119 HD
ATOM      9  H   UNL     1       9.061   1.615  20.669  0.00  0.00    +0.119 HD
ENDBRANCH   6   7
BRANCH   6  10
ATOM     10  C   UNL     1       8.450   0.242  22.661  0.00  0.00    +0.026 C 
BRANCH  10  11
ATOM     11  C   UNL     1       9.343  -0.578  21.728  0.00  0.00    +0.001 C 
BRANCH  11  12
ATOM     12  C   UNL     1      10.402  -1.372  22.500  0.00  0.00    -0.003 C 
ATOM     13  C   UNL     1       9.796  -2.032  23.730  0.00  0.00    +0.004 C 
ENDBRANCH  11  12
ENDBRANCH  10  11
ENDBRANCH   6  10
ENDBRANCH   1   6
BRANCH   1  14
ATOM     14  C   UNL     1       9.148   3.675  24.463  0.00  0.00    +0.175 C 
BRANCH  14  15
ATOM     15  N   UNL     1       9.069   4.537  23.257  0.00  0.00    -0.307 NA
ATOM     16  H   UNL     1       9.104   3.920  22.437  0.00  0.00    +0.122 HD
BRANCH  15  17
ATOM     17  C   UNL     1       7.865   5.365  23.243  0.00  0.00    +0.054 C 
ATOM     18  C   UNL     1       6.642   4.906  22.497  0.00  0.00    +0.020 C 
ATOM     19  C   UNL     1       7.473   6.036  21.952  0.00  0.00    +0.020 C 
ENDBRANCH  15  17
ENDBRANCH  14  15
ENDBRANCH   1  14
TORSDOF 10
ENDMDL
MODEL 8
REMARK VINA RESULT:      -4.2      5.824      7.645
REMARK  Name = 
REMARK  11 active torsions:
REMARK  status: ('A' for Active; 'I' for Inactive)
REMARK    1  A    between atoms: C_2  and  N_3
REMARK    2  A    between atoms: C_2  and  C_4
REMARK    3  A    between atoms: C_2  and  C_8
REMARK    4  A    between atoms: C_4  and  C_5
REMARK    5  A    between atoms: C_5  and  C_6
REMARK    6  A    between atoms: C_6  and  C_7
REMARK    7  A    between atoms: C_8  and  O_9
REMARK    8  A    between atoms: C_8  and  O_10
REMARK    9  A    between atoms: C_8  and  C_11
REMARK   10  A    between atoms: C_11  and  N_12
REMARK   11  A    between atoms: N_12  and  C_13
REMARK                            x       y       z     vdW  Elec       q    Type
REMARK                         _______ _______ _______ _____ _____    ______ ____
ROOT
ATOM      1  C   UNL     1       7.406   1.806  22.556  0.00  0.00    +0.266 C 
ENDROOT
BRANCH   1   2
ATOM      2  O   UNL     1       7.914   2.114  23.856  0.00  0.00    -0.503 OA
ATOM      3  H   UNL     1       8.864   2.278  23.767  0.00  0.00    +0.288 HD
ENDBRANCH   1   2
BRANCH   1   4
ATOM      4  O   UNL     1       6.555   0.673  22.670  0.00  0.00    -0.503 OA
ATOM      5  H   UNL     1       5.949   0.895  23.405  0.00  0.00    +0.288 HD
ENDBRANCH   1   4
BRANCH   1   6
ATOM      6  C   UNL     1       8.570   1.502  21.535  0.00  0.00    +0.137 C 
BRANCH   6   7
ATOM      7  N   UNL     1       9.779   2.332  21.751  0.00  0.00    -0.321 NA
ATOM      8  H   UNL     1      10.355   1.947  22.500  0.00  0.00    +0.119 HD
ATOM      9  H   UNL     1      10.362   2.359  20.918  0.00  0.00    +0.119 HD
ENDBRANCH   6   7
BRANCH   6  10
ATOM     10  C   UNL     1       9.075   0.029  21.534  0.00  0.00    +0.026 C 
BRANCH  10  11
ATOM     11  C   UNL     1      10.210  -0.275  22.514  0.00  0.00    +0.001 C 
BRANCH  11  12
ATOM     12  C   UNL     1       9.697  -0.939  23.796  0.00  0.00    -0.003 C 
ATOM     13  C   UNL     1       9.924  -2.443  23.757  0.00  0.00    +0.004 C 
ENDBRANCH  11  12
ENDBRANCH  10  11
ENDBRANCH   6  10
ENDBRANCH   1   6
BRANCH   1  14
ATOM     14  C   UNL     1       6.521   3.010  22.124  0.00  0.00    +0.175 C 
BRANCH  14  15
ATOM     15  N   UNL     1       7.402   4.150  21.766  0.00  0.00    -0.307 NA
ATOM     16  H   UNL     1       7.288   4.320  20.760  0.00  0.00    +0.122 HD
BRANCH  15  17
ATOM     17  C   UNL     1       7.102   5.351  22.542  0.00  0.00    +0.054 C 
ATOM     18  C   UNL     1       7.090   6.698  21.873  0.00  0.00    +0.020 C 
ATOM     19  C   UNL     1       8.216   6.332  22.801  0.00  0.00    +0.020 C 
ENDBRANCH  15  17
ENDBRANCH  14  15
ENDBRANCH   1  14
TORSDOF 10
ENDMDL
MODEL 9
REMARK VINA RESULT:      -4.2      2.945      5.996
REMARK  Name = 
REMARK  11 active torsions:
REMARK  status: ('A' for Active; 'I' for Inactive)
REMARK    1  A    between atoms: C_2  and  N_3
REMARK    2  A    between atoms: C_2  and  C_4
REMARK    3  A    between atoms: C_2  and  C_8
REMARK    4  A    between atoms: C_4  and  C_5
REMARK    5  A    between atoms: C_5  and  C_6
REMARK    6  A    between atoms: C_6  and  C_7
REMARK    7  A    between atoms: C_8  and  O_9
REMARK    8  A    between atoms: C_8  and  O_10
REMARK    9  A    between atoms: C_8  and  C_11
REMARK   10  A    between atoms: C_11  and  N_12
REMARK   11  A    between atoms: N_12  and  C_13
REMARK                            x       y       z     vdW  Elec       q    Type
REMARK                         _______ _______ _______ _____ _____    ______ ____
ROOT
ATOM      1  C   UNL     1       8.504  -1.396  23.377  0.00  0.00    +0.266 C 
ENDROOT
BRANCH   1   2
ATOM      2  O   UNL     1       7.222  -0.998  22.884  0.00  0.00    -0.503 OA
ATOM      3  H   UNL     1       7.050  -1.504  22.077  0.00  0.00    +0.288 HD
ENDBRANCH   1   2
BRANCH   1   4
ATOM      4  O   UNL     1       8.581  -1.034  24.750  0.00  0.00    -0.503 OA
ATOM      5  H   UNL     1       8.818  -1.864  25.209  0.00  0.00    +0.288 HD
ENDBRANCH   1   4
BRANCH   1   6
ATOM      6  C   UNL     1       9.674  -0.707  22.574  0.00  0.00    +0.137 C 
BRANCH   6   7
ATOM      7  N   UNL     1      10.574  -1.669  21.898  0.00  0.00    -0.321 NA
ATOM      8  H   UNL     1      11.166  -1.196  21.214  0.00  0.00    +0.119 HD
ATOM      9  H   UNL     1      11.199  -2.120  22.562  0.00  0.00    +0.119 HD
ENDBRANCH   6   7
BRANCH   6  10
ATOM     10  C   UNL     1       9.214   0.280  21.461  0.00  0.00    +0.026 C 
BRANCH  10  11
ATOM     11  C   UNL     1       9.154   1.752  21.875  0.00  0.00    +0.001 C 
BRANCH  11  12
ATOM     12  C   UNL     1      10.265   2.114  22.866  0.00  0.00    -0.003 C 
ATOM     13  C   UNL     1       9.881   3.335  23.689  0.00  0.00    +0.004 C 
ENDBRANCH  11  12
ENDBRANCH  10  11
ENDBRANCH   6  10
ENDBRANCH   1   6
BRANCH   1  14
ATOM     14  C   UNL     1       8.550  -2.949  23.303  0.00  0.00    +0.175 C 
BRANCH  14  15
ATOM     15  N   UNL     1       9.594  -3.443  24.236  0.00  0.00    -0.307 NA
ATOM     16  H   UNL     1       9.819  -2.672  24.877  0.00  0.00    +0.122 HD
BRANCH  15  17
ATOM     17  C   UNL     1       9.167  -4.632  24.970  0.00  0.00    +0.054 C 
ATOM     18  C   UNL     1       7.793  -4.692  25.578  0.00  0.00    +0.020 C 
ATOM     19  C   UNL     1       8.998  -4.528  26.464  0.00  0.00    +0.020 C 
ENDBRANCH  15  17
ENDBRANCH  14  15
ENDBRANCH   1  14
TORSDOF 10
ENDMDL
