MODEL 1
REMARK VINA RESULT:      -7.9      0.000      0.000
REMARK  Name = 
REMARK  14 active torsions:
REMARK  status: ('A' for Active; 'I' for Inactive)
REMARK    1  A    between atoms: C_1  and  C_2
REMARK    2  A    between atoms: C_2  and  O_3
REMARK    3  A    between atoms: O_3  and  C_4
REMARK    4  A    between atoms: C_4  and  C_6
REMARK    5  A    between atoms: C_6  and  O_7
REMARK    6  A    between atoms: O_7  and  N_8
REMARK    7  A    between atoms: C_9  and  C_10
REMARK    8  A    between atoms: C_9  and  C_16
REMARK    9  A    between atoms: C_16  and  C_19
REMARK   10  A    between atoms: N_23  and  C_24
REMARK   11  A    between atoms: C_25  and  C_26
REMARK   12  A    between atoms: C_26  and  N_27
REMARK   13  A    between atoms: N_27  and  C_28
REMARK   14  A    between atoms: C_31  and  C_34
REMARK                            x       y       z     vdW  Elec       q    Type
REMARK                         _______ _______ _______ _____ _____    ______ ____
ROOT
ATOM      1  C   UNL     1       6.600  -3.837  23.060  0.00  0.00    -0.033 A 
ATOM      2  C   UNL     1       7.952  -3.427  22.996  0.00  0.00    +0.034 A 
ATOM      3  C   UNL     1       8.342  -2.214  23.590  0.00  0.00    +0.090 A 
ATOM      4  C   UNL     1       7.376  -1.409  24.175  0.00  0.00    +0.069 A 
ATOM      5  N   UNL     1       8.097  -0.495  24.903  0.00  0.00    -0.329 N 
ATOM      6  C   UNL     1       9.422  -0.617  24.553  0.00  0.00    +0.128 A 
ATOM      7  C   UNL     1       7.566   0.276  26.002  0.00  0.00    +0.150 C 
ATOM      8  C   UNL     1       6.013  -1.654  24.053  0.00  0.00    +0.028 A 
ATOM      9  N   UNL     1       9.590  -1.667  23.763  0.00  0.00    -0.231 NA
ATOM     10  C   UNL     1       5.657  -2.888  23.506  0.00  0.00    +0.007 A 
ENDROOT
BRANCH   1  11
ATOM     11  C   UNL     1       6.194  -5.318  22.895  0.00  0.00    +0.043 C 
ATOM     12  C   UNL     1       5.998  -5.783  21.438  0.00  0.00    +0.019 C 
ATOM     13  C   UNL     1       7.087  -6.379  22.250  0.00  0.00    +0.019 C 
BRANCH  11  15
ATOM     14  N   UNL     1       5.718  -5.930  25.252  0.00  0.00    -0.086 NA
ATOM     15  C   UNL     1       5.306  -5.834  24.017  0.00  0.00    +0.116 C 
BRANCH  15  16
ATOM     16  C   UNL     1       3.908  -6.264  23.738  0.00  0.00    +0.089 A 
ATOM     17  N   UNL     1       3.567  -7.522  24.104  0.00  0.00    -0.254 NA
ATOM     18  C   UNL     1       2.247  -7.799  24.149  0.00  0.00    +0.111 A 
ATOM     19  C   UNL     1       1.252  -6.889  23.828  0.00  0.00    +0.020 A 
ATOM     20  C   UNL     1       1.627  -5.621  23.398  0.00  0.00    +0.004 A 
ATOM     21  C   UNL     1       2.979  -5.300  23.350  0.00  0.00    +0.030 A 
ENDBRANCH  15  16
BRANCH  14  22
ATOM     22  O   UNL     1       7.039  -5.513  25.448  0.00  0.00    -0.382 OA
BRANCH  22  23
ATOM     23  C   UNL     1       7.040  -4.593  26.524  0.00  0.00    +0.382 C 
BRANCH  23  24
ATOM     24  C   UNL     1       6.613  -5.222  27.827  0.00  0.00    +0.348 C 
ATOM     25  O   UNL     1       7.134  -6.218  28.313  0.00  0.00    -0.247 OA
BRANCH  24  26
ATOM     26  O   UNL     1       5.471  -4.629  28.282  0.00  0.00    -0.462 OA
BRANCH  26  28
ATOM     27  C   UNL     1       3.143  -4.892  27.796  0.00  0.00    +0.048 C 
ATOM     28  C   UNL     1       4.357  -5.510  28.469  0.00  0.00    +0.229 C 
ENDBRANCH  26  28
ENDBRANCH  24  26
ENDBRANCH  23  24
ENDBRANCH  22  23
ENDBRANCH  14  22
ENDBRANCH  11  15
ENDBRANCH   1  11
BRANCH   6  29
ATOM     29  C   UNL     1      10.487   0.344  25.000  0.00  0.00    +0.176 C 
BRANCH  29  30
ATOM     30  N   UNL     1      10.936   1.345  24.020  0.00  0.00    -0.337 N 
ATOM     31  H   UNL     1      11.772   1.820  24.352  0.00  0.00    +0.147 HD
BRANCH  30  32
ATOM     32  C   UNL     1      10.000   2.296  23.579  0.00  0.00    +0.027 A 
ATOM     33  C   UNL     1       9.785   3.527  24.211  0.00  0.00    +0.024 A 
ATOM     34  C   UNL     1       8.812   4.423  23.752  0.00  0.00    +0.017 A 
ATOM     35  C   UNL     1       8.012   4.093  22.656  0.00  0.00    +0.065 A 
ATOM     36  C   UNL     1       8.163   2.844  22.057  0.00  0.00    +0.017 A 
ATOM     37  C   UNL     1       9.134   1.954  22.528  0.00  0.00    +0.024 A 
BRANCH  35  38
ATOM     38  C   UNL     1       7.004   5.062  22.135  0.00  0.00    +0.308 C 
ATOM     39  N   UNL     1       5.737   4.883  22.255  0.00  0.00    -0.099 NA
ATOM     40  H   UNL     1       5.518   3.989  22.701  0.00  0.00    +0.363 HD
ATOM     41  N   UNL     1       7.410   6.189  21.480  0.00  0.00    -0.247 N 
ATOM     42  H   UNL     1       6.636   6.837  21.372  0.00  0.00    +0.288 HD
ATOM     43  H   UNL     1       8.246   6.638  21.825  0.00  0.00    +0.288 HD
ENDBRANCH  35  38
ENDBRANCH  30  32
ENDBRANCH  29  30
ENDBRANCH   6  29
TORSDOF 12
ENDMDL
MODEL 2
REMARK VINA RESULT:      -7.7      2.864      9.710
REMARK  Name = 
REMARK  14 active torsions:
REMARK  status: ('A' for Active; 'I' for Inactive)
REMARK    1  A    between atoms: C_1  and  C_2
REMARK    2  A    between atoms: C_2  and  O_3
REMARK    3  A    between atoms: O_3  and  C_4
REMARK    4  A    between atoms: C_4  and  C_6
REMARK    5  A    between atoms: C_6  and  O_7
REMARK    6  A    between atoms: O_7  and  N_8
REMARK    7  A    between atoms: C_9  and  C_10
REMARK    8  A    between atoms: C_9  and  C_16
REMARK    9  A    between atoms: C_16  and  C_19
REMARK   10  A    between atoms: N_23  and  C_24
REMARK   11  A    between atoms: C_25  and  C_26
REMARK   12  A    between atoms: C_26  and  N_27
REMARK   13  A    between atoms: N_27  and  C_28
REMARK   14  A    between atoms: C_31  and  C_34
REMARK                            x       y       z     vdW  Elec       q    Type
REMARK                         _______ _______ _______ _____ _____    ______ ____
ROOT
ATOM      1  C   UNL     1       7.860   2.675  22.634  0.00  0.00    -0.033 A 
ATOM      2  C   UNL     1       7.020   1.562  22.867  0.00  0.00    +0.034 A 
ATOM      3  C   UNL     1       7.527   0.260  22.707  0.00  0.00    +0.090 A 
ATOM      4  C   UNL     1       8.830   0.095  22.261  0.00  0.00    +0.069 A 
ATOM      5  N   UNL     1       9.102  -1.229  22.502  0.00  0.00    -0.329 N 
ATOM      6  C   UNL     1       7.924  -1.854  22.842  0.00  0.00    +0.128 A 
ATOM      7  C   UNL     1      10.431  -1.785  22.605  0.00  0.00    +0.150 C 
ATOM      8  C   UNL     1       9.609   1.148  21.795  0.00  0.00    +0.028 A 
ATOM      9  N   UNL     1       6.957  -0.959  22.983  0.00  0.00    -0.231 NA
ATOM     10  C   UNL     1       9.102   2.430  22.013  0.00  0.00    +0.007 A 
ENDROOT
BRANCH   1  11
ATOM     11  C   UNL     1       7.557   4.059  23.249  0.00  0.00    +0.043 C 
ATOM     12  C   UNL     1       7.207   5.164  22.232  0.00  0.00    +0.019 C 
ATOM     13  C   UNL     1       6.182   4.726  23.211  0.00  0.00    +0.019 C 
BRANCH  11  15
ATOM     14  N   UNL     1       8.090   3.850  25.664  0.00  0.00    -0.086 NA
ATOM     15  C   UNL     1       8.374   4.362  24.497  0.00  0.00    +0.116 C 
BRANCH  15  16
ATOM     16  C   UNL     1       9.545   5.279  24.430  0.00  0.00    +0.089 A 
ATOM     17  N   UNL     1       9.576   6.303  25.315  0.00  0.00    -0.254 NA
ATOM     18  C   UNL     1      10.762   6.928  25.470  0.00  0.00    +0.111 A 
ATOM     19  C   UNL     1      11.913   6.595  24.772  0.00  0.00    +0.020 A 
ATOM     20  C   UNL     1      11.842   5.580  23.826  0.00  0.00    +0.004 A 
ATOM     21  C   UNL     1      10.638   4.907  23.648  0.00  0.00    +0.030 A 
ENDBRANCH  15  16
BRANCH  14  22
ATOM     22  O   UNL     1       6.980   3.001  25.661  0.00  0.00    -0.382 OA
BRANCH  22  23
ATOM     23  C   UNL     1       6.949   2.333  26.909  0.00  0.00    +0.382 C 
BRANCH  23  24
ATOM     24  C   UNL     1       6.574   0.878  26.781  0.00  0.00    +0.348 C 
ATOM     25  O   UNL     1       5.500   0.481  26.346  0.00  0.00    -0.247 OA
BRANCH  24  26
ATOM     26  O   UNL     1       7.522   0.095  27.374  0.00  0.00    -0.462 OA
BRANCH  26  28
ATOM     27  C   UNL     1       9.362  -0.356  25.914  0.00  0.00    +0.048 C 
ATOM     28  C   UNL     1       8.093  -0.915  26.534  0.00  0.00    +0.229 C 
ENDBRANCH  26  28
ENDBRANCH  24  26
ENDBRANCH  23  24
ENDBRANCH  22  23
ENDBRANCH  14  22
ENDBRANCH  11  15
ENDBRANCH   1  11
BRANCH   6  29
ATOM     29  C   UNL     1       7.792  -3.343  22.992  0.00  0.00    +0.176 C 
BRANCH  29  30
ATOM     30  N   UNL     1       8.363  -3.944  24.207  0.00  0.00    -0.337 N 
ATOM     31  H   UNL     1       9.182  -4.502  23.979  0.00  0.00    +0.147 HD
BRANCH  30  32
ATOM     32  C   UNL     1       7.504  -4.688  25.036  0.00  0.00    +0.027 A 
ATOM     33  C   UNL     1       6.317  -5.282  24.592  0.00  0.00    +0.024 A 
ATOM     34  C   UNL     1       5.479  -5.981  25.469  0.00  0.00    +0.017 A 
ATOM     35  C   UNL     1       5.803  -6.081  26.824  0.00  0.00    +0.065 A 
ATOM     36  C   UNL     1       6.944  -5.437  27.297  0.00  0.00    +0.017 A 
ATOM     37  C   UNL     1       7.772  -4.736  26.413  0.00  0.00    +0.024 A 
BRANCH  35  38
ATOM     38  C   UNL     1       4.936  -6.861  27.754  0.00  0.00    +0.308 C 
ATOM     39  N   UNL     1       5.407  -7.574  28.715  0.00  0.00    -0.099 NA
ATOM     40  H   UNL     1       6.430  -7.571  28.726  0.00  0.00    +0.363 HD
ATOM     41  N   UNL     1       3.580  -6.857  27.594  0.00  0.00    -0.247 N 
ATOM     42  H   UNL     1       3.124  -7.256  28.408  0.00  0.00    +0.288 HD
ATOM     43  H   UNL     1       3.161  -5.986  27.302  0.00  0.00    +0.288 HD
ENDBRANCH  35  38
ENDBRANCH  30  32
ENDBRANCH  29  30
ENDBRANCH   6  29
TORSDOF 12
ENDMDL
MODEL 3
REMARK VINA RESULT:      -7.7      2.493      8.673
REMARK  Name = 
REMARK  14 active torsions:
REMARK  status: ('A' for Active; 'I' for Inactive)
REMARK    1  A    between atoms: C_1  and  C_2
REMARK    2  A    between atoms: C_2  and  O_3
REMARK    3  A    between atoms: O_3  and  C_4
REMARK    4  A    between atoms: C_4  and  C_6
REMARK    5  A    between atoms: C_6  and  O_7
REMARK    6  A    between atoms: O_7  and  N_8
REMARK    7  A    between atoms: C_9  and  C_10
REMARK    8  A    between atoms: C_9  and  C_16
REMARK    9  A    between atoms: C_16  and  C_19
REMARK   10  A    between atoms: N_23  and  C_24
REMARK   11  A    between atoms: C_25  and  C_26
REMARK   12  A    between atoms: C_26  and  N_27
REMARK   13  A    between atoms: N_27  and  C_28
REMARK   14  A    between atoms: C_31  and  C_34
REMARK                            x       y       z     vdW  Elec       q    Type
REMARK                         _______ _______ _______ _____ _____    ______ ____
ROOT
ATOM      1  C   UNL     1       8.717   1.556  24.850  0.00  0.00    -0.033 A 
ATOM      2  C   UNL     1       9.331   0.291  24.997  0.00  0.00    +0.034 A 
ATOM      3  C   UNL     1       8.654  -0.739  25.675  0.00  0.00    +0.090 A 
ATOM      4  C   UNL     1       7.418  -0.471  26.244  0.00  0.00    +0.069 A 
ATOM      5  N   UNL     1       6.911  -1.711  26.543  0.00  0.00    -0.329 N 
ATOM      6  C   UNL     1       7.916  -2.636  26.381  0.00  0.00    +0.128 A 
ATOM      7  C   UNL     1       5.510  -1.992  26.756  0.00  0.00    +0.150 C 
ATOM      8  C   UNL     1       6.887   0.811  26.330  0.00  0.00    +0.028 A 
ATOM      9  N   UNL     1       8.981  -2.062  25.841  0.00  0.00    -0.231 NA
ATOM     10  C   UNL     1       7.552   1.802  25.606  0.00  0.00    +0.007 A 
ENDROOT
BRANCH   1  11
ATOM     11  C   UNL     1       9.142   2.538  23.736  0.00  0.00    +0.043 C 
ATOM     12  C   UNL     1       9.759   3.861  24.232  0.00  0.00    +0.019 C 
ATOM     13  C   UNL     1      10.594   2.920  23.446  0.00  0.00    +0.019 C 
BRANCH  11  15
ATOM     14  N   UNL     1       8.471   1.702  21.498  0.00  0.00    -0.086 NA
ATOM     15  C   UNL     1       8.241   2.494  22.510  0.00  0.00    +0.116 C 
BRANCH  15  16
ATOM     16  C   UNL     1       7.047   3.378  22.417  0.00  0.00    +0.089 A 
ATOM     17  N   UNL     1       5.840   2.807  22.643  0.00  0.00    -0.254 NA
ATOM     18  C   UNL     1       4.811   3.648  22.874  0.00  0.00    +0.111 A 
ATOM     19  C   UNL     1       4.922   5.030  22.872  0.00  0.00    +0.020 A 
ATOM     20  C   UNL     1       6.158   5.594  22.579  0.00  0.00    +0.004 A 
ATOM     21  C   UNL     1       7.242   4.756  22.346  0.00  0.00    +0.030 A 
ENDBRANCH  15  16
BRANCH  14  22
ATOM     22  O   UNL     1       9.607   0.900  21.646  0.00  0.00    -0.382 OA
BRANCH  22  23
ATOM     23  C   UNL     1       9.328  -0.350  21.041  0.00  0.00    +0.382 C 
BRANCH  23  24
ATOM     24  C   UNL     1       9.456  -1.503  22.005  0.00  0.00    +0.348 C 
ATOM     25  O   UNL     1      10.519  -1.892  22.475  0.00  0.00    -0.247 OA
BRANCH  24  26
ATOM     26  O   UNL     1       8.257  -2.142  22.135  0.00  0.00    -0.462 OA
BRANCH  26  28
ATOM     27  C   UNL     1       6.071  -2.243  23.100  0.00  0.00    +0.048 C 
ATOM     28  C   UNL     1       7.177  -1.327  22.605  0.00  0.00    +0.229 C 
ENDBRANCH  26  28
ENDBRANCH  24  26
ENDBRANCH  23  24
ENDBRANCH  22  23
ENDBRANCH  14  22
ENDBRANCH  11  15
ENDBRANCH   1  11
BRANCH   6  29
ATOM     29  C   UNL     1       7.791  -4.074  26.798  0.00  0.00    +0.176 C 
BRANCH  29  30
ATOM     30  N   UNL     1       7.761  -5.080  25.724  0.00  0.00    -0.337 N 
ATOM     31  H   UNL     1       8.401  -4.823  24.976  0.00  0.00    +0.147 HD
BRANCH  30  32
ATOM     32  C   UNL     1       6.511  -5.417  25.177  0.00  0.00    +0.027 A 
ATOM     33  C   UNL     1       5.400  -5.784  25.945  0.00  0.00    +0.024 A 
ATOM     34  C   UNL     1       4.187  -6.148  25.348  0.00  0.00    +0.017 A 
ATOM     35  C   UNL     1       4.068  -6.173  23.956  0.00  0.00    +0.065 A 
ATOM     36  C   UNL     1       5.182  -5.878  23.174  0.00  0.00    +0.017 A 
ATOM     37  C   UNL     1       6.391  -5.522  23.782  0.00  0.00    +0.024 A 
BRANCH  35  38
ATOM     38  C   UNL     1       2.765  -6.517  23.315  0.00  0.00    +0.308 C 
ATOM     39  N   UNL     1       1.971  -5.631  22.828  0.00  0.00    -0.099 NA
ATOM     40  H   UNL     1       2.321  -4.681  22.977  0.00  0.00    +0.363 HD
ATOM     41  N   UNL     1       2.358  -7.818  23.243  0.00  0.00    -0.247 N 
ATOM     42  H   UNL     1       1.570  -7.911  22.610  0.00  0.00    +0.288 HD
ATOM     43  H   UNL     1       3.075  -8.509  23.074  0.00  0.00    +0.288 HD
ENDBRANCH  35  38
ENDBRANCH  30  32
ENDBRANCH  29  30
ENDBRANCH   6  29
TORSDOF 12
ENDMDL
MODEL 4
REMARK VINA RESULT:      -7.6      2.774      4.785
REMARK  Name = 
REMARK  14 active torsions:
REMARK  status: ('A' for Active; 'I' for Inactive)
REMARK    1  A    between atoms: C_1  and  C_2
REMARK    2  A    between atoms: C_2  and  O_3
REMARK    3  A    between atoms: O_3  and  C_4
REMARK    4  A    between atoms: C_4  and  C_6
REMARK    5  A    between atoms: C_6  and  O_7
REMARK    6  A    between atoms: O_7  and  N_8
REMARK    7  A    between atoms: C_9  and  C_10
REMARK    8  A    between atoms: C_9  and  C_16
REMARK    9  A    between atoms: C_16  and  C_19
REMARK   10  A    between atoms: N_23  and  C_24
REMARK   11  A    between atoms: C_25  and  C_26
REMARK   12  A    between atoms: C_26  and  N_27
REMARK   13  A    between atoms: N_27  and  C_28
REMARK   14  A    between atoms: C_31  and  C_34
REMARK                            x       y       z     vdW  Elec       q    Type
REMARK                         _______ _______ _______ _____ _____    ______ ____
ROOT
ATOM      1  C   UNL     1       5.682  -1.958  24.686  0.00  0.00    -0.033 A 
ATOM      2  C   UNL     1       6.158  -0.736  24.157  0.00  0.00    +0.034 A 
ATOM      3  C   UNL     1       6.352   0.366  25.009  0.00  0.00    +0.090 A 
ATOM      4  C   UNL     1       6.010   0.249  26.348  0.00  0.00    +0.069 A 
ATOM      5  N   UNL     1       6.588   1.346  26.938  0.00  0.00    -0.329 N 
ATOM      6  C   UNL     1       7.032   2.185  25.942  0.00  0.00    +0.128 A 
ATOM      7  C   UNL     1       6.878   1.457  28.348  0.00  0.00    +0.150 C 
ATOM      8  C   UNL     1       5.322  -0.845  26.860  0.00  0.00    +0.028 A 
ATOM      9  N   UNL     1       6.906   1.598  24.761  0.00  0.00    -0.231 NA
ATOM     10  C   UNL     1       5.189  -1.941  26.007  0.00  0.00    +0.007 A 
ENDROOT
BRANCH   1  11
ATOM     11  C   UNL     1       5.915  -3.300  23.959  0.00  0.00    +0.043 C 
ATOM     12  C   UNL     1       4.676  -3.882  23.248  0.00  0.00    +0.019 C 
ATOM     13  C   UNL     1       5.850  -3.469  22.441  0.00  0.00    +0.019 C 
BRANCH  11  15
ATOM     14  N   UNL     1       8.202  -4.164  24.386  0.00  0.00    -0.086 NA
ATOM     15  C   UNL     1       6.925  -4.201  24.655  0.00  0.00    +0.116 C 
BRANCH  15  16
ATOM     16  C   UNL     1       6.481  -5.183  25.682  0.00  0.00    +0.089 A 
ATOM     17  N   UNL     1       7.143  -5.180  26.863  0.00  0.00    -0.254 NA
ATOM     18  C   UNL     1       6.550  -5.828  27.887  0.00  0.00    +0.111 A 
ATOM     19  C   UNL     1       5.338  -6.494  27.786  0.00  0.00    +0.020 A 
ATOM     20  C   UNL     1       4.706  -6.535  26.549  0.00  0.00    +0.004 A 
ATOM     21  C   UNL     1       5.285  -5.869  25.475  0.00  0.00    +0.030 A 
ENDBRANCH  15  16
BRANCH  14  22
ATOM     22  O   UNL     1       8.554  -3.224  23.412  0.00  0.00    -0.382 OA
BRANCH  22  23
ATOM     23  C   UNL     1       9.807  -2.677  23.781  0.00  0.00    +0.382 C 
BRANCH  23  24
ATOM     24  C   UNL     1       9.676  -1.351  24.490  0.00  0.00    +0.348 C 
ATOM     25  O   UNL     1       9.251  -1.221  25.632  0.00  0.00    -0.247 OA
BRANCH  24  26
ATOM     26  O   UNL     1       9.932  -0.328  23.624  0.00  0.00    -0.462 OA
BRANCH  26  28
ATOM     27  C   UNL     1       9.415   0.582  21.473  0.00  0.00    +0.048 C 
ATOM     28  C   UNL     1       9.835  -0.664  22.235  0.00  0.00    +0.229 C 
ENDBRANCH  26  28
ENDBRANCH  24  26
ENDBRANCH  23  24
ENDBRANCH  22  23
ENDBRANCH  14  22
ENDBRANCH  11  15
ENDBRANCH   1  11
BRANCH   6  29
ATOM     29  C   UNL     1       7.549   3.572  26.199  0.00  0.00    +0.176 C 
BRANCH  29  30
ATOM     30  N   UNL     1       7.675   4.463  25.035  0.00  0.00    -0.337 N 
ATOM     31  H   UNL     1       6.985   4.225  24.327  0.00  0.00    +0.147 HD
BRANCH  30  32
ATOM     32  C   UNL     1       8.941   4.583  24.436  0.00  0.00    +0.027 A 
ATOM     33  C   UNL     1       9.634   3.511  23.862  0.00  0.00    +0.024 A 
ATOM     34  C   UNL     1      10.910   3.678  23.311  0.00  0.00    +0.017 A 
ATOM     35  C   UNL     1      11.533   4.928  23.344  0.00  0.00    +0.065 A 
ATOM     36  C   UNL     1      10.889   5.991  23.973  0.00  0.00    +0.017 A 
ATOM     37  C   UNL     1       9.616   5.811  24.526  0.00  0.00    +0.024 A 
BRANCH  35  38
ATOM     38  C   UNL     1      12.875   5.121  22.720  0.00  0.00    +0.308 C 
ATOM     39  N   UNL     1      13.969   5.095  23.394  0.00  0.00    -0.099 NA
ATOM     40  H   UNL     1      13.797   4.974  24.395  0.00  0.00    +0.363 HD
ATOM     41  N   UNL     1      12.980   5.359  21.380  0.00  0.00    -0.247 N 
ATOM     42  H   UNL     1      13.944   5.265  21.075  0.00  0.00    +0.288 HD
ATOM     43  H   UNL     1      12.334   4.867  20.779  0.00  0.00    +0.288 HD
ENDBRANCH  35  38
ENDBRANCH  30  32
ENDBRANCH  29  30
ENDBRANCH   6  29
TORSDOF 12
ENDMDL
MODEL 5
REMARK VINA RESULT:      -7.6      2.672      9.815
REMARK  Name = 
REMARK  14 active torsions:
REMARK  status: ('A' for Active; 'I' for Inactive)
REMARK    1  A    between atoms: C_1  and  C_2
REMARK    2  A    between atoms: C_2  and  O_3
REMARK    3  A    between atoms: O_3  and  C_4
REMARK    4  A    between atoms: C_4  and  C_6
REMARK    5  A    between atoms: C_6  and  O_7
REMARK    6  A    between atoms: O_7  and  N_8
REMARK    7  A    between atoms: C_9  and  C_10
REMARK    8  A    between atoms: C_9  and  C_16
REMARK    9  A    between atoms: C_16  and  C_19
REMARK   10  A    between atoms: N_23  and  C_24
REMARK   11  A    between atoms: C_25  and  C_26
REMARK   12  A    between atoms: C_26  and  N_27
REMARK   13  A    between atoms: N_27  and  C_28
REMARK   14  A    between atoms: C_31  and  C_34
REMARK                            x       y       z     vdW  Elec       q    Type
REMARK                         _______ _______ _______ _____ _____    ______ ____
ROOT
ATOM      1  C   UNL     1       8.044   2.666  22.611  0.00  0.00    -0.033 A 
ATOM      2  C   UNL     1       7.146   1.578  22.708  0.00  0.00    +0.034 A 
ATOM      3  C   UNL     1       7.621   0.265  22.551  0.00  0.00    +0.090 A 
ATOM      4  C   UNL     1       8.958   0.065  22.239  0.00  0.00    +0.069 A 
ATOM      5  N   UNL     1       9.156  -1.276  22.454  0.00  0.00    -0.329 N 
ATOM      6  C   UNL     1       7.927  -1.867  22.642  0.00  0.00    +0.128 A 
ATOM      7  C   UNL     1      10.446  -1.886  22.675  0.00  0.00    +0.150 C 
ATOM      8  C   UNL     1       9.819   1.104  21.901  0.00  0.00    +0.028 A 
ATOM      9  N   UNL     1       6.983  -0.941  22.715  0.00  0.00    -0.231 NA
ATOM     10  C   UNL     1       9.336   2.396  22.116  0.00  0.00    +0.007 A 
ENDROOT
BRANCH   1  11
ATOM     11  C   UNL     1       7.725   4.038  23.246  0.00  0.00    +0.043 C 
ATOM     12  C   UNL     1       7.357   5.151  22.245  0.00  0.00    +0.019 C 
ATOM     13  C   UNL     1       6.341   4.687  23.221  0.00  0.00    +0.019 C 
BRANCH  11  15
ATOM     14  N   UNL     1       8.298   3.766  25.645  0.00  0.00    -0.086 NA
ATOM     15  C   UNL     1       8.542   4.334  24.495  0.00  0.00    +0.116 C 
BRANCH  15  16
ATOM     16  C   UNL     1       9.666   5.309  24.450  0.00  0.00    +0.089 A 
ATOM     17  N   UNL     1       9.610   6.352  25.312  0.00  0.00    -0.254 NA
ATOM     18  C   UNL     1      10.756   7.042  25.495  0.00  0.00    +0.111 A 
ATOM     19  C   UNL     1      11.948   6.755  24.849  0.00  0.00    +0.020 A 
ATOM     20  C   UNL     1      11.965   5.717  23.924  0.00  0.00    +0.004 A 
ATOM     21  C   UNL     1      10.806   4.979  23.718  0.00  0.00    +0.030 A 
ENDBRANCH  15  16
BRANCH  14  22
ATOM     22  O   UNL     1       7.230   2.864  25.622  0.00  0.00    -0.382 OA
BRANCH  22  23
ATOM     23  C   UNL     1       6.870   2.594  26.964  0.00  0.00    +0.382 C 
BRANCH  23  24
ATOM     24  C   UNL     1       7.026   1.138  27.327  0.00  0.00    +0.348 C 
ATOM     25  O   UNL     1       7.233   0.731  28.464  0.00  0.00    -0.247 OA
BRANCH  24  26
ATOM     26  O   UNL     1       7.074   0.376  26.196  0.00  0.00    -0.462 OA
BRANCH  26  28
ATOM     27  C   UNL     1       9.400  -0.008  25.788  0.00  0.00    +0.048 C 
ATOM     28  C   UNL     1       8.079  -0.645  26.188  0.00  0.00    +0.229 C 
ENDBRANCH  26  28
ENDBRANCH  24  26
ENDBRANCH  23  24
ENDBRANCH  22  23
ENDBRANCH  14  22
ENDBRANCH  11  15
ENDBRANCH   1  11
BRANCH   6  29
ATOM     29  C   UNL     1       7.728  -3.354  22.716  0.00  0.00    +0.176 C 
BRANCH  29  30
ATOM     30  N   UNL     1       7.509  -3.931  24.052  0.00  0.00    -0.337 N 
ATOM     31  H   UNL     1       8.365  -4.353  24.403  0.00  0.00    +0.147 HD
BRANCH  30  32
ATOM     32  C   UNL     1       6.442  -4.833  24.209  0.00  0.00    +0.027 A 
ATOM     33  C   UNL     1       6.139  -5.477  25.414  0.00  0.00    +0.024 A 
ATOM     34  C   UNL     1       5.087  -6.395  25.507  0.00  0.00    +0.017 A 
ATOM     35  C   UNL     1       4.323  -6.707  24.379  0.00  0.00    +0.065 A 
ATOM     36  C   UNL     1       4.654  -6.129  23.155  0.00  0.00    +0.017 A 
ATOM     37  C   UNL     1       5.712  -5.217  23.073  0.00  0.00    +0.024 A 
BRANCH  35  38
ATOM     38  C   UNL     1       3.173  -7.652  24.482  0.00  0.00    +0.308 C 
ATOM     39  N   UNL     1       2.907  -8.314  25.551  0.00  0.00    -0.099 NA
ATOM     40  H   UNL     1       3.598  -8.146  26.287  0.00  0.00    +0.363 HD
ATOM     41  N   UNL     1       2.359  -7.862  23.406  0.00  0.00    -0.247 N 
ATOM     42  H   UNL     1       1.520  -8.360  23.686  0.00  0.00    +0.288 HD
ATOM     43  H   UNL     1       2.160  -7.060  22.825  0.00  0.00    +0.288 HD
ENDBRANCH  35  38
ENDBRANCH  30  32
ENDBRANCH  29  30
ENDBRANCH   6  29
TORSDOF 12
ENDMDL
MODEL 6
REMARK VINA RESULT:      -7.4      1.914      2.806
REMARK  Name = 
REMARK  14 active torsions:
REMARK  status: ('A' for Active; 'I' for Inactive)
REMARK    1  A    between atoms: C_1  and  C_2
REMARK    2  A    between atoms: C_2  and  O_3
REMARK    3  A    between atoms: O_3  and  C_4
REMARK    4  A    between atoms: C_4  and  C_6
REMARK    5  A    between atoms: C_6  and  O_7
REMARK    6  A    between atoms: O_7  and  N_8
REMARK    7  A    between atoms: C_9  and  C_10
REMARK    8  A    between atoms: C_9  and  C_16
REMARK    9  A    between atoms: C_16  and  C_19
REMARK   10  A    between atoms: N_23  and  C_24
REMARK   11  A    between atoms: C_25  and  C_26
REMARK   12  A    between atoms: C_26  and  N_27
REMARK   13  A    between atoms: N_27  and  C_28
REMARK   14  A    between atoms: C_31  and  C_34
REMARK                            x       y       z     vdW  Elec       q    Type
REMARK                         _______ _______ _______ _____ _____    ______ ____
ROOT
ATOM      1  C   UNL     1       6.800  -3.908  23.416  0.00  0.00    -0.033 A 
ATOM      2  C   UNL     1       6.129  -2.664  23.396  0.00  0.00    +0.034 A 
ATOM      3  C   UNL     1       6.857  -1.482  23.172  0.00  0.00    +0.090 A 
ATOM      4  C   UNL     1       8.235  -1.555  23.037  0.00  0.00    +0.069 A 
ATOM      5  N   UNL     1       8.590  -0.326  22.540  0.00  0.00    -0.329 N 
ATOM      6  C   UNL     1       7.493   0.502  22.619  0.00  0.00    +0.128 A 
ATOM      7  C   UNL     1       9.826  -0.050  21.846  0.00  0.00    +0.150 C 
ATOM      8  C   UNL     1       8.959  -2.716  23.286  0.00  0.00    +0.028 A 
ATOM      9  N   UNL     1       6.426  -0.190  22.991  0.00  0.00    -0.231 NA
ATOM     10  C   UNL     1       8.210  -3.882  23.454  0.00  0.00    +0.007 A 
ENDROOT
BRANCH   1  11
ATOM     11  C   UNL     1       6.054  -5.235  23.156  0.00  0.00    +0.043 C 
ATOM     12  C   UNL     1       5.898  -5.617  21.670  0.00  0.00    +0.019 C 
ATOM     13  C   UNL     1       6.712  -6.480  22.561  0.00  0.00    +0.019 C 
BRANCH  11  15
ATOM     14  N   UNL     1       5.204  -5.930  25.381  0.00  0.00    -0.086 NA
ATOM     15  C   UNL     1       4.953  -5.522  24.167  0.00  0.00    +0.116 C 
BRANCH  15  16
ATOM     16  C   UNL     1       3.521  -5.352  23.795  0.00  0.00    +0.089 A 
ATOM     17  N   UNL     1       2.966  -6.320  23.029  0.00  0.00    -0.254 NA
ATOM     18  C   UNL     1       1.618  -6.334  22.962  0.00  0.00    +0.111 A 
ATOM     19  C   UNL     1       0.799  -5.420  23.606  0.00  0.00    +0.020 A 
ATOM     20  C   UNL     1       1.394  -4.399  24.339  0.00  0.00    +0.004 A 
ATOM     21  C   UNL     1       2.780  -4.361  24.437  0.00  0.00    +0.030 A 
ENDBRANCH  15  16
BRANCH  14  22
ATOM     22  O   UNL     1       6.565  -6.071  25.668  0.00  0.00    -0.382 OA
BRANCH  22  23
ATOM     23  C   UNL     1       6.865  -5.211  26.751  0.00  0.00    +0.382 C 
BRANCH  23  24
ATOM     24  C   UNL     1       6.401  -5.761  28.076  0.00  0.00    +0.348 C 
ATOM     25  O   UNL     1       6.784  -6.823  28.553  0.00  0.00    -0.247 OA
BRANCH  24  26
ATOM     26  O   UNL     1       5.382  -4.999  28.570  0.00  0.00    -0.462 OA
BRANCH  26  28
ATOM     27  C   UNL     1       4.080  -2.993  28.648  0.00  0.00    +0.048 C 
ATOM     28  C   UNL     1       5.249  -3.700  27.982  0.00  0.00    +0.229 C 
ENDBRANCH  26  28
ENDBRANCH  24  26
ENDBRANCH  23  24
ENDBRANCH  22  23
ENDBRANCH  14  22
ENDBRANCH  11  15
ENDBRANCH   1  11
BRANCH   6  29
ATOM     29  C   UNL     1       7.550   1.978  22.345  0.00  0.00    +0.176 C 
BRANCH  29  30
ATOM     30  N   UNL     1       7.683   2.868  23.509  0.00  0.00    -0.337 N 
ATOM     31  H   UNL     1       6.869   3.471  23.593  0.00  0.00    +0.147 HD
BRANCH  30  32
ATOM     32  C   UNL     1       8.853   3.640  23.612  0.00  0.00    +0.027 A 
ATOM     33  C   UNL     1       8.855   5.028  23.795  0.00  0.00    +0.024 A 
ATOM     34  C   UNL     1      10.050   5.755  23.854  0.00  0.00    +0.017 A 
ATOM     35  C   UNL     1      11.277   5.105  23.707  0.00  0.00    +0.065 A 
ATOM     36  C   UNL     1      11.294   3.735  23.454  0.00  0.00    +0.017 A 
ATOM     37  C   UNL     1      10.093   3.020  23.392  0.00  0.00    +0.024 A 
BRANCH  35  38
ATOM     38  C   UNL     1      12.555   5.868  23.813  0.00  0.00    +0.308 C 
ATOM     39  N   UNL     1      12.803   6.686  24.773  0.00  0.00    -0.099 NA
ATOM     40  H   UNL     1      12.009   6.775  25.413  0.00  0.00    +0.363 HD
ATOM     41  N   UNL     1      13.517   5.732  22.853  0.00  0.00    -0.247 N 
ATOM     42  H   UNL     1      14.391   6.145  23.163  0.00  0.00    +0.288 HD
ATOM     43  H   UNL     1      13.641   4.809  22.463  0.00  0.00    +0.288 HD
ENDBRANCH  35  38
ENDBRANCH  30  32
ENDBRANCH  29  30
ENDBRANCH   6  29
TORSDOF 12
ENDMDL
MODEL 7
REMARK VINA RESULT:      -7.4      2.515      4.392
REMARK  Name = 
REMARK  14 active torsions:
REMARK  status: ('A' for Active; 'I' for Inactive)
REMARK    1  A    between atoms: C_1  and  C_2
REMARK    2  A    between atoms: C_2  and  O_3
REMARK    3  A    between atoms: O_3  and  C_4
REMARK    4  A    between atoms: C_4  and  C_6
REMARK    5  A    between atoms: C_6  and  O_7
REMARK    6  A    between atoms: O_7  and  N_8
REMARK    7  A    between atoms: C_9  and  C_10
REMARK    8  A    between atoms: C_9  and  C_16
REMARK    9  A    between atoms: C_16  and  C_19
REMARK   10  A    between atoms: N_23  and  C_24
REMARK   11  A    between atoms: C_25  and  C_26
REMARK   12  A    between atoms: C_26  and  N_27
REMARK   13  A    between atoms: N_27  and  C_28
REMARK   14  A    between atoms: C_31  and  C_34
REMARK                            x       y       z     vdW  Elec       q    Type
REMARK                         _______ _______ _______ _____ _____    ______ ____
ROOT
ATOM      1  C   UNL     1       6.038  -2.462  25.622  0.00  0.00    -0.033 A 
ATOM      2  C   UNL     1       6.181  -1.513  24.584  0.00  0.00    +0.034 A 
ATOM      3  C   UNL     1       6.036  -0.143  24.865  0.00  0.00    +0.090 A 
ATOM      4  C   UNL     1       5.691   0.248  26.151  0.00  0.00    +0.069 A 
ATOM      5  N   UNL     1       5.926   1.600  26.165  0.00  0.00    -0.329 N 
ATOM      6  C   UNL     1       6.159   2.009  24.871  0.00  0.00    +0.128 A 
ATOM      7  C   UNL     1       6.123   2.383  27.362  0.00  0.00    +0.150 C 
ATOM      8  C   UNL     1       5.310  -0.654  27.138  0.00  0.00    +0.028 A 
ATOM      9  N   UNL     1       6.241   0.958  24.069  0.00  0.00    -0.231 NA
ATOM     10  C   UNL     1       5.513  -2.004  26.848  0.00  0.00    +0.007 A 
ENDROOT
BRANCH   1  11
ATOM     11  C   UNL     1       6.655  -3.874  25.519  0.00  0.00    +0.043 C 
ATOM     12  C   UNL     1       7.978  -4.067  26.287  0.00  0.00    +0.019 C 
ATOM     13  C   UNL     1       6.779  -4.838  26.700  0.00  0.00    +0.019 C 
BRANCH  11  15
ATOM     14  N   UNL     1       7.288  -4.513  23.206  0.00  0.00    -0.086 NA
ATOM     15  C   UNL     1       6.414  -4.546  24.175  0.00  0.00    +0.116 C 
BRANCH  15  16
ATOM     16  C   UNL     1       5.142  -5.274  23.911  0.00  0.00    +0.089 A 
ATOM     17  N   UNL     1       5.029  -6.521  24.424  0.00  0.00    -0.254 NA
ATOM     18  C   UNL     1       3.786  -7.045  24.462  0.00  0.00    +0.111 A 
ATOM     19  C   UNL     1       2.654  -6.394  23.997  0.00  0.00    +0.020 A 
ATOM     20  C   UNL     1       2.804  -5.139  23.419  0.00  0.00    +0.004 A 
ATOM     21  C   UNL     1       4.069  -4.565  23.373  0.00  0.00    +0.030 A 
ENDBRANCH  15  16
BRANCH  14  22
ATOM     22  O   UNL     1       8.459  -3.813  23.516  0.00  0.00    -0.382 OA
BRANCH  22  23
ATOM     23  C   UNL     1       8.593  -2.767  22.571  0.00  0.00    +0.382 C 
BRANCH  23  24
ATOM     24  C   UNL     1       9.794  -1.894  22.838  0.00  0.00    +0.348 C 
ATOM     25  O   UNL     1      10.595  -1.545  21.979  0.00  0.00    -0.247 OA
BRANCH  24  26
ATOM     26  O   UNL     1       9.945  -1.701  24.180  0.00  0.00    -0.462 OA
BRANCH  26  28
ATOM     27  C   UNL     1       9.293  -0.388  26.070  0.00  0.00    +0.048 C 
ATOM     28  C   UNL     1       9.769  -0.352  24.628  0.00  0.00    +0.229 C 
ENDBRANCH  26  28
ENDBRANCH  24  26
ENDBRANCH  23  24
ENDBRANCH  22  23
ENDBRANCH  14  22
ENDBRANCH  11  15
ENDBRANCH   1  11
BRANCH   6  29
ATOM     29  C   UNL     1       6.268   3.452  24.468  0.00  0.00    +0.176 C 
BRANCH  29  30
ATOM     30  N   UNL     1       7.055   3.749  23.261  0.00  0.00    -0.337 N 
ATOM     31  H   UNL     1       7.107   2.932  22.658  0.00  0.00    +0.147 HD
BRANCH  30  32
ATOM     32  C   UNL     1       8.343   4.286  23.434  0.00  0.00    +0.027 A 
ATOM     33  C   UNL     1       8.624   5.657  23.406  0.00  0.00    +0.024 A 
ATOM     34  C   UNL     1       9.931   6.138  23.547  0.00  0.00    +0.017 A 
ATOM     35  C   UNL     1      10.996   5.246  23.698  0.00  0.00    +0.065 A 
ATOM     36  C   UNL     1      10.745   3.877  23.658  0.00  0.00    +0.017 A 
ATOM     37  C   UNL     1       9.435   3.408  23.510  0.00  0.00    +0.024 A 
BRANCH  35  38
ATOM     38  C   UNL     1      12.385   5.754  23.892  0.00  0.00    +0.308 C 
ATOM     39  N   UNL     1      12.707   6.563  24.838  0.00  0.00    -0.099 NA
ATOM     40  H   UNL     1      11.896   6.841  25.395  0.00  0.00    +0.363 HD
ATOM     41  N   UNL     1      13.379   5.380  23.035  0.00  0.00    -0.247 N 
ATOM     42  H   UNL     1      14.288   5.633  23.409  0.00  0.00    +0.288 HD
ATOM     43  H   UNL     1      13.351   4.428  22.695  0.00  0.00    +0.288 HD
ENDBRANCH  35  38
ENDBRANCH  30  32
ENDBRANCH  29  30
ENDBRANCH   6  29
TORSDOF 12
ENDMDL
MODEL 8
REMARK VINA RESULT:      -7.3      2.313      8.760
REMARK  Name = 
REMARK  14 active torsions:
REMARK  status: ('A' for Active; 'I' for Inactive)
REMARK    1  A    between atoms: C_1  and  C_2
REMARK    2  A    between atoms: C_2  and  O_3
REMARK    3  A    between atoms: O_3  and  C_4
REMARK    4  A    between atoms: C_4  and  C_6
REMARK    5  A    between atoms: C_6  and  O_7
REMARK    6  A    between atoms: O_7  and  N_8
REMARK    7  A    between atoms: C_9  and  C_10
REMARK    8  A    between atoms: C_9  and  C_16
REMARK    9  A    between atoms: C_16  and  C_19
REMARK   10  A    between atoms: N_23  and  C_24
REMARK   11  A    between atoms: C_25  and  C_26
REMARK   12  A    between atoms: C_26  and  N_27
REMARK   13  A    between atoms: N_27  and  C_28
REMARK   14  A    between atoms: C_31  and  C_34
REMARK                            x       y       z     vdW  Elec       q    Type
REMARK                         _______ _______ _______ _____ _____    ______ ____
ROOT
ATOM      1  C   UNL     1       9.115  -0.225  23.240  0.00  0.00    -0.033 A 
ATOM      2  C   UNL     1       7.765  -0.468  22.896  0.00  0.00    +0.034 A 
ATOM      3  C   UNL     1       7.317  -1.789  22.720  0.00  0.00    +0.090 A 
ATOM      4  C   UNL     1       8.229  -2.829  22.826  0.00  0.00    +0.069 A 
ATOM      5  N   UNL     1       7.447  -3.954  22.906  0.00  0.00    -0.329 N 
ATOM      6  C   UNL     1       6.151  -3.598  22.611  0.00  0.00    +0.128 A 
ATOM      7  C   UNL     1       7.890  -5.221  23.441  0.00  0.00    +0.150 C 
ATOM      8  C   UNL     1       9.601  -2.625  22.925  0.00  0.00    +0.028 A 
ATOM      9  N   UNL     1       6.053  -2.282  22.506  0.00  0.00    -0.231 NA
ATOM     10  C   UNL     1      10.011  -1.310  23.150  0.00  0.00    +0.007 A 
ENDROOT
BRANCH   1  11
ATOM     11  C   UNL     1       9.552   1.090  23.922  0.00  0.00    +0.043 C 
ATOM     12  C   UNL     1      10.987   1.088  24.486  0.00  0.00    +0.019 C 
ATOM     13  C   UNL     1      10.644   2.011  23.376  0.00  0.00    +0.019 C 
BRANCH  11  15
ATOM     14  N   UNL     1       7.872   1.342  25.731  0.00  0.00    -0.086 NA
ATOM     15  C   UNL     1       8.419   1.808  24.641  0.00  0.00    +0.116 C 
BRANCH  15  16
ATOM     16  C   UNL     1       7.879   3.091  24.112  0.00  0.00    +0.089 A 
ATOM     17  N   UNL     1       8.261   4.226  24.742  0.00  0.00    -0.254 NA
ATOM     18  C   UNL     1       8.040   5.383  24.083  0.00  0.00    +0.111 A 
ATOM     19  C   UNL     1       7.440   5.464  22.837  0.00  0.00    +0.020 A 
ATOM     20  C   UNL     1       7.003   4.290  22.235  0.00  0.00    +0.004 A 
ATOM     21  C   UNL     1       7.224   3.080  22.881  0.00  0.00    +0.030 A 
ENDBRANCH  15  16
BRANCH  14  22
ATOM     22  O   UNL     1       8.421   0.135  26.176  0.00  0.00    -0.382 OA
BRANCH  22  23
ATOM     23  C   UNL     1       7.511  -0.433  27.100  0.00  0.00    +0.382 C 
BRANCH  23  24
ATOM     24  C   UNL     1       6.623  -1.478  26.472  0.00  0.00    +0.348 C 
ATOM     25  O   UNL     1       5.692  -1.226  25.716  0.00  0.00    -0.247 OA
BRANCH  24  26
ATOM     26  O   UNL     1       6.898  -2.706  27.000  0.00  0.00    -0.462 OA
BRANCH  26  28
ATOM     27  C   UNL     1       7.965  -4.839  26.810  0.00  0.00    +0.048 C 
ATOM     28  C   UNL     1       8.047  -3.364  26.453  0.00  0.00    +0.229 C 
ENDBRANCH  26  28
ENDBRANCH  24  26
ENDBRANCH  23  24
ENDBRANCH  22  23
ENDBRANCH  14  22
ENDBRANCH  11  15
ENDBRANCH   1  11
BRANCH   6  29
ATOM     29  C   UNL     1       5.044  -4.595  22.414  0.00  0.00    +0.176 C 
BRANCH  29  30
ATOM     30  N   UNL     1       3.922  -4.542  23.364  0.00  0.00    -0.337 N 
ATOM     31  H   UNL     1       3.589  -3.587  23.470  0.00  0.00    +0.147 HD
BRANCH  30  32
ATOM     32  C   UNL     1       4.109  -5.117  24.632  0.00  0.00    +0.027 A 
ATOM     33  C   UNL     1       4.005  -4.405  25.833  0.00  0.00    +0.024 A 
ATOM     34  C   UNL     1       4.238  -5.019  27.069  0.00  0.00    +0.017 A 
ATOM     35  C   UNL     1       4.605  -6.365  27.128  0.00  0.00    +0.065 A 
ATOM     36  C   UNL     1       4.781  -7.073  25.941  0.00  0.00    +0.017 A 
ATOM     37  C   UNL     1       4.552  -6.447  24.711  0.00  0.00    +0.024 A 
BRANCH  35  38
ATOM     38  C   UNL     1       4.812  -7.036  28.445  0.00  0.00    +0.308 C 
ATOM     39  N   UNL     1       3.846  -7.517  29.142  0.00  0.00    -0.099 NA
ATOM     40  H   UNL     1       2.936  -7.342  28.708  0.00  0.00    +0.363 HD
ATOM     41  N   UNL     1       6.067  -7.142  28.971  0.00  0.00    -0.247 N 
ATOM     42  H   UNL     1       6.073  -7.790  29.752  0.00  0.00    +0.288 HD
ATOM     43  H   UNL     1       6.819  -7.314  28.318  0.00  0.00    +0.288 HD
ENDBRANCH  35  38
ENDBRANCH  30  32
ENDBRANCH  29  30
ENDBRANCH   6  29
TORSDOF 12
ENDMDL
MODEL 9
REMARK VINA RESULT:      -7.3      3.026      5.741
REMARK  Name = 
REMARK  14 active torsions:
REMARK  status: ('A' for Active; 'I' for Inactive)
REMARK    1  A    between atoms: C_1  and  C_2
REMARK    2  A    between atoms: C_2  and  O_3
REMARK    3  A    between atoms: O_3  and  C_4
REMARK    4  A    between atoms: C_4  and  C_6
REMARK    5  A    between atoms: C_6  and  O_7
REMARK    6  A    between atoms: O_7  and  N_8
REMARK    7  A    between atoms: C_9  and  C_10
REMARK    8  A    between atoms: C_9  and  C_16
REMARK    9  A    between atoms: C_16  and  C_19
REMARK   10  A    between atoms: N_23  and  C_24
REMARK   11  A    between atoms: C_25  and  C_26
REMARK   12  A    between atoms: C_26  and  N_27
REMARK   13  A    between atoms: N_27  and  C_28
REMARK   14  A    between atoms: C_31  and  C_34
REMARK                            x       y       z     vdW  Elec       q    Type
REMARK                         _______ _______ _______ _____ _____    ______ ____
ROOT
ATOM      1  C   UNL     1       7.440  -0.476  24.754  0.00  0.00    -0.033 A 
ATOM      2  C   UNL     1       7.576   0.672  25.568  0.00  0.00    +0.034 A 
ATOM      3  C   UNL     1       7.017   1.894  25.152  0.00  0.00    +0.090 A 
ATOM      4  C   UNL     1       6.395   1.962  23.914  0.00  0.00    +0.069 A 
ATOM      5  N   UNL     1       5.716   3.155  23.946  0.00  0.00    -0.329 N 
ATOM      6  C   UNL     1       6.129   3.855  25.056  0.00  0.00    +0.128 A 
ATOM      7  C   UNL     1       4.601   3.483  23.088  0.00  0.00    +0.150 C 
ATOM      8  C   UNL     1       6.446   0.930  22.984  0.00  0.00    +0.028 A 
ATOM      9  N   UNL     1       6.913   3.097  25.807  0.00  0.00    -0.231 NA
ATOM     10  C   UNL     1       6.959  -0.285  23.442  0.00  0.00    +0.007 A 
ENDROOT
BRANCH   1  11
ATOM     11  C   UNL     1       7.566  -1.901  25.336  0.00  0.00    +0.043 C 
ATOM     12  C   UNL     1       8.311  -1.992  26.683  0.00  0.00    +0.019 C 
ATOM     13  C   UNL     1       6.875  -2.360  26.621  0.00  0.00    +0.019 C 
BRANCH  11  15
ATOM     14  N   UNL     1       8.811  -3.144  23.587  0.00  0.00    -0.086 NA
ATOM     15  C   UNL     1       7.713  -2.981  24.275  0.00  0.00    +0.116 C 
BRANCH  15  16
ATOM     16  C   UNL     1       6.584  -3.903  23.971  0.00  0.00    +0.089 A 
ATOM     17  N   UNL     1       6.636  -5.139  24.520  0.00  0.00    -0.254 NA
ATOM     18  C   UNL     1       5.487  -5.847  24.513  0.00  0.00    +0.111 A 
ATOM     19  C   UNL     1       4.296  -5.391  23.971  0.00  0.00    +0.020 A 
ATOM     20  C   UNL     1       4.283  -4.143  23.360  0.00  0.00    +0.004 A 
ATOM     21  C   UNL     1       5.446  -3.382  23.357  0.00  0.00    +0.030 A 
ENDBRANCH  15  16
BRANCH  14  22
ATOM     22  O   UNL     1       9.832  -2.248  23.917  0.00  0.00    -0.382 OA
BRANCH  22  23
ATOM     23  C   UNL     1      10.491  -1.892  22.716  0.00  0.00    +0.382 C 
BRANCH  23  24
ATOM     24  C   UNL     1      10.033  -0.561  22.174  0.00  0.00    +0.348 C 
ATOM     25  O   UNL     1       9.444  -0.418  21.109  0.00  0.00    -0.247 OA
BRANCH  24  26
ATOM     26  O   UNL     1      10.519   0.453  22.947  0.00  0.00    -0.462 OA
BRANCH  26  28
ATOM     27  C   UNL     1      10.258   2.697  23.736  0.00  0.00    +0.048 C 
ATOM     28  C   UNL     1      10.139   1.772  22.537  0.00  0.00    +0.229 C 
ENDBRANCH  26  28
ENDBRANCH  24  26
ENDBRANCH  23  24
ENDBRANCH  22  23
ENDBRANCH  14  22
ENDBRANCH  11  15
ENDBRANCH   1  11
BRANCH   6  29
ATOM     29  C   UNL     1       5.747   5.284  25.321  0.00  0.00    +0.176 C 
BRANCH  29  30
ATOM     30  N   UNL     1       6.393   6.312  24.489  0.00  0.00    -0.337 N 
ATOM     31  H   UNL     1       6.041   6.273  23.536  0.00  0.00    +0.147 HD
BRANCH  30  32
ATOM     32  C   UNL     1       7.798   6.351  24.470  0.00  0.00    +0.027 A 
ATOM     33  C   UNL     1       8.566   6.155  23.316  0.00  0.00    +0.024 A 
ATOM     34  C   UNL     1       9.965   6.167  23.360  0.00  0.00    +0.017 A 
ATOM     35  C   UNL     1      10.630   6.357  24.573  0.00  0.00    +0.065 A 
ATOM     36  C   UNL     1       9.884   6.484  25.743  0.00  0.00    +0.017 A 
ATOM     37  C   UNL     1       8.486   6.464  25.689  0.00  0.00    +0.024 A 
BRANCH  35  38
ATOM     38  C   UNL     1      12.120   6.415  24.618  0.00  0.00    +0.308 C 
ATOM     39  N   UNL     1      12.767   7.062  25.521  0.00  0.00    -0.099 NA
ATOM     40  H   UNL     1      12.139   7.557  26.159  0.00  0.00    +0.363 HD
ATOM     41  N   UNL     1      12.861   5.781  23.663  0.00  0.00    -0.247 N 
ATOM     42  H   UNL     1      13.837   5.737  23.938  0.00  0.00    +0.288 HD
ATOM     43  H   UNL     1      12.511   4.892  23.333  0.00  0.00    +0.288 HD
ENDBRANCH  35  38
ENDBRANCH  30  32
ENDBRANCH  29  30
ENDBRANCH   6  29
TORSDOF 12
ENDMDL
