MODEL 1
REMARK VINA RESULT:      -6.0      0.000      0.000
REMARK  Name = 
REMARK  4 active torsions:
REMARK  status: ('A' for Active; 'I' for Inactive)
REMARK    1  A    between atoms: C_2  and  N_3
REMARK    2  A    between atoms: C_2  and  C_4
REMARK    3  A    between atoms: C_2  and  C_14
REMARK    4  A    between atoms: C_4  and  C_5
REMARK                            x       y       z     vdW  Elec       q    Type
REMARK                         _______ _______ _______ _____ _____    ______ ____
ROOT
ATOM      1  C   UNL     1       9.115  -2.751  24.761  0.00  0.00    +0.065 C 
ENDROOT
BRANCH   1   2
ATOM      2  C   UNL     1       9.282  -1.852  23.567  0.00  0.00    -0.020 A 
ATOM      3  C   UNL     1       9.615  -0.455  23.585  0.00  0.00    +0.003 A 
ATOM      4  C   UNL     1       9.864   0.485  24.608  0.00  0.00    +0.010 A 
ATOM      5  C   UNL     1      10.177   1.807  24.271  0.00  0.00    +0.001 A 
ATOM      6  C   UNL     1      10.243   2.203  22.937  0.00  0.00    +0.002 A 
ATOM      7  C   UNL     1       9.996   1.295  21.904  0.00  0.00    +0.026 A 
ATOM      8  C   UNL     1       9.685  -0.024  22.262  0.00  0.00    +0.047 A 
ATOM      9  N   UNL     1       9.399  -1.106  21.465  0.00  0.00    -0.360 N 
ATOM     10  H   UNL     1       9.379  -1.088  20.455  0.00  0.00    +0.165 HD
ATOM     11  C   UNL     1       9.138  -2.204  22.237  0.00  0.00    +0.087 A 
ENDBRANCH   1   2
BRANCH   1  12
ATOM     12  C   UNL     1       8.500  -4.123  24.439  0.00  0.00    +0.142 C 
BRANCH  12  13
ATOM     13  C   UNL     1       8.898  -5.197  25.471  0.00  0.00    +0.228 C 
ATOM     14  O   UNL     1       8.091  -5.751  26.212  0.00  0.00    -0.274 OA
ATOM     15  N   UNL     1      10.236  -5.458  25.594  0.00  0.00    -0.328 N 
ATOM     16  H   UNL     1      10.478  -6.231  26.201  0.00  0.00    +0.145 HD
ATOM     17  H   UNL     1      10.895  -5.214  24.869  0.00  0.00    +0.145 HD
ENDBRANCH  12  13
BRANCH  12  18
ATOM     18  N   UNL     1       7.018  -4.047  24.372  0.00  0.00    -0.320 NA
ATOM     19  H   UNL     1       6.699  -3.566  25.217  0.00  0.00    +0.119 HD
ATOM     20  H   UNL     1       6.749  -3.439  23.601  0.00  0.00    +0.119 HD
ENDBRANCH  12  18
ENDBRANCH   1  12
TORSDOF 4
ENDMDL
MODEL 2
REMARK VINA RESULT:      -6.0      1.710      2.418
REMARK  Name = 
REMARK  4 active torsions:
REMARK  status: ('A' for Active; 'I' for Inactive)
REMARK    1  A    between atoms: C_2  and  N_3
REMARK    2  A    between atoms: C_2  and  C_4
REMARK    3  A    between atoms: C_2  and  C_14
REMARK    4  A    between atoms: C_4  and  C_5
REMARK                            x       y       z     vdW  Elec       q    Type
REMARK                         _______ _______ _______ _____ _____    ______ ____
ROOT
ATOM      1  C   UNL     1       8.799  -3.289  24.354  0.00  0.00    +0.065 C 
ENDROOT
BRANCH   1   2
ATOM      2  C   UNL     1       9.041  -1.858  24.749  0.00  0.00    -0.020 A 
ATOM      3  C   UNL     1       9.386  -0.774  23.874  0.00  0.00    +0.003 A 
ATOM      4  C   UNL     1       9.614  -0.663  22.485  0.00  0.00    +0.010 A 
ATOM      5  C   UNL     1       9.936   0.583  21.934  0.00  0.00    +0.001 A 
ATOM      6  C   UNL     1      10.035   1.713  22.744  0.00  0.00    +0.002 A 
ATOM      7  C   UNL     1       9.819   1.631  24.121  0.00  0.00    +0.026 A 
ATOM      8  C   UNL     1       9.498   0.376  24.654  0.00  0.00    +0.047 A 
ATOM      9  N   UNL     1       9.241   0.012  25.953  0.00  0.00    -0.360 N 
ATOM     10  H   UNL     1       9.249   0.645  26.740  0.00  0.00    +0.165 HD
ATOM     11  C   UNL     1       8.983  -1.329  26.025  0.00  0.00    +0.087 A 
ENDBRANCH   1   2
BRANCH   1  12
ATOM     12  C   UNL     1       9.145  -4.314  25.448  0.00  0.00    +0.142 C 
BRANCH  12  13
ATOM     13  C   UNL     1       7.923  -5.156  25.865  0.00  0.00    +0.228 C 
ATOM     14  O   UNL     1       6.884  -5.204  25.212  0.00  0.00    -0.274 OA
ATOM     15  N   UNL     1       8.010  -5.803  27.068  0.00  0.00    -0.328 N 
ATOM     16  H   UNL     1       7.245  -6.429  27.285  0.00  0.00    +0.145 HD
ATOM     17  H   UNL     1       8.898  -5.984  27.512  0.00  0.00    +0.145 HD
ENDBRANCH  12  13
BRANCH  12  18
ATOM     18  N   UNL     1      10.229  -5.228  25.004  0.00  0.00    -0.320 NA
ATOM     19  H   UNL     1      10.793  -4.722  24.316  0.00  0.00    +0.119 HD
ATOM     20  H   UNL     1      10.858  -5.405  25.785  0.00  0.00    +0.119 HD
ENDBRANCH  12  18
ENDBRANCH   1  12
TORSDOF 4
ENDMDL
MODEL 3
REMARK VINA RESULT:      -5.8      2.076      2.563
REMARK  Name = 
REMARK  4 active torsions:
REMARK  status: ('A' for Active; 'I' for Inactive)
REMARK    1  A    between atoms: C_2  and  N_3
REMARK    2  A    between atoms: C_2  and  C_4
REMARK    3  A    between atoms: C_2  and  C_14
REMARK    4  A    between atoms: C_4  and  C_5
REMARK                            x       y       z     vdW  Elec       q    Type
REMARK                         _______ _______ _______ _____ _____    ______ ____
ROOT
ATOM      1  C   UNL     1       8.040  -4.082  23.583  0.00  0.00    +0.065 C 
ENDROOT
BRANCH   1   2
ATOM      2  C   UNL     1       7.519  -2.676  23.478  0.00  0.00    -0.020 A 
ATOM      3  C   UNL     1       8.157  -1.571  22.819  0.00  0.00    +0.003 A 
ATOM      4  C   UNL     1       9.373  -1.409  22.120  0.00  0.00    +0.010 A 
ATOM      5  C   UNL     1       9.699  -0.160  21.579  0.00  0.00    +0.001 A 
ATOM      6  C   UNL     1       8.837   0.924  21.726  0.00  0.00    +0.002 A 
ATOM      7  C   UNL     1       7.630   0.794  22.416  0.00  0.00    +0.026 A 
ATOM      8  C   UNL     1       7.321  -0.464  22.951  0.00  0.00    +0.047 A 
ATOM      9  N   UNL     1       6.221  -0.868  23.667  0.00  0.00    -0.360 N 
ATOM     10  H   UNL     1       5.443  -0.271  23.913  0.00  0.00    +0.165 HD
ATOM     11  C   UNL     1       6.337  -2.188  24.004  0.00  0.00    +0.087 A 
ENDBRANCH   1   2
BRANCH   1  12
ATOM     12  C   UNL     1       8.623  -4.440  24.960  0.00  0.00    +0.142 C 
BRANCH  12  13
ATOM     13  C   UNL     1       7.644  -5.280  25.806  0.00  0.00    +0.228 C 
ATOM     14  O   UNL     1       6.472  -5.467  25.492  0.00  0.00    -0.274 OA
ATOM     15  N   UNL     1       8.122  -5.755  26.997  0.00  0.00    -0.328 N 
ATOM     16  H   UNL     1       7.506  -6.385  27.497  0.00  0.00    +0.145 HD
ATOM     17  H   UNL     1       9.111  -5.830  27.183  0.00  0.00    +0.145 HD
ENDBRANCH  12  13
BRANCH  12  18
ATOM     18  N   UNL     1       9.902  -5.183  24.827  0.00  0.00    -0.320 NA
ATOM     19  H   UNL     1      10.055  -5.688  25.704  0.00  0.00    +0.119 HD
ATOM     20  H   UNL     1       9.797  -5.906  24.118  0.00  0.00    +0.119 HD
ENDBRANCH  12  18
ENDBRANCH   1  12
TORSDOF 4
ENDMDL
MODEL 4
REMARK VINA RESULT:      -5.7      1.682      2.641
REMARK  Name = 
REMARK  4 active torsions:
REMARK  status: ('A' for Active; 'I' for Inactive)
REMARK    1  A    between atoms: C_2  and  N_3
REMARK    2  A    between atoms: C_2  and  C_4
REMARK    3  A    between atoms: C_2  and  C_14
REMARK    4  A    between atoms: C_4  and  C_5
REMARK                            x       y       z     vdW  Elec       q    Type
REMARK                         _______ _______ _______ _____ _____    ______ ____
ROOT
ATOM      1  C   UNL     1       9.838  -2.645  23.862  0.00  0.00    +0.065 C 
ENDROOT
BRANCH   1   2
ATOM      2  C   UNL     1       9.542  -1.294  24.452  0.00  0.00    -0.020 A 
ATOM      3  C   UNL     1       9.669  -0.024  23.793  0.00  0.00    +0.003 A 
ATOM      4  C   UNL     1      10.081   0.381  22.505  0.00  0.00    +0.010 A 
ATOM      5  C   UNL     1      10.080   1.741  22.174  0.00  0.00    +0.001 A 
ATOM      6  C   UNL     1       9.676   2.697  23.103  0.00  0.00    +0.002 A 
ATOM      7  C   UNL     1       9.268   2.325  24.386  0.00  0.00    +0.026 A 
ATOM      8  C   UNL     1       9.276   0.959  24.699  0.00  0.00    +0.047 A 
ATOM      9  N   UNL     1       8.932   0.323  25.867  0.00  0.00    -0.360 N 
ATOM     10  H   UNL     1       8.605   0.790  26.701  0.00  0.00    +0.165 HD
ATOM     11  C   UNL     1       9.104  -1.027  25.736  0.00  0.00    +0.087 A 
ENDBRANCH   1   2
BRANCH   1  12
ATOM     12  C   UNL     1       9.196  -3.820  24.620  0.00  0.00    +0.142 C 
BRANCH  12  13
ATOM     13  C   UNL     1       8.015  -4.437  23.845  0.00  0.00    +0.228 C 
ATOM     14  O   UNL     1       8.092  -5.499  23.232  0.00  0.00    -0.274 OA
ATOM     15  N   UNL     1       6.866  -3.695  23.793  0.00  0.00    -0.328 N 
ATOM     16  H   UNL     1       6.069  -4.151  23.367  0.00  0.00    +0.145 HD
ATOM     17  H   UNL     1       6.679  -2.956  24.454  0.00  0.00    +0.145 HD
ENDBRANCH  12  13
BRANCH  12  18
ATOM     18  N   UNL     1      10.192  -4.885  24.904  0.00  0.00    -0.320 NA
ATOM     19  H   UNL     1       9.954  -5.292  25.812  0.00  0.00    +0.119 HD
ATOM     20  H   UNL     1      10.074  -5.641  24.233  0.00  0.00    +0.119 HD
ENDBRANCH  12  18
ENDBRANCH   1  12
TORSDOF 4
ENDMDL
MODEL 5
REMARK VINA RESULT:      -5.6      3.033      5.831
REMARK  Name = 
REMARK  4 active torsions:
REMARK  status: ('A' for Active; 'I' for Inactive)
REMARK    1  A    between atoms: C_2  and  N_3
REMARK    2  A    between atoms: C_2  and  C_4
REMARK    3  A    between atoms: C_2  and  C_14
REMARK    4  A    between atoms: C_4  and  C_5
REMARK                            x       y       z     vdW  Elec       q    Type
REMARK                         _______ _______ _______ _____ _____    ______ ____
ROOT
ATOM      1  C   UNL     1      10.055  -0.246  23.461  0.00  0.00    +0.065 C 
ENDROOT
BRANCH   1   2
ATOM      2  C   UNL     1       9.423  -0.892  24.662  0.00  0.00    -0.020 A 
ATOM      3  C   UNL     1       8.971  -2.251  24.766  0.00  0.00    +0.003 A 
ATOM      4  C   UNL     1       8.943  -3.351  23.882  0.00  0.00    +0.010 A 
ATOM      5  C   UNL     1       8.425  -4.576  24.317  0.00  0.00    +0.001 A 
ATOM      6  C   UNL     1       7.936  -4.719  25.614  0.00  0.00    +0.002 A 
ATOM      7  C   UNL     1       7.947  -3.646  26.509  0.00  0.00    +0.026 A 
ATOM      8  C   UNL     1       8.470  -2.428  26.054  0.00  0.00    +0.047 A 
ATOM      9  N   UNL     1       8.599  -1.228  26.710  0.00  0.00    -0.360 N 
ATOM     10  H   UNL     1       8.318  -1.062  27.666  0.00  0.00    +0.165 HD
ATOM     11  C   UNL     1       9.153  -0.294  25.879  0.00  0.00    +0.087 A 
ENDBRANCH   1   2
BRANCH   1  12
ATOM     12  C   UNL     1       9.122  -0.120  22.245  0.00  0.00    +0.142 C 
BRANCH  12  13
ATOM     13  C   UNL     1       8.971   1.341  21.775  0.00  0.00    +0.228 C 
ATOM     14  O   UNL     1       7.903   1.824  21.408  0.00  0.00    -0.274 OA
ATOM     15  N   UNL     1      10.121   2.080  21.702  0.00  0.00    -0.328 N 
ATOM     16  H   UNL     1       9.998   3.062  21.488  0.00  0.00    +0.145 HD
ATOM     17  H   UNL     1      10.957   1.815  22.201  0.00  0.00    +0.145 HD
ENDBRANCH  12  13
BRANCH  12  18
ATOM     18  N   UNL     1       9.607  -0.942  21.107  0.00  0.00    -0.320 NA
ATOM     19  H   UNL     1       9.159  -1.859  21.179  0.00  0.00    +0.119 HD
ATOM     20  H   UNL     1       9.262  -0.544  20.235  0.00  0.00    +0.119 HD
ENDBRANCH  12  18
ENDBRANCH   1  12
TORSDOF 4
ENDMDL
MODEL 6
REMARK VINA RESULT:      -5.3      2.565      3.515
REMARK  Name = 
REMARK  4 active torsions:
REMARK  status: ('A' for Active; 'I' for Inactive)
REMARK    1  A    between atoms: C_2  and  N_3
REMARK    2  A    between atoms: C_2  and  C_4
REMARK    3  A    between atoms: C_2  and  C_14
REMARK    4  A    between atoms: C_4  and  C_5
REMARK                            x       y       z     vdW  Elec       q    Type
REMARK                         _______ _______ _______ _____ _____    ______ ____
ROOT
ATOM      1  C   UNL     1      10.335  -0.318  23.749  0.00  0.00    +0.065 C 
ENDROOT
BRANCH   1   2
ATOM      2  C   UNL     1       9.621   0.770  22.998  0.00  0.00    -0.020 A 
ATOM      3  C   UNL     1       8.265   1.202  23.195  0.00  0.00    +0.003 A 
ATOM      4  C   UNL     1       7.220   0.804  24.056  0.00  0.00    +0.010 A 
ATOM      5  C   UNL     1       5.985   1.458  23.994  0.00  0.00    +0.001 A 
ATOM      6  C   UNL     1       5.777   2.497  23.089  0.00  0.00    +0.002 A 
ATOM      7  C   UNL     1       6.792   2.909  22.222  0.00  0.00    +0.026 A 
ATOM      8  C   UNL     1       8.022   2.242  22.300  0.00  0.00    +0.047 A 
ATOM      9  N   UNL     1       9.174   2.435  21.577  0.00  0.00    -0.360 N 
ATOM     10  H   UNL     1       9.288   3.130  20.853  0.00  0.00    +0.165 HD
ATOM     11  C   UNL     1      10.134   1.547  21.974  0.00  0.00    +0.087 A 
ENDBRANCH   1   2
BRANCH   1  12
ATOM     12  C   UNL     1      10.370  -1.672  23.021  0.00  0.00    +0.142 C 
BRANCH  12  13
ATOM     13  C   UNL     1       9.506  -2.735  23.728  0.00  0.00    +0.228 C 
ATOM     14  O   UNL     1       9.977  -3.700  24.324  0.00  0.00    -0.274 OA
ATOM     15  N   UNL     1       8.150  -2.607  23.591  0.00  0.00    -0.328 N 
ATOM     16  H   UNL     1       7.591  -3.250  24.138  0.00  0.00    +0.145 HD
ATOM     17  H   UNL     1       7.722  -1.733  23.324  0.00  0.00    +0.145 HD
ENDBRANCH  12  13
BRANCH  12  18
ATOM     18  N   UNL     1       9.913  -1.539  21.614  0.00  0.00    -0.320 NA
ATOM     19  H   UNL     1       9.884  -0.540  21.396  0.00  0.00    +0.119 HD
ATOM     20  H   UNL     1      10.622  -1.927  20.994  0.00  0.00    +0.119 HD
ENDBRANCH  12  18
ENDBRANCH   1  12
TORSDOF 4
ENDMDL
MODEL 7
REMARK VINA RESULT:      -5.3      1.780      2.471
REMARK  Name = 
REMARK  4 active torsions:
REMARK  status: ('A' for Active; 'I' for Inactive)
REMARK    1  A    between atoms: C_2  and  N_3
REMARK    2  A    between atoms: C_2  and  C_4
REMARK    3  A    between atoms: C_2  and  C_14
REMARK    4  A    between atoms: C_4  and  C_5
REMARK                            x       y       z     vdW  Elec       q    Type
REMARK                         _______ _______ _______ _____ _____    ______ ____
ROOT
ATOM      1  C   UNL     1       8.739  -3.905  24.081  0.00  0.00    +0.065 C 
ENDROOT
BRANCH   1   2
ATOM      2  C   UNL     1       9.173  -2.469  23.989  0.00  0.00    -0.020 A 
ATOM      3  C   UNL     1       8.583  -1.349  24.667  0.00  0.00    +0.003 A 
ATOM      4  C   UNL     1       7.497  -1.195  25.556  0.00  0.00    +0.010 A 
ATOM      5  C   UNL     1       7.184   0.075  26.053  0.00  0.00    +0.001 A 
ATOM      6  C   UNL     1       7.932   1.188  25.677  0.00  0.00    +0.002 A 
ATOM      7  C   UNL     1       9.009   1.067  24.796  0.00  0.00    +0.026 A 
ATOM      8  C   UNL     1       9.308  -0.213  24.309  0.00  0.00    +0.047 A 
ATOM      9  N   UNL     1      10.294  -0.615  23.442  0.00  0.00    -0.360 N 
ATOM     10  H   UNL     1      10.975  -0.000  23.020  0.00  0.00    +0.165 HD
ATOM     11  C   UNL     1      10.212  -1.963  23.228  0.00  0.00    +0.087 A 
ENDBRANCH   1   2
BRANCH   1  12
ATOM     12  C   UNL     1       9.032  -4.569  25.438  0.00  0.00    +0.142 C 
BRANCH  12  13
ATOM     13  C   UNL     1       7.771  -5.201  26.061  0.00  0.00    +0.228 C 
ATOM     14  O   UNL     1       6.640  -5.031  25.614  0.00  0.00    -0.274 OA
ATOM     15  N   UNL     1       7.954  -5.913  27.215  0.00  0.00    -0.328 N 
ATOM     16  H   UNL     1       7.139  -6.404  27.561  0.00  0.00    +0.145 HD
ATOM     17  H   UNL     1       8.859  -6.271  27.483  0.00  0.00    +0.145 HD
ENDBRANCH  12  13
BRANCH  12  18
ATOM     18  N   UNL     1      10.080  -5.614  25.310  0.00  0.00    -0.320 NA
ATOM     19  H   UNL     1      10.967  -5.136  25.127  0.00  0.00    +0.119 HD
ATOM     20  H   UNL     1      10.205  -6.074  26.209  0.00  0.00    +0.119 HD
ENDBRANCH  12  18
ENDBRANCH   1  12
TORSDOF 4
ENDMDL
MODEL 8
REMARK VINA RESULT:      -5.3      3.472      5.882
REMARK  Name = 
REMARK  4 active torsions:
REMARK  status: ('A' for Active; 'I' for Inactive)
REMARK    1  A    between atoms: C_2  and  N_3
REMARK    2  A    between atoms: C_2  and  C_4
REMARK    3  A    between atoms: C_2  and  C_14
REMARK    4  A    between atoms: C_4  and  C_5
REMARK                            x       y       z     vdW  Elec       q    Type
REMARK                         _______ _______ _______ _____ _____    ______ ____
ROOT
ATOM      1  C   UNL     1      10.738   1.189  23.554  0.00  0.00    +0.065 C 
ENDROOT
BRANCH   1   2
ATOM      2  C   UNL     1      10.232  -0.224  23.631  0.00  0.00    -0.020 A 
ATOM      3  C   UNL     1       9.485  -0.811  24.708  0.00  0.00    +0.003 A 
ATOM      4  C   UNL     1       9.015  -0.339  25.952  0.00  0.00    +0.010 A 
ATOM      5  C   UNL     1       8.289  -1.196  26.788  0.00  0.00    +0.001 A 
ATOM      6  C   UNL     1       8.028  -2.509  26.403  0.00  0.00    +0.002 A 
ATOM      7  C   UNL     1       8.485  -3.004  25.179  0.00  0.00    +0.026 A 
ATOM      8  C   UNL     1       9.209  -2.131  24.357  0.00  0.00    +0.047 A 
ATOM      9  N   UNL     1       9.771  -2.349  23.122  0.00  0.00    -0.360 N 
ATOM     10  H   UNL     1       9.726  -3.223  22.617  0.00  0.00    +0.165 HD
ATOM     11  C   UNL     1      10.402  -1.219  22.685  0.00  0.00    +0.087 A 
ENDBRANCH   1   2
BRANCH   1  12
ATOM     12  C   UNL     1       9.678   2.219  23.127  0.00  0.00    +0.142 C 
BRANCH  12  13
ATOM     13  C   UNL     1      10.027   3.645  23.598  0.00  0.00    +0.228 C 
ATOM     14  O   UNL     1       9.239   4.367  24.203  0.00  0.00    -0.274 OA
ATOM     15  N   UNL     1      11.257   4.122  23.234  0.00  0.00    -0.328 N 
ATOM     16  H   UNL     1      11.515   5.018  23.630  0.00  0.00    +0.145 HD
ATOM     17  H   UNL     1      12.007   3.506  22.955  0.00  0.00    +0.145 HD
ENDBRANCH  12  13
BRANCH  12  18
ATOM     18  N   UNL     1       9.502   2.230  21.652  0.00  0.00    -0.320 NA
ATOM     19  H   UNL     1      10.356   2.621  21.245  0.00  0.00    +0.119 HD
ATOM     20  H   UNL     1       9.460   1.271  21.313  0.00  0.00    +0.119 HD
ENDBRANCH  12  18
ENDBRANCH   1  12
TORSDOF 4
ENDMDL
MODEL 9
REMARK VINA RESULT:      -5.3      3.242      6.008
REMARK  Name = 
REMARK  4 active torsions:
REMARK  status: ('A' for Active; 'I' for Inactive)
REMARK    1  A    between atoms: C_2  and  N_3
REMARK    2  A    between atoms: C_2  and  C_4
REMARK    3  A    between atoms: C_2  and  C_14
REMARK    4  A    between atoms: C_4  and  C_5
REMARK                            x       y       z     vdW  Elec       q    Type
REMARK                         _______ _______ _______ _____ _____    ______ ____
ROOT
ATOM      1  C   UNL     1       8.720  -0.479  22.106  0.00  0.00    +0.065 C 
ENDROOT
BRANCH   1   2
ATOM      2  C   UNL     1       8.803  -1.747  22.908  0.00  0.00    -0.020 A 
ATOM      3  C   UNL     1       7.862  -2.832  22.899  0.00  0.00    +0.003 A 
ATOM      4  C   UNL     1       6.647  -3.076  22.224  0.00  0.00    +0.010 A 
ATOM      5  C   UNL     1       5.963  -4.277  22.443  0.00  0.00    +0.001 A 
ATOM      6  C   UNL     1       6.469  -5.231  23.322  0.00  0.00    +0.002 A 
ATOM      7  C   UNL     1       7.667  -5.015  24.007  0.00  0.00    +0.026 A 
ATOM      8  C   UNL     1       8.337  -3.807  23.774  0.00  0.00    +0.047 A 
ATOM      9  N   UNL     1       9.514  -3.338  24.306  0.00  0.00    -0.360 N 
ATOM     10  H   UNL     1      10.083  -3.839  24.973  0.00  0.00    +0.165 HD
ATOM     11  C   UNL     1       9.794  -2.096  23.808  0.00  0.00    +0.087 A 
ENDBRANCH   1   2
BRANCH   1  12
ATOM     12  C   UNL     1       8.057   0.696  22.846  0.00  0.00    +0.142 C 
BRANCH  12  13
ATOM     13  C   UNL     1       8.581   2.062  22.358  0.00  0.00    +0.228 C 
ATOM     14  O   UNL     1       8.083   3.133  22.694  0.00  0.00    -0.274 OA
ATOM     15  N   UNL     1       9.599   2.032  21.445  0.00  0.00    -0.328 N 
ATOM     16  H   UNL     1      10.001   2.931  21.206  0.00  0.00    +0.145 HD
ATOM     17  H   UNL     1      10.182   1.218  21.322  0.00  0.00    +0.145 HD
ENDBRANCH  12  13
BRANCH  12  18
ATOM     18  N   UNL     1       6.580   0.665  22.690  0.00  0.00    -0.320 NA
ATOM     19  H   UNL     1       6.223  -0.072  23.304  0.00  0.00    +0.119 HD
ATOM     20  H   UNL     1       6.187   1.530  23.055  0.00  0.00    +0.119 HD
ENDBRANCH  12  18
ENDBRANCH   1  12
TORSDOF 4
ENDMDL
