MODEL 1
REMARK VINA RESULT:      -5.6      0.000      0.000
REMARK  Name = 
REMARK  8 active torsions:
REMARK  status: ('A' for Active; 'I' for Inactive)
REMARK    1  A    between atoms: N_1  and  S_2
REMARK    2  A    between atoms: S_2  and  C_5
REMARK    3  A    between atoms: C_8  and  N_9
REMARK    4  A    between atoms: N_9  and  C_10
REMARK    5  A    between atoms: C_10  and  O_12
REMARK    6  A    between atoms: O_12  and  C_13
REMARK    7  A    between atoms: C_13  and  C_14
REMARK    8  A    between atoms: C_14  and  C_15
REMARK                            x       y       z     vdW  Elec       q    Type
REMARK                         _______ _______ _______ _____ _____    ______ ____
ROOT
ATOM      1  C   UNL     1       8.983  -2.758  24.674  0.00  0.00    +0.105 A 
ATOM      2  C   UNL     1       7.885  -2.525  25.502  0.00  0.00    +0.030 A 
ATOM      3  C   UNL     1       7.433  -3.544  26.348  0.00  0.00    +0.025 A 
ATOM      4  C   UNL     1       8.088  -4.784  26.398  0.00  0.00    +0.034 A 
ATOM      5  C   UNL     1       9.186  -4.992  25.557  0.00  0.00    +0.025 A 
ATOM      6  C   UNL     1       9.647  -3.982  24.708  0.00  0.00    +0.030 A 
ENDROOT
BRANCH   1   7
ATOM      7  S   UNL     1       9.493  -1.538  23.506  0.00  0.00    +0.056 S 
ATOM      8  O   UNL     1      10.550  -2.080  22.676  0.00  0.00    -0.153 OA
ATOM      9  O   UNL     1       8.324  -0.888  22.962  0.00  0.00    -0.153 OA
BRANCH   7  10
ATOM     10  N   UNL     1      10.247  -0.414  24.505  0.00  0.00    -0.204 NA
ATOM     11  H   UNL     1      11.175  -0.189  24.151  0.00  0.00    +0.144 HD
ATOM     12  H   UNL     1       9.641   0.397  24.636  0.00  0.00    +0.144 HD
ENDBRANCH   7  10
ENDBRANCH   1   7
BRANCH   4  13
ATOM     13  N   UNL     1       7.573  -5.750  27.293  0.00  0.00    -0.279 N 
ATOM     14  H   UNL     1       8.218  -6.475  27.584  0.00  0.00    +0.156 HD
BRANCH  13  15
ATOM     15  C   UNL     1       6.293  -5.988  27.735  0.00  0.00    +0.232 C 
ATOM     16  S   UNL     1       5.516  -5.443  29.110  0.00  0.00    +0.006 S 
BRANCH  15  17
ATOM     17  O   UNL     1       5.635  -6.735  26.793  0.00  0.00    -0.474 OA
BRANCH  17  18
ATOM     18  C   UNL     1       4.634  -6.131  25.929  0.00  0.00    +0.236 C 
BRANCH  18  19
ATOM     19  C   UNL     1       4.838  -6.538  24.473  0.00  0.00    +0.076 C 
BRANCH  19  20
ATOM     20  C   UNL     1       5.401  -5.445  23.610  0.00  0.00    -0.037 A 
ATOM     21  C   UNL     1       6.641  -5.530  22.891  0.00  0.00    +0.011 A 
ATOM     22  C   UNL     1       6.906  -4.395  22.158  0.00  0.00    +0.045 A 
ATOM     23  S   UNL     1       5.673  -3.224  22.321  0.00  0.00    -0.105 S 
ATOM     24  C   UNL     1       4.782  -4.232  23.375  0.00  0.00    +0.049 A 
ENDBRANCH  19  20
ENDBRANCH  18  19
ENDBRANCH  17  18
ENDBRANCH  15  17
ENDBRANCH  13  15
ENDBRANCH   4  13
TORSDOF 8
ENDMDL
MODEL 2
REMARK VINA RESULT:      -5.6      3.023      5.734
REMARK  Name = 
REMARK  8 active torsions:
REMARK  status: ('A' for Active; 'I' for Inactive)
REMARK    1  A    between atoms: N_1  and  S_2
REMARK    2  A    between atoms: S_2  and  C_5
REMARK    3  A    between atoms: C_8  and  N_9
REMARK    4  A    between atoms: N_9  and  C_10
REMARK    5  A    between atoms: C_10  and  O_12
REMARK    6  A    between atoms: O_12  and  C_13
REMARK    7  A    between atoms: C_13  and  C_14
REMARK    8  A    between atoms: C_14  and  C_15
REMARK                            x       y       z     vdW  Elec       q    Type
REMARK                         _______ _______ _______ _____ _____    ______ ____
ROOT
ATOM      1  C   UNL     1       9.038  -3.241  25.131  0.00  0.00    +0.105 A 
ATOM      2  C   UNL     1       9.688  -2.566  24.098  0.00  0.00    +0.030 A 
ATOM      3  C   UNL     1       9.892  -1.185  24.201  0.00  0.00    +0.025 A 
ATOM      4  C   UNL     1       9.480  -0.477  25.341  0.00  0.00    +0.034 A 
ATOM      5  C   UNL     1       8.830  -1.180  26.361  0.00  0.00    +0.025 A 
ATOM      6  C   UNL     1       8.622  -2.558  26.271  0.00  0.00    +0.030 A 
ENDROOT
BRANCH   1   7
ATOM      7  S   UNL     1       8.653  -4.956  24.969  0.00  0.00    +0.056 S 
ATOM      8  O   UNL     1       7.747  -5.346  26.031  0.00  0.00    -0.153 OA
ATOM      9  O   UNL     1       8.407  -5.256  23.579  0.00  0.00    -0.153 OA
BRANCH   7  10
ATOM     10  N   UNL     1      10.127  -5.667  25.361  0.00  0.00    -0.204 NA
ATOM     11  H   UNL     1      10.101  -6.038  26.310  0.00  0.00    +0.144 HD
ATOM     12  H   UNL     1      10.382  -6.353  24.650  0.00  0.00    +0.144 HD
ENDBRANCH   7  10
ENDBRANCH   1   7
BRANCH   4  13
ATOM     13  N   UNL     1       9.741   0.912  25.367  0.00  0.00    -0.279 N 
ATOM     14  H   UNL     1      10.138   1.274  26.225  0.00  0.00    +0.156 HD
BRANCH  13  15
ATOM     15  C   UNL     1       9.409   1.915  24.486  0.00  0.00    +0.232 C 
ATOM     16  S   UNL     1      10.343   2.675  23.329  0.00  0.00    +0.006 S 
BRANCH  15  17
ATOM     17  O   UNL     1       8.076   2.200  24.627  0.00  0.00    -0.474 OA
BRANCH  17  18
ATOM     18  C   UNL     1       7.075   1.477  23.861  0.00  0.00    +0.236 C 
BRANCH  18  19
ATOM     19  C   UNL     1       6.083   0.763  24.776  0.00  0.00    +0.076 C 
BRANCH  19  20
ATOM     20  C   UNL     1       5.867  -0.682  24.427  0.00  0.00    -0.037 A 
ATOM     21  C   UNL     1       6.341  -1.311  23.227  0.00  0.00    +0.011 A 
ATOM     22  C   UNL     1       6.026  -2.650  23.173  0.00  0.00    +0.045 A 
ATOM     23  S   UNL     1       5.166  -3.163  24.557  0.00  0.00    -0.105 S 
ATOM     24  C   UNL     1       5.213  -1.594  25.232  0.00  0.00    +0.049 A 
ENDBRANCH  19  20
ENDBRANCH  18  19
ENDBRANCH  17  18
ENDBRANCH  15  17
ENDBRANCH  13  15
ENDBRANCH   4  13
TORSDOF 8
ENDMDL
MODEL 3
REMARK VINA RESULT:      -5.5      3.696      7.023
REMARK  Name = 
REMARK  8 active torsions:
REMARK  status: ('A' for Active; 'I' for Inactive)
REMARK    1  A    between atoms: N_1  and  S_2
REMARK    2  A    between atoms: S_2  and  C_5
REMARK    3  A    between atoms: C_8  and  N_9
REMARK    4  A    between atoms: N_9  and  C_10
REMARK    5  A    between atoms: C_10  and  O_12
REMARK    6  A    between atoms: O_12  and  C_13
REMARK    7  A    between atoms: C_13  and  C_14
REMARK    8  A    between atoms: C_14  and  C_15
REMARK                            x       y       z     vdW  Elec       q    Type
REMARK                         _______ _______ _______ _____ _____    ______ ____
ROOT
ATOM      1  C   UNL     1       8.723  -3.432  24.272  0.00  0.00    +0.105 A 
ATOM      2  C   UNL     1       7.609  -2.911  23.614  0.00  0.00    +0.030 A 
ATOM      3  C   UNL     1       7.777  -1.862  22.703  0.00  0.00    +0.025 A 
ATOM      4  C   UNL     1       9.052  -1.349  22.419  0.00  0.00    +0.034 A 
ATOM      5  C   UNL     1      10.152  -1.889  23.093  0.00  0.00    +0.025 A 
ATOM      6  C   UNL     1       9.997  -2.937  24.005  0.00  0.00    +0.030 A 
ENDROOT
BRANCH   1   7
ATOM      7  S   UNL     1       8.525  -4.664  25.520  0.00  0.00    +0.056 S 
ATOM      8  O   UNL     1       8.835  -4.089  26.814  0.00  0.00    -0.153 OA
ATOM      9  O   UNL     1       7.316  -5.408  25.261  0.00  0.00    -0.153 OA
BRANCH   7  10
ATOM     10  N   UNL     1       9.809  -5.696  25.175  0.00  0.00    -0.204 NA
ATOM     11  H   UNL     1       9.785  -6.510  25.788  0.00  0.00    +0.144 HD
ATOM     12  H   UNL     1       9.816  -5.921  24.180  0.00  0.00    +0.144 HD
ENDBRANCH   7  10
ENDBRANCH   1   7
BRANCH   4  13
ATOM     13  N   UNL     1       9.129  -0.301  21.474  0.00  0.00    -0.279 N 
ATOM     14  H   UNL     1       9.472  -0.555  20.555  0.00  0.00    +0.156 HD
BRANCH  13  15
ATOM     15  C   UNL     1       8.970   1.059  21.608  0.00  0.00    +0.232 C 
ATOM     16  S   UNL     1       7.577   1.980  21.591  0.00  0.00    +0.006 S 
BRANCH  15  17
ATOM     17  O   UNL     1      10.195   1.621  21.858  0.00  0.00    -0.474 OA
BRANCH  17  18
ATOM     18  C   UNL     1      10.422   2.408  23.059  0.00  0.00    +0.236 C 
BRANCH  18  19
ATOM     19  C   UNL     1      10.401   1.535  24.310  0.00  0.00    +0.076 C 
BRANCH  19  20
ATOM     20  C   UNL     1       9.078   1.525  25.021  0.00  0.00    -0.037 A 
ATOM     21  C   UNL     1       8.243   2.678  25.209  0.00  0.00    +0.011 A 
ATOM     22  C   UNL     1       7.074   2.382  25.872  0.00  0.00    +0.045 A 
ATOM     23  S   UNL     1       6.964   0.725  26.270  0.00  0.00    -0.105 S 
ATOM     24  C   UNL     1       8.482   0.399  25.556  0.00  0.00    +0.049 A 
ENDBRANCH  19  20
ENDBRANCH  18  19
ENDBRANCH  17  18
ENDBRANCH  15  17
ENDBRANCH  13  15
ENDBRANCH   4  13
TORSDOF 8
ENDMDL
MODEL 4
REMARK VINA RESULT:      -5.4      2.955      4.458
REMARK  Name = 
REMARK  8 active torsions:
REMARK  status: ('A' for Active; 'I' for Inactive)
REMARK    1  A    between atoms: N_1  and  S_2
REMARK    2  A    between atoms: S_2  and  C_5
REMARK    3  A    between atoms: C_8  and  N_9
REMARK    4  A    between atoms: N_9  and  C_10
REMARK    5  A    between atoms: C_10  and  O_12
REMARK    6  A    between atoms: O_12  and  C_13
REMARK    7  A    between atoms: C_13  and  C_14
REMARK    8  A    between atoms: C_14  and  C_15
REMARK                            x       y       z     vdW  Elec       q    Type
REMARK                         _______ _______ _______ _____ _____    ______ ____
ROOT
ATOM      1  C   UNL     1       9.154   0.130  23.254  0.00  0.00    +0.105 A 
ATOM      2  C   UNL     1       7.809  -0.151  23.012  0.00  0.00    +0.030 A 
ATOM      3  C   UNL     1       7.407  -1.479  22.824  0.00  0.00    +0.025 A 
ATOM      4  C   UNL     1       8.332  -2.531  22.905  0.00  0.00    +0.034 A 
ATOM      5  C   UNL     1       9.674  -2.221  23.148  0.00  0.00    +0.025 A 
ATOM      6  C   UNL     1      10.087  -0.899  23.338  0.00  0.00    +0.030 A 
ENDROOT
BRANCH   1   7
ATOM      7  S   UNL     1       9.707   1.802  23.365  0.00  0.00    +0.056 S 
ATOM      8  O   UNL     1       8.593   2.653  23.736  0.00  0.00    -0.153 OA
ATOM      9  O   UNL     1      10.979   1.834  24.047  0.00  0.00    -0.153 OA
BRANCH   7  10
ATOM     10  N   UNL     1      10.018   2.158  21.750  0.00  0.00    -0.204 NA
ATOM     11  H   UNL     1      10.118   1.300  21.210  0.00  0.00    +0.144 HD
ATOM     12  H   UNL     1       9.309   2.799  21.393  0.00  0.00    +0.144 HD
ENDBRANCH   7  10
ENDBRANCH   1   7
BRANCH   4  13
ATOM     13  N   UNL     1       7.836  -3.841  22.718  0.00  0.00    -0.279 N 
ATOM     14  H   UNL     1       7.825  -4.181  21.763  0.00  0.00    +0.156 HD
BRANCH  13  15
ATOM     15  C   UNL     1       7.208  -4.708  23.582  0.00  0.00    +0.232 C 
ATOM     16  S   UNL     1       5.634  -5.268  23.581  0.00  0.00    +0.006 S 
BRANCH  15  17
ATOM     17  O   UNL     1       8.127  -5.165  24.490  0.00  0.00    -0.474 OA
BRANCH  17  18
ATOM     18  C   UNL     1       7.923  -4.975  25.917  0.00  0.00    +0.236 C 
BRANCH  18  19
ATOM     19  C   UNL     1       8.755  -3.811  26.447  0.00  0.00    +0.076 C 
BRANCH  19  20
ATOM     20  C   UNL     1       8.003  -2.513  26.527  0.00  0.00    -0.037 A 
ATOM     21  C   UNL     1       8.612  -1.226  26.709  0.00  0.00    +0.011 A 
ATOM     22  C   UNL     1       7.692  -0.202  26.720  0.00  0.00    +0.045 A 
ATOM     23  S   UNL     1       6.096  -0.773  26.509  0.00  0.00    -0.105 S 
ATOM     24  C   UNL     1       6.632  -2.392  26.402  0.00  0.00    +0.049 A 
ENDBRANCH  19  20
ENDBRANCH  18  19
ENDBRANCH  17  18
ENDBRANCH  15  17
ENDBRANCH  13  15
ENDBRANCH   4  13
TORSDOF 8
ENDMDL
MODEL 5
REMARK VINA RESULT:      -5.4      3.260      4.337
REMARK  Name = 
REMARK  8 active torsions:
REMARK  status: ('A' for Active; 'I' for Inactive)
REMARK    1  A    between atoms: N_1  and  S_2
REMARK    2  A    between atoms: S_2  and  C_5
REMARK    3  A    between atoms: C_8  and  N_9
REMARK    4  A    between atoms: N_9  and  C_10
REMARK    5  A    between atoms: C_10  and  O_12
REMARK    6  A    between atoms: O_12  and  C_13
REMARK    7  A    between atoms: C_13  and  C_14
REMARK    8  A    between atoms: C_14  and  C_15
REMARK                            x       y       z     vdW  Elec       q    Type
REMARK                         _______ _______ _______ _____ _____    ______ ____
ROOT
ATOM      1  C   UNL     1       9.897   0.736  23.659  0.00  0.00    +0.105 A 
ATOM      2  C   UNL     1       9.669   0.228  24.938  0.00  0.00    +0.030 A 
ATOM      3  C   UNL     1       9.611  -1.158  25.127  0.00  0.00    +0.025 A 
ATOM      4  C   UNL     1       9.809  -2.042  24.055  0.00  0.00    +0.034 A 
ATOM      5  C   UNL     1      10.035  -1.505  22.783  0.00  0.00    +0.025 A 
ATOM      6  C   UNL     1      10.096  -0.124  22.582  0.00  0.00    +0.030 A 
ENDROOT
BRANCH   1   7
ATOM      7  S   UNL     1       9.847   2.476  23.370  0.00  0.00    +0.056 S 
ATOM      8  O   UNL     1       8.734   3.051  24.100  0.00  0.00    -0.153 OA
ATOM      9  O   UNL     1      11.187   3.006  23.440  0.00  0.00    -0.153 OA
BRANCH   7  10
ATOM     10  N   UNL     1       9.391   2.532  21.751  0.00  0.00    -0.204 NA
ATOM     11  H   UNL     1       9.412   1.598  21.344  0.00  0.00    +0.144 HD
ATOM     12  H   UNL     1       8.493   3.009  21.659  0.00  0.00    +0.144 HD
ENDBRANCH   7  10
ENDBRANCH   1   7
BRANCH   4  13
ATOM     13  N   UNL     1       9.748  -3.425  24.340  0.00  0.00    -0.279 N 
ATOM     14  H   UNL     1      10.613  -3.940  24.228  0.00  0.00    +0.156 HD
BRANCH  13  15
ATOM     15  C   UNL     1       8.682  -4.254  24.599  0.00  0.00    +0.232 C 
ATOM     16  S   UNL     1       8.126  -4.860  26.052  0.00  0.00    +0.006 S 
BRANCH  15  17
ATOM     17  O   UNL     1       8.015  -4.491  23.425  0.00  0.00    -0.474 OA
BRANCH  17  18
ATOM     18  C   UNL     1       6.613  -4.138  23.280  0.00  0.00    +0.236 C 
BRANCH  18  19
ATOM     19  C   UNL     1       6.449  -2.764  22.637  0.00  0.00    +0.076 C 
BRANCH  19  20
ATOM     20  C   UNL     1       6.216  -1.656  23.624  0.00  0.00    -0.037 A 
ATOM     21  C   UNL     1       6.423  -0.262  23.350  0.00  0.00    +0.011 A 
ATOM     22  C   UNL     1       6.107   0.540  24.423  0.00  0.00    +0.045 A 
ATOM     23  S   UNL     1       5.558  -0.367  25.762  0.00  0.00    -0.105 S 
ATOM     24  C   UNL     1       5.742  -1.836  24.909  0.00  0.00    +0.049 A 
ENDBRANCH  19  20
ENDBRANCH  18  19
ENDBRANCH  17  18
ENDBRANCH  15  17
ENDBRANCH  13  15
ENDBRANCH   4  13
TORSDOF 8
ENDMDL
MODEL 6
REMARK VINA RESULT:      -5.4      3.719      6.680
REMARK  Name = 
REMARK  8 active torsions:
REMARK  status: ('A' for Active; 'I' for Inactive)
REMARK    1  A    between atoms: N_1  and  S_2
REMARK    2  A    between atoms: S_2  and  C_5
REMARK    3  A    between atoms: C_8  and  N_9
REMARK    4  A    between atoms: N_9  and  C_10
REMARK    5  A    between atoms: C_10  and  O_12
REMARK    6  A    between atoms: O_12  and  C_13
REMARK    7  A    between atoms: C_13  and  C_14
REMARK    8  A    between atoms: C_14  and  C_15
REMARK                            x       y       z     vdW  Elec       q    Type
REMARK                         _______ _______ _______ _____ _____    ______ ____
ROOT
ATOM      1  C   UNL     1       8.763  -3.023  23.689  0.00  0.00    +0.105 A 
ATOM      2  C   UNL     1       9.617  -2.198  24.421  0.00  0.00    +0.030 A 
ATOM      3  C   UNL     1      10.061  -0.996  23.859  0.00  0.00    +0.025 A 
ATOM      4  C   UNL     1       9.636  -0.596  22.583  0.00  0.00    +0.034 A 
ATOM      5  C   UNL     1       8.781  -1.442  21.870  0.00  0.00    +0.025 A 
ATOM      6  C   UNL     1       8.329  -2.645  22.421  0.00  0.00    +0.030 A 
ENDROOT
BRANCH   1   7
ATOM      7  S   UNL     1       8.292  -4.602  24.321  0.00  0.00    +0.056 S 
ATOM      8  O   UNL     1       7.549  -4.423  25.553  0.00  0.00    -0.153 OA
ATOM      9  O   UNL     1       7.820  -5.425  23.233  0.00  0.00    -0.153 OA
BRANCH   7  10
ATOM     10  N   UNL     1       9.781  -5.231  24.789  0.00  0.00    -0.204 NA
ATOM     11  H   UNL     1       9.650  -6.062  25.364  0.00  0.00    +0.144 HD
ATOM     12  H   UNL     1      10.370  -5.377  23.969  0.00  0.00    +0.144 HD
ENDBRANCH   7  10
ENDBRANCH   1   7
BRANCH   4  13
ATOM     13  N   UNL     1      10.123   0.640  22.100  0.00  0.00    -0.279 N 
ATOM     14  H   UNL     1      10.920   0.592  21.476  0.00  0.00    +0.156 HD
BRANCH  13  15
ATOM     15  C   UNL     1       9.812   1.936  22.441  0.00  0.00    +0.232 C 
ATOM     16  S   UNL     1      10.658   3.028  23.378  0.00  0.00    +0.006 S 
BRANCH  15  17
ATOM     17  O   UNL     1       8.653   2.291  21.802  0.00  0.00    -0.474 OA
BRANCH  17  18
ATOM     18  C   UNL     1       7.487   2.720  22.558  0.00  0.00    +0.236 C 
BRANCH  18  19
ATOM     19  C   UNL     1       6.510   1.568  22.774  0.00  0.00    +0.076 C 
BRANCH  19  20
ATOM     20  C   UNL     1       6.674   0.872  24.095  0.00  0.00    -0.037 A 
ATOM     21  C   UNL     1       6.116  -0.411  24.417  0.00  0.00    +0.011 A 
ATOM     22  C   UNL     1       6.443  -0.826  25.688  0.00  0.00    +0.045 A 
ATOM     23  S   UNL     1       7.421   0.313  26.502  0.00  0.00    -0.105 S 
ATOM     24  C   UNL     1       7.409   1.365  25.156  0.00  0.00    +0.049 A 
ENDBRANCH  19  20
ENDBRANCH  18  19
ENDBRANCH  17  18
ENDBRANCH  15  17
ENDBRANCH  13  15
ENDBRANCH   4  13
TORSDOF 8
ENDMDL
MODEL 7
REMARK VINA RESULT:      -5.3      3.977      6.586
REMARK  Name = 
REMARK  8 active torsions:
REMARK  status: ('A' for Active; 'I' for Inactive)
REMARK    1  A    between atoms: N_1  and  S_2
REMARK    2  A    between atoms: S_2  and  C_5
REMARK    3  A    between atoms: C_8  and  N_9
REMARK    4  A    between atoms: N_9  and  C_10
REMARK    5  A    between atoms: C_10  and  O_12
REMARK    6  A    between atoms: O_12  and  C_13
REMARK    7  A    between atoms: C_13  and  C_14
REMARK    8  A    between atoms: C_14  and  C_15
REMARK                            x       y       z     vdW  Elec       q    Type
REMARK                         _______ _______ _______ _____ _____    ______ ____
ROOT
ATOM      1  C   UNL     1       7.077  -4.296  22.590  0.00  0.00    +0.105 A 
ATOM      2  C   UNL     1       7.947  -4.682  23.610  0.00  0.00    +0.030 A 
ATOM      3  C   UNL     1       8.770  -3.722  24.211  0.00  0.00    +0.025 A 
ATOM      4  C   UNL     1       8.710  -2.375  23.823  0.00  0.00    +0.034 A 
ATOM      5  C   UNL     1       7.830  -2.016  22.797  0.00  0.00    +0.025 A 
ATOM      6  C   UNL     1       7.002  -2.964  22.190  0.00  0.00    +0.030 A 
ENDROOT
BRANCH   1   7
ATOM      7  S   UNL     1       6.124  -5.505  21.728  0.00  0.00    +0.056 S 
ATOM      8  O   UNL     1       5.904  -5.061  20.365  0.00  0.00    -0.153 OA
ATOM      9  O   UNL     1       6.623  -6.820  22.052  0.00  0.00    -0.153 OA
BRANCH   7  10
ATOM     10  N   UNL     1       4.630  -5.356  22.488  0.00  0.00    -0.204 NA
ATOM     11  H   UNL     1       3.883  -5.666  21.868  0.00  0.00    +0.144 HD
ATOM     12  H   UNL     1       4.650  -5.833  23.390  0.00  0.00    +0.144 HD
ENDBRANCH   7  10
ENDBRANCH   1   7
BRANCH   4  13
ATOM     13  N   UNL     1       9.566  -1.473  24.495  0.00  0.00    -0.279 N 
ATOM     14  H   UNL     1      10.559  -1.647  24.399  0.00  0.00    +0.156 HD
BRANCH  13  15
ATOM     15  C   UNL     1       9.302  -0.471  25.400  0.00  0.00    +0.232 C 
ATOM     16  S   UNL     1       7.976  -0.245  26.390  0.00  0.00    +0.006 S 
BRANCH  15  17
ATOM     17  O   UNL     1      10.387   0.364  25.459  0.00  0.00    -0.474 OA
BRANCH  17  18
ATOM     18  C   UNL     1      11.092   0.757  24.251  0.00  0.00    +0.236 C 
BRANCH  18  19
ATOM     19  C   UNL     1      10.741   2.184  23.840  0.00  0.00    +0.076 C 
BRANCH  19  20
ATOM     20  C   UNL     1       9.465   2.294  23.055  0.00  0.00    -0.037 A 
ATOM     21  C   UNL     1       9.108   1.443  21.954  0.00  0.00    +0.011 A 
ATOM     22  C   UNL     1       7.871   1.747  21.431  0.00  0.00    +0.045 A 
ATOM     23  S   UNL     1       7.128   3.046  22.255  0.00  0.00    -0.105 S 
ATOM     24  C   UNL     1       8.460   3.206  23.313  0.00  0.00    +0.049 A 
ENDBRANCH  19  20
ENDBRANCH  18  19
ENDBRANCH  17  18
ENDBRANCH  15  17
ENDBRANCH  13  15
ENDBRANCH   4  13
TORSDOF 8
ENDMDL
MODEL 8
REMARK VINA RESULT:      -5.3      2.912      6.498
REMARK  Name = 
REMARK  8 active torsions:
REMARK  status: ('A' for Active; 'I' for Inactive)
REMARK    1  A    between atoms: N_1  and  S_2
REMARK    2  A    between atoms: S_2  and  C_5
REMARK    3  A    between atoms: C_8  and  N_9
REMARK    4  A    between atoms: N_9  and  C_10
REMARK    5  A    between atoms: C_10  and  O_12
REMARK    6  A    between atoms: O_12  and  C_13
REMARK    7  A    between atoms: C_13  and  C_14
REMARK    8  A    between atoms: C_14  and  C_15
REMARK                            x       y       z     vdW  Elec       q    Type
REMARK                         _______ _______ _______ _____ _____    ______ ____
ROOT
ATOM      1  C   UNL     1       6.181  -5.848  27.499  0.00  0.00    +0.105 A 
ATOM      2  C   UNL     1       5.134  -5.891  26.579  0.00  0.00    +0.030 A 
ATOM      3  C   UNL     1       5.278  -5.250  25.343  0.00  0.00    +0.025 A 
ATOM      4  C   UNL     1       6.470  -4.592  25.006  0.00  0.00    +0.034 A 
ATOM      5  C   UNL     1       7.504  -4.563  25.948  0.00  0.00    +0.025 A 
ATOM      6  C   UNL     1       7.373  -5.200  27.185  0.00  0.00    +0.030 A 
ENDROOT
BRANCH   1   7
ATOM      7  S   UNL     1       5.978  -6.536  29.112  0.00  0.00    +0.056 S 
ATOM      8  O   UNL     1       6.941  -7.602  29.303  0.00  0.00    -0.153 OA
ATOM      9  O   UNL     1       5.794  -5.466  30.062  0.00  0.00    -0.153 OA
BRANCH   7  10
ATOM     10  N   UNL     1       4.489  -7.305  28.961  0.00  0.00    -0.204 NA
ATOM     11  H   UNL     1       4.390  -7.707  28.029  0.00  0.00    +0.144 HD
ATOM     12  H   UNL     1       4.365  -7.975  29.721  0.00  0.00    +0.144 HD
ENDBRANCH   7  10
ENDBRANCH   1   7
BRANCH   4  13
ATOM     13  N   UNL     1       6.533  -3.985  23.731  0.00  0.00    -0.279 N 
ATOM     14  H   UNL     1       6.059  -3.095  23.638  0.00  0.00    +0.156 HD
BRANCH  13  15
ATOM     15  C   UNL     1       6.995  -4.454  22.523  0.00  0.00    +0.232 C 
ATOM     16  S   UNL     1       6.799  -5.951  21.810  0.00  0.00    +0.006 S 
BRANCH  15  17
ATOM     17  O   UNL     1       7.634  -3.431  21.871  0.00  0.00    -0.474 OA
BRANCH  17  18
ATOM     18  C   UNL     1       8.216  -2.324  22.611  0.00  0.00    +0.236 C 
BRANCH  18  19
ATOM     19  C   UNL     1       9.181  -1.521  21.744  0.00  0.00    +0.076 C 
BRANCH  19  20
ATOM     20  C   UNL     1       9.664  -0.252  22.387  0.00  0.00    -0.037 A 
ATOM     21  C   UNL     1       9.648   1.039  21.760  0.00  0.00    +0.011 A 
ATOM     22  C   UNL     1      10.125   2.033  22.585  0.00  0.00    +0.045 A 
ATOM     23  S   UNL     1      10.589   1.430  24.114  0.00  0.00    -0.105 S 
ATOM     24  C   UNL     1      10.155  -0.164  23.676  0.00  0.00    +0.049 A 
ENDBRANCH  19  20
ENDBRANCH  18  19
ENDBRANCH  17  18
ENDBRANCH  15  17
ENDBRANCH  13  15
ENDBRANCH   4  13
TORSDOF 8
ENDMDL
MODEL 9
REMARK VINA RESULT:      -5.2      2.792      3.738
REMARK  Name = 
REMARK  8 active torsions:
REMARK  status: ('A' for Active; 'I' for Inactive)
REMARK    1  A    between atoms: N_1  and  S_2
REMARK    2  A    between atoms: S_2  and  C_5
REMARK    3  A    between atoms: C_8  and  N_9
REMARK    4  A    between atoms: N_9  and  C_10
REMARK    5  A    between atoms: C_10  and  O_12
REMARK    6  A    between atoms: O_12  and  C_13
REMARK    7  A    between atoms: C_13  and  C_14
REMARK    8  A    between atoms: C_14  and  C_15
REMARK                            x       y       z     vdW  Elec       q    Type
REMARK                         _______ _______ _______ _____ _____    ______ ____
ROOT
ATOM      1  C   UNL     1       9.762   0.450  23.604  0.00  0.00    +0.105 A 
ATOM      2  C   UNL     1       9.224   0.013  24.814  0.00  0.00    +0.030 A 
ATOM      3  C   UNL     1       9.106  -1.360  25.057  0.00  0.00    +0.025 A 
ATOM      4  C   UNL     1       9.549  -2.301  24.115  0.00  0.00    +0.034 A 
ATOM      5  C   UNL     1      10.083  -1.835  22.910  0.00  0.00    +0.025 A 
ATOM      6  C   UNL     1      10.207  -0.466  22.655  0.00  0.00    +0.030 A 
ENDROOT
BRANCH   1   7
ATOM      7  S   UNL     1       9.802   2.172  23.218  0.00  0.00    +0.056 S 
ATOM      8  O   UNL     1       8.515   2.763  23.529  0.00  0.00    -0.153 OA
ATOM      9  O   UNL     1      11.051   2.730  23.676  0.00  0.00    -0.153 OA
BRANCH   7  10
ATOM     10  N   UNL     1       9.878   2.135  21.538  0.00  0.00    -0.204 NA
ATOM     11  H   UNL     1      10.259   3.010  21.180  0.00  0.00    +0.144 HD
ATOM     12  H   UNL     1      10.382   1.303  21.231  0.00  0.00    +0.144 HD
ENDBRANCH   7  10
ENDBRANCH   1   7
BRANCH   4  13
ATOM     13  N   UNL     1       9.406  -3.667  24.451  0.00  0.00    -0.279 N 
ATOM     14  H   UNL     1      10.247  -4.229  24.393  0.00  0.00    +0.156 HD
BRANCH  13  15
ATOM     15  C   UNL     1       8.289  -4.430  24.699  0.00  0.00    +0.232 C 
ATOM     16  S   UNL     1       7.807  -5.198  26.101  0.00  0.00    +0.006 S 
BRANCH  15  17
ATOM     17  O   UNL     1       7.499  -4.428  23.579  0.00  0.00    -0.474 OA
BRANCH  17  18
ATOM     18  C   UNL     1       7.459  -5.580  22.694  0.00  0.00    +0.236 C 
BRANCH  18  19
ATOM     19  C   UNL     1       6.056  -5.805  22.136  0.00  0.00    +0.076 C 
BRANCH  19  20
ATOM     20  C   UNL     1       4.971  -5.725  23.171  0.00  0.00    -0.037 A 
ATOM     21  C   UNL     1       4.764  -6.690  24.214  0.00  0.00    +0.011 A 
ATOM     22  C   UNL     1       3.714  -6.358  25.041  0.00  0.00    +0.045 A 
ATOM     23  S   UNL     1       2.974  -4.889  24.579  0.00  0.00    -0.105 S 
ATOM     24  C   UNL     1       4.055  -4.694  23.270  0.00  0.00    +0.049 A 
ENDBRANCH  19  20
ENDBRANCH  18  19
ENDBRANCH  17  18
ENDBRANCH  15  17
ENDBRANCH  13  15
ENDBRANCH   4  13
TORSDOF 8
ENDMDL
