MODEL 1
REMARK VINA RESULT:      -7.7      0.000      0.000
REMARK  Name = 
REMARK  6 active torsions:
REMARK  status: ('A' for Active; 'I' for Inactive)
REMARK    1  A    between atoms: C_2  and  C_21
REMARK    2  A    between atoms: C_8  and  C_10
REMARK    3  A    between atoms: C_10  and  O_11
REMARK    4  A    between atoms: C_12  and  O_14
REMARK    5  A    between atoms: C_15  and  O_17
REMARK    6  A    between atoms: C_18  and  O_20
REMARK                            x       y       z     vdW  Elec       q    Type
REMARK                         _______ _______ _______ _____ _____    ______ ____
ROOT
ATOM      1  C   UNL     1       8.937  -2.693  24.790  0.00  0.00    +0.116 C 
ATOM      2  N   UNL     1      10.080  -3.037  23.964  0.00  0.00    -0.190 NA
ATOM      3  H   UNL     1      10.950  -2.883  24.476  0.00  0.00    +0.155 HD
ATOM      4  O   UNL     1      10.192  -1.997  22.942  0.00  0.00    -0.261 OA
ATOM      5  C   UNL     1       9.415  -0.826  23.296  0.00  0.00    +0.220 C 
ATOM      6  C   UNL     1       8.671  -0.405  21.988  0.00  0.00    +0.206 C 
ATOM      7  C   UNL     1       8.101   1.024  22.031  0.00  0.00    +0.179 C 
ATOM      8  C   UNL     1       9.170   2.006  22.532  0.00  0.00    +0.177 C 
ATOM      9  C   UNL     1       9.790   1.544  23.861  0.00  0.00    +0.178 C 
ATOM     10  O   UNL     1      10.298   0.198  23.790  0.00  0.00    -0.337 OA
ATOM     11  C   UNL     1       8.508  -1.288  24.425  0.00  0.00    +0.095 C 
ENDROOT
BRANCH   1  12
ATOM     12  C   UNL     1       7.737  -3.610  24.655  0.00  0.00    -0.028 A 
ATOM     13  C   UNL     1       7.339  -4.017  23.372  0.00  0.00    +0.006 A 
ATOM     14  C   UNL     1       6.355  -4.993  23.203  0.00  0.00    +0.009 A 
ATOM     15  C   UNL     1       5.751  -5.593  24.316  0.00  0.00    -0.018 A 
ATOM     16  C   UNL     1       6.126  -5.180  25.614  0.00  0.00    -0.018 A 
ATOM     17  C   UNL     1       5.530  -5.785  26.730  0.00  0.00    +0.008 A 
ATOM     18  C   UNL     1       4.581  -6.796  26.564  0.00  0.00    +0.001 A 
ATOM     19  C   UNL     1       4.213  -7.205  25.286  0.00  0.00    +0.001 A 
ATOM     20  C   UNL     1       4.790  -6.604  24.167  0.00  0.00    +0.008 A 
ATOM     21  C   UNL     1       7.111  -4.184  25.767  0.00  0.00    +0.013 A 
ENDBRANCH   1  12
BRANCH   6  22
ATOM     22  O   UNL     1       9.573  -0.470  20.857  0.00  0.00    -0.384 OA
ATOM     23  H   UNL     1       9.504  -1.376  20.487  0.00  0.00    +0.210 HD
ENDBRANCH   6  22
BRANCH   7  24
ATOM     24  O   UNL     1       6.890   1.180  22.764  0.00  0.00    -0.386 OA
ATOM     25  H   UNL     1       6.507   2.061  22.647  0.00  0.00    +0.210 HD
ENDBRANCH   7  24
BRANCH   8  26
ATOM     26  O   UNL     1      10.220   2.071  21.546  0.00  0.00    -0.386 OA
ATOM     27  H   UNL     1      10.887   2.702  21.876  0.00  0.00    +0.210 HD
ENDBRANCH   8  26
BRANCH   9  28
ATOM     28  C   UNL     1       8.897   1.813  25.084  0.00  0.00    +0.190 C 
BRANCH  28  29
ATOM     29  O   UNL     1       8.134   2.999  24.932  0.00  0.00    -0.392 OA
ATOM     30  H   UNL     1       8.228   3.298  24.015  0.00  0.00    +0.210 HD
ENDBRANCH  28  29
ENDBRANCH   9  28
TORSDOF 6
ENDMDL
MODEL 2
REMARK VINA RESULT:      -7.6      3.676      7.741
REMARK  Name = 
REMARK  6 active torsions:
REMARK  status: ('A' for Active; 'I' for Inactive)
REMARK    1  A    between atoms: C_2  and  C_21
REMARK    2  A    between atoms: C_8  and  C_10
REMARK    3  A    between atoms: C_10  and  O_11
REMARK    4  A    between atoms: C_12  and  O_14
REMARK    5  A    between atoms: C_15  and  O_17
REMARK    6  A    between atoms: C_18  and  O_20
REMARK                            x       y       z     vdW  Elec       q    Type
REMARK                         _______ _______ _______ _____ _____    ______ ____
ROOT
ATOM      1  C   UNL     1       7.735  -3.906  23.800  0.00  0.00    +0.116 C 
ATOM      2  N   UNL     1       8.713  -4.940  24.085  0.00  0.00    -0.190 NA
ATOM      3  H   UNL     1       8.614  -5.716  23.429  0.00  0.00    +0.155 HD
ATOM      4  O   UNL     1       8.292  -5.590  25.325  0.00  0.00    -0.261 OA
ATOM      5  C   UNL     1       6.914  -5.276  25.642  0.00  0.00    +0.220 C 
ATOM      6  C   UNL     1       6.898  -4.952  27.170  0.00  0.00    +0.206 C 
ATOM      7  C   UNL     1       5.490  -4.972  27.794  0.00  0.00    +0.179 C 
ATOM      8  C   UNL     1       4.744  -6.248  27.379  0.00  0.00    +0.177 C 
ATOM      9  C   UNL     1       4.750  -6.440  25.854  0.00  0.00    +0.178 C 
ATOM     10  O   UNL     1       6.081  -6.400  25.301  0.00  0.00    -0.337 OA
ATOM     11  C   UNL     1       6.564  -4.106  24.738  0.00  0.00    +0.095 C 
ENDROOT
BRANCH   1  12
ATOM     12  C   UNL     1       8.231  -2.481  23.950  0.00  0.00    -0.028 A 
ATOM     13  C   UNL     1       8.642  -2.039  25.216  0.00  0.00    +0.006 A 
ATOM     14  C   UNL     1       9.265  -0.800  25.376  0.00  0.00    +0.009 A 
ATOM     15  C   UNL     1       9.503   0.024  24.267  0.00  0.00    -0.018 A 
ATOM     16  C   UNL     1       9.077  -0.398  22.988  0.00  0.00    -0.018 A 
ATOM     17  C   UNL     1       9.322   0.419  21.875  0.00  0.00    +0.008 A 
ATOM     18  C   UNL     1       9.989   1.636  22.024  0.00  0.00    +0.001 A 
ATOM     19  C   UNL     1      10.411   2.051  23.283  0.00  0.00    +0.001 A 
ATOM     20  C   UNL     1      10.165   1.253  24.401  0.00  0.00    +0.008 A 
ATOM     21  C   UNL     1       8.437  -1.645  22.846  0.00  0.00    +0.013 A 
ENDBRANCH   1  12
BRANCH   6  22
ATOM     22  O   UNL     1       7.697  -5.917  27.895  0.00  0.00    -0.384 OA
ATOM     23  H   UNL     1       7.126  -6.700  28.055  0.00  0.00    +0.210 HD
ENDBRANCH   6  22
BRANCH   7  24
ATOM     24  O   UNL     1       4.693  -3.818  27.546  0.00  0.00    -0.386 OA
ATOM     25  H   UNL     1       5.077  -3.021  27.937  0.00  0.00    +0.210 HD
ENDBRANCH   7  24
BRANCH   8  26
ATOM     26  O   UNL     1       5.414  -7.376  27.976  0.00  0.00    -0.386 OA
ATOM     27  H   UNL     1       4.810  -7.750  28.644  0.00  0.00    +0.210 HD
ENDBRANCH   8  26
BRANCH   9  28
ATOM     28  C   UNL     1       3.739  -5.548  25.115  0.00  0.00    +0.190 C 
BRANCH  28  29
ATOM     29  O   UNL     1       2.605  -5.257  25.917  0.00  0.00    -0.392 OA
ATOM     30  H   UNL     1       2.532  -4.293  25.990  0.00  0.00    +0.210 HD
ENDBRANCH  28  29
ENDBRANCH   9  28
TORSDOF 6
ENDMDL
MODEL 3
REMARK VINA RESULT:      -7.5      2.689      7.697
REMARK  Name = 
REMARK  6 active torsions:
REMARK  status: ('A' for Active; 'I' for Inactive)
REMARK    1  A    between atoms: C_2  and  C_21
REMARK    2  A    between atoms: C_8  and  C_10
REMARK    3  A    between atoms: C_10  and  O_11
REMARK    4  A    between atoms: C_12  and  O_14
REMARK    5  A    between atoms: C_15  and  O_17
REMARK    6  A    between atoms: C_18  and  O_20
REMARK                            x       y       z     vdW  Elec       q    Type
REMARK                         _______ _______ _______ _____ _____    ______ ____
ROOT
ATOM      1  C   UNL     1       8.644   0.112  21.698  0.00  0.00    +0.116 C 
ATOM      2  N   UNL     1       9.802  -0.608  21.201  0.00  0.00    -0.190 NA
ATOM      3  H   UNL     1       9.605  -1.014  20.285  0.00  0.00    +0.155 HD
ATOM      4  O   UNL     1       9.922  -1.823  22.006  0.00  0.00    -0.261 OA
ATOM      5  C   UNL     1       8.699  -2.095  22.734  0.00  0.00    +0.220 C 
ATOM      6  C   UNL     1       9.149  -2.485  24.178  0.00  0.00    +0.206 C 
ATOM      7  C   UNL     1       8.051  -3.183  25.002  0.00  0.00    +0.179 C 
ATOM      8  C   UNL     1       7.406  -4.309  24.180  0.00  0.00    +0.177 C 
ATOM      9  C   UNL     1       6.929  -3.809  22.807  0.00  0.00    +0.178 C 
ATOM     10  O   UNL     1       7.976  -3.148  22.070  0.00  0.00    -0.337 OA
ATOM     11  C   UNL     1       7.898  -0.806  22.642  0.00  0.00    +0.095 C 
ENDROOT
BRANCH   1  12
ATOM     12  C   UNL     1       8.945   1.407  22.428  0.00  0.00    -0.028 A 
ATOM     13  C   UNL     1      10.185   1.548  23.068  0.00  0.00    +0.006 A 
ATOM     14  C   UNL     1      10.580   2.775  23.603  0.00  0.00    +0.009 A 
ATOM     15  C   UNL     1       9.745   3.896  23.501  0.00  0.00    -0.018 A 
ATOM     16  C   UNL     1       8.485   3.766  22.877  0.00  0.00    -0.018 A 
ATOM     17  C   UNL     1       7.651   4.888  22.765  0.00  0.00    +0.008 A 
ATOM     18  C   UNL     1       8.064   6.128  23.255  0.00  0.00    +0.001 A 
ATOM     19  C   UNL     1       9.307   6.258  23.867  0.00  0.00    +0.001 A 
ATOM     20  C   UNL     1      10.142   5.148  23.995  0.00  0.00    +0.008 A 
ATOM     21  C   UNL     1       8.095   2.517  22.355  0.00  0.00    +0.013 A 
ENDBRANCH   1  12
BRANCH   6  22
ATOM     22  O   UNL     1      10.278  -3.390  24.123  0.00  0.00    -0.384 OA
ATOM     23  H   UNL     1      11.077  -2.841  23.964  0.00  0.00    +0.210 HD
ENDBRANCH   6  22
BRANCH   7  24
ATOM     24  O   UNL     1       7.056  -2.325  25.550  0.00  0.00    -0.386 OA
ATOM     25  H   UNL     1       7.200  -1.400  25.305  0.00  0.00    +0.210 HD
ENDBRANCH   7  24
BRANCH   8  26
ATOM     26  O   UNL     1       8.396  -5.334  23.965  0.00  0.00    -0.386 OA
ATOM     27  H   UNL     1       8.568  -5.373  23.006  0.00  0.00    +0.210 HD
ENDBRANCH   8  26
BRANCH   9  28
ATOM     28  C   UNL     1       5.608  -3.023  22.861  0.00  0.00    +0.190 C 
BRANCH  28  29
ATOM     29  O   UNL     1       4.769  -3.469  23.915  0.00  0.00    -0.392 OA
ATOM     30  H   UNL     1       5.270  -3.398  24.743  0.00  0.00    +0.210 HD
ENDBRANCH  28  29
ENDBRANCH   9  28
TORSDOF 6
ENDMDL
MODEL 4
REMARK VINA RESULT:      -7.5      2.581      7.488
REMARK  Name = 
REMARK  6 active torsions:
REMARK  status: ('A' for Active; 'I' for Inactive)
REMARK    1  A    between atoms: C_2  and  C_21
REMARK    2  A    between atoms: C_8  and  C_10
REMARK    3  A    between atoms: C_10  and  O_11
REMARK    4  A    between atoms: C_12  and  O_14
REMARK    5  A    between atoms: C_15  and  O_17
REMARK    6  A    between atoms: C_18  and  O_20
REMARK                            x       y       z     vdW  Elec       q    Type
REMARK                         _______ _______ _______ _____ _____    ______ ____
ROOT
ATOM      1  C   UNL     1       9.289  -1.163  21.980  0.00  0.00    +0.116 C 
ATOM      2  N   UNL     1      10.442  -1.772  22.618  0.00  0.00    -0.190 NA
ATOM      3  H   UNL     1      10.859  -2.475  22.007  0.00  0.00    +0.155 HD
ATOM      4  O   UNL     1       9.929  -2.626  23.689  0.00  0.00    -0.261 OA
ATOM      5  C   UNL     1       8.512  -2.879  23.528  0.00  0.00    +0.220 C 
ATOM      6  C   UNL     1       7.890  -2.704  24.950  0.00  0.00    +0.206 C 
ATOM      7  C   UNL     1       6.477  -3.299  25.086  0.00  0.00    +0.179 C 
ATOM      8  C   UNL     1       6.446  -4.727  24.520  0.00  0.00    +0.177 C 
ATOM      9  C   UNL     1       7.009  -4.784  23.091  0.00  0.00    +0.178 C 
ATOM     10  O   UNL     1       8.324  -4.204  22.996  0.00  0.00    -0.337 OA
ATOM     11  C   UNL     1       8.050  -1.860  22.499  0.00  0.00    +0.095 C 
ENDROOT
BRANCH   1  12
ATOM     12  C   UNL     1       9.131   0.328  22.206  0.00  0.00    -0.028 A 
ATOM     13  C   UNL     1       7.838   0.871  22.243  0.00  0.00    +0.006 A 
ATOM     14  C   UNL     1       7.628   2.199  22.618  0.00  0.00    +0.009 A 
ATOM     15  C   UNL     1       8.710   3.015  22.977  0.00  0.00    -0.018 A 
ATOM     16  C   UNL     1      10.020   2.489  22.926  0.00  0.00    -0.018 A 
ATOM     17  C   UNL     1      11.104   3.299  23.293  0.00  0.00    +0.008 A 
ATOM     18  C   UNL     1      10.894   4.613  23.716  0.00  0.00    +0.001 A 
ATOM     19  C   UNL     1       9.604   5.131  23.770  0.00  0.00    +0.001 A 
ATOM     20  C   UNL     1       8.517   4.339  23.397  0.00  0.00    +0.008 A 
ATOM     21  C   UNL     1      10.216   1.150  22.531  0.00  0.00    +0.013 A 
ENDBRANCH   1  12
BRANCH   6  22
ATOM     22  O   UNL     1       8.722  -3.350  25.943  0.00  0.00    -0.384 OA
ATOM     23  H   UNL     1       9.024  -2.651  26.562  0.00  0.00    +0.210 HD
ENDBRANCH   6  22
BRANCH   7  24
ATOM     24  O   UNL     1       5.424  -2.515  24.535  0.00  0.00    -0.386 OA
ATOM     25  H   UNL     1       5.405  -2.563  23.569  0.00  0.00    +0.210 HD
ENDBRANCH   7  24
BRANCH   8  26
ATOM     26  O   UNL     1       7.268  -5.562  25.360  0.00  0.00    -0.386 OA
ATOM     27  H   UNL     1       8.173  -5.534  24.997  0.00  0.00    +0.210 HD
ENDBRANCH   8  26
BRANCH   9  28
ATOM     28  C   UNL     1       6.025  -4.283  22.020  0.00  0.00    +0.190 C 
BRANCH  28  29
ATOM     29  O   UNL     1       4.675  -4.512  22.392  0.00  0.00    -0.392 OA
ATOM     30  H   UNL     1       4.450  -5.423  22.148  0.00  0.00    +0.210 HD
ENDBRANCH  28  29
ENDBRANCH   9  28
TORSDOF 6
ENDMDL
MODEL 5
REMARK VINA RESULT:      -7.4      3.229      7.176
REMARK  Name = 
REMARK  6 active torsions:
REMARK  status: ('A' for Active; 'I' for Inactive)
REMARK    1  A    between atoms: C_2  and  C_21
REMARK    2  A    between atoms: C_8  and  C_10
REMARK    3  A    between atoms: C_10  and  O_11
REMARK    4  A    between atoms: C_12  and  O_14
REMARK    5  A    between atoms: C_15  and  O_17
REMARK    6  A    between atoms: C_18  and  O_20
REMARK                            x       y       z     vdW  Elec       q    Type
REMARK                         _______ _______ _______ _____ _____    ______ ____
ROOT
ATOM      1  C   UNL     1       9.325  -3.010  24.069  0.00  0.00    +0.116 C 
ATOM      2  N   UNL     1       9.021  -3.341  25.448  0.00  0.00    -0.190 NA
ATOM      3  H   UNL     1       9.459  -4.226  25.709  0.00  0.00    +0.155 HD
ATOM      4  O   UNL     1       7.610  -3.726  25.490  0.00  0.00    -0.261 OA
ATOM      5  C   UNL     1       7.104  -4.011  24.163  0.00  0.00    +0.220 C 
ATOM      6  C   UNL     1       5.711  -3.308  24.085  0.00  0.00    +0.206 C 
ATOM      7  C   UNL     1       4.833  -3.798  22.920  0.00  0.00    +0.179 C 
ATOM      8  C   UNL     1       4.804  -5.334  22.886  0.00  0.00    +0.177 C 
ATOM      9  C   UNL     1       6.221  -5.929  22.890  0.00  0.00    +0.178 C 
ATOM     10  O   UNL     1       7.020  -5.438  23.983  0.00  0.00    -0.337 OA
ATOM     11  C   UNL     1       8.154  -3.452  23.217  0.00  0.00    +0.095 C 
ENDROOT
BRANCH   1  12
ATOM     12  C   UNL     1       9.591  -1.542  23.794  0.00  0.00    -0.028 A 
ATOM     13  C   UNL     1      10.169  -1.179  22.569  0.00  0.00    +0.006 A 
ATOM     14  C   UNL     1      10.274   0.162  22.196  0.00  0.00    +0.009 A 
ATOM     15  C   UNL     1       9.793   1.174  23.038  0.00  0.00    -0.018 A 
ATOM     16  C   UNL     1       9.227   0.825  24.285  0.00  0.00    -0.018 A 
ATOM     17  C   UNL     1       8.736   1.834  25.126  0.00  0.00    +0.008 A 
ATOM     18  C   UNL     1       8.795   3.173  24.735  0.00  0.00    +0.001 A 
ATOM     19  C   UNL     1       9.351   3.517  23.506  0.00  0.00    +0.001 A 
ATOM     20  C   UNL     1       9.853   2.524  22.664  0.00  0.00    +0.008 A 
ATOM     21  C   UNL     1       9.140  -0.532  24.652  0.00  0.00    +0.013 A 
ENDBRANCH   1  12
BRANCH   6  22
ATOM     22  O   UNL     1       4.966  -3.538  25.305  0.00  0.00    -0.384 OA
ATOM     23  H   UNL     1       5.207  -4.435  25.623  0.00  0.00    +0.210 HD
ENDBRANCH   6  22
BRANCH   7  24
ATOM     24  O   UNL     1       5.163  -3.273  21.638  0.00  0.00    -0.386 OA
ATOM     25  H   UNL     1       4.684  -2.454  21.448  0.00  0.00    +0.210 HD
ENDBRANCH   7  24
BRANCH   8  26
ATOM     26  O   UNL     1       4.120  -5.797  24.068  0.00  0.00    -0.386 OA
ATOM     27  H   UNL     1       4.097  -6.771  24.024  0.00  0.00    +0.210 HD
ENDBRANCH   8  26
BRANCH   9  28
ATOM     28  C   UNL     1       6.922  -5.862  21.522  0.00  0.00    +0.190 C 
BRANCH  28  29
ATOM     29  O   UNL     1       5.991  -5.814  20.452  0.00  0.00    -0.392 OA
ATOM     30  H   UNL     1       5.876  -4.885  20.200  0.00  0.00    +0.210 HD
ENDBRANCH  28  29
ENDBRANCH   9  28
TORSDOF 6
ENDMDL
MODEL 6
REMARK VINA RESULT:      -7.2      4.148      7.693
REMARK  Name = 
REMARK  6 active torsions:
REMARK  status: ('A' for Active; 'I' for Inactive)
REMARK    1  A    between atoms: C_2  and  C_21
REMARK    2  A    between atoms: C_8  and  C_10
REMARK    3  A    between atoms: C_10  and  O_11
REMARK    4  A    between atoms: C_12  and  O_14
REMARK    5  A    between atoms: C_15  and  O_17
REMARK    6  A    between atoms: C_18  and  O_20
REMARK                            x       y       z     vdW  Elec       q    Type
REMARK                         _______ _______ _______ _____ _____    ______ ____
ROOT
ATOM      1  C   UNL     1       5.572  -2.804  22.376  0.00  0.00    +0.116 C 
ATOM      2  N   UNL     1       5.749  -3.710  21.256  0.00  0.00    -0.190 NA
ATOM      3  H   UNL     1       4.996  -3.591  20.577  0.00  0.00    +0.155 HD
ATOM      4  O   UNL     1       5.448  -5.054  21.747  0.00  0.00    -0.261 OA
ATOM      5  C   UNL     1       4.737  -5.007  23.008  0.00  0.00    +0.220 C 
ATOM      6  C   UNL     1       5.414  -6.086  23.912  0.00  0.00    +0.206 C 
ATOM      7  C   UNL     1       4.579  -6.474  25.146  0.00  0.00    +0.179 C 
ATOM      8  C   UNL     1       3.129  -6.768  24.734  0.00  0.00    +0.177 C 
ATOM      9  C   UNL     1       2.526  -5.617  23.913  0.00  0.00    +0.178 C 
ATOM     10  O   UNL     1       3.341  -5.269  22.776  0.00  0.00    -0.337 OA
ATOM     11  C   UNL     1       4.901  -3.575  23.493  0.00  0.00    +0.095 C 
ENDROOT
BRANCH   1  12
ATOM     12  C   UNL     1       6.844  -2.184  22.920  0.00  0.00    -0.028 A 
ATOM     13  C   UNL     1       8.063  -2.842  22.700  0.00  0.00    +0.006 A 
ATOM     14  C   UNL     1       9.276  -2.232  23.025  0.00  0.00    +0.009 A 
ATOM     15  C   UNL     1       9.298  -0.941  23.571  0.00  0.00    -0.018 A 
ATOM     16  C   UNL     1       8.078  -0.273  23.818  0.00  0.00    -0.018 A 
ATOM     17  C   UNL     1       8.096   1.022  24.356  0.00  0.00    +0.008 A 
ATOM     18  C   UNL     1       9.309   1.654  24.636  0.00  0.00    +0.001 A 
ATOM     19  C   UNL     1      10.511   0.998  24.391  0.00  0.00    +0.001 A 
ATOM     20  C   UNL     1      10.507  -0.295  23.867  0.00  0.00    +0.008 A 
ATOM     21  C   UNL     1       6.862  -0.908  23.496  0.00  0.00    +0.013 A 
ENDBRANCH   1  12
BRANCH   6  22
ATOM     22  O   UNL     1       5.645  -7.299  23.156  0.00  0.00    -0.384 OA
ATOM     23  H   UNL     1       5.734  -8.029  23.806  0.00  0.00    +0.210 HD
ENDBRANCH   6  22
BRANCH   7  24
ATOM     24  O   UNL     1       4.618  -5.550  26.229  0.00  0.00    -0.386 OA
ATOM     25  H   UNL     1       5.437  -5.622  26.737  0.00  0.00    +0.210 HD
ENDBRANCH   7  24
BRANCH   8  26
ATOM     26  O   UNL     1       3.126  -7.954  23.913  0.00  0.00    -0.386 OA
ATOM     27  H   UNL     1       3.850  -7.859  23.267  0.00  0.00    +0.210 HD
ENDBRANCH   8  26
BRANCH   9  28
ATOM     28  C   UNL     1       2.093  -4.412  24.765  0.00  0.00    +0.190 C 
BRANCH  28  29
ATOM     29  O   UNL     1       1.698  -4.802  26.071  0.00  0.00    -0.392 OA
ATOM     30  H   UNL     1       1.527  -5.757  26.057  0.00  0.00    +0.210 HD
ENDBRANCH  28  29
ENDBRANCH   9  28
TORSDOF 6
ENDMDL
MODEL 7
REMARK VINA RESULT:      -7.2      2.857      7.365
REMARK  Name = 
REMARK  6 active torsions:
REMARK  status: ('A' for Active; 'I' for Inactive)
REMARK    1  A    between atoms: C_2  and  C_21
REMARK    2  A    between atoms: C_8  and  C_10
REMARK    3  A    between atoms: C_10  and  O_11
REMARK    4  A    between atoms: C_12  and  O_14
REMARK    5  A    between atoms: C_15  and  O_17
REMARK    6  A    between atoms: C_18  and  O_20
REMARK                            x       y       z     vdW  Elec       q    Type
REMARK                         _______ _______ _______ _____ _____    ______ ____
ROOT
ATOM      1  C   UNL     1       9.264  -2.210  23.128  0.00  0.00    +0.116 C 
ATOM      2  N   UNL     1      10.193  -3.017  23.898  0.00  0.00    -0.190 NA
ATOM      3  H   UNL     1      10.594  -3.754  23.316  0.00  0.00    +0.155 HD
ATOM      4  O   UNL     1       9.391  -3.819  24.821  0.00  0.00    -0.261 OA
ATOM      5  C   UNL     1       7.998  -3.839  24.428  0.00  0.00    +0.220 C 
ATOM      6  C   UNL     1       7.187  -3.620  25.745  0.00  0.00    +0.206 C 
ATOM      7  C   UNL     1       5.697  -3.990  25.625  0.00  0.00    +0.179 C 
ATOM      8  C   UNL     1       5.544  -5.372  24.973  0.00  0.00    +0.177 C 
ATOM      9  C   UNL     1       6.316  -5.464  23.647  0.00  0.00    +0.178 C 
ATOM     10  O   UNL     1       7.701  -5.096  23.792  0.00  0.00    -0.337 OA
ATOM     11  C   UNL     1       7.866  -2.721  23.406  0.00  0.00    +0.095 C 
ENDROOT
BRANCH   1  12
ATOM     12  C   UNL     1       9.296  -0.722  23.420  0.00  0.00    -0.028 A 
ATOM     13  C   UNL     1      10.456  -0.170  23.984  0.00  0.00    +0.006 A 
ATOM     14  C   UNL     1      10.603   1.212  24.111  0.00  0.00    +0.009 A 
ATOM     15  C   UNL     1       9.594   2.078  23.668  0.00  0.00    -0.018 A 
ATOM     16  C   UNL     1       8.411   1.537  23.116  0.00  0.00    -0.018 A 
ATOM     17  C   UNL     1       7.404   2.401  22.663  0.00  0.00    +0.008 A 
ATOM     18  C   UNL     1       7.568   3.784  22.744  0.00  0.00    +0.001 A 
ATOM     19  C   UNL     1       8.734   4.318  23.284  0.00  0.00    +0.001 A 
ATOM     20  C   UNL     1       9.740   3.470  23.749  0.00  0.00    +0.008 A 
ATOM     21  C   UNL     1       8.273   0.139  23.008  0.00  0.00    +0.013 A 
ENDBRANCH   1  12
BRANCH   6  22
ATOM     22  O   UNL     1       7.740  -4.427  26.812  0.00  0.00    -0.384 OA
ATOM     23  H   UNL     1       7.417  -5.344  26.675  0.00  0.00    +0.210 HD
ENDBRANCH   6  22
BRANCH   7  24
ATOM     24  O   UNL     1       4.877  -3.028  24.967  0.00  0.00    -0.386 OA
ATOM     25  H   UNL     1       4.763  -2.227  25.497  0.00  0.00    +0.210 HD
ENDBRANCH   7  24
BRANCH   8  26
ATOM     26  O   UNL     1       6.084  -6.358  25.875  0.00  0.00    -0.386 OA
ATOM     27  H   UNL     1       5.764  -7.229  25.575  0.00  0.00    +0.210 HD
ENDBRANCH   8  26
BRANCH   9  28
ATOM     28  C   UNL     1       5.605  -4.774  22.470  0.00  0.00    +0.190 C 
BRANCH  28  29
ATOM     29  O   UNL     1       4.193  -4.808  22.610  0.00  0.00    -0.392 OA
ATOM     30  H   UNL     1       3.857  -5.524  22.049  0.00  0.00    +0.210 HD
ENDBRANCH  28  29
ENDBRANCH   9  28
TORSDOF 6
ENDMDL
MODEL 8
REMARK VINA RESULT:      -7.1      3.359      7.266
REMARK  Name = 
REMARK  6 active torsions:
REMARK  status: ('A' for Active; 'I' for Inactive)
REMARK    1  A    between atoms: C_2  and  C_21
REMARK    2  A    between atoms: C_8  and  C_10
REMARK    3  A    between atoms: C_10  and  O_11
REMARK    4  A    between atoms: C_12  and  O_14
REMARK    5  A    between atoms: C_15  and  O_17
REMARK    6  A    between atoms: C_18  and  O_20
REMARK                            x       y       z     vdW  Elec       q    Type
REMARK                         _______ _______ _______ _____ _____    ______ ____
ROOT
ATOM      1  C   UNL     1       7.364  -3.286  22.855  0.00  0.00    +0.116 C 
ATOM      2  N   UNL     1       8.121  -4.516  22.712  0.00  0.00    -0.190 NA
ATOM      3  H   UNL     1       7.637  -5.164  22.088  0.00  0.00    +0.155 HD
ATOM      4  O   UNL     1       8.000  -5.236  23.980  0.00  0.00    -0.261 OA
ATOM      5  C   UNL     1       6.914  -4.712  24.782  0.00  0.00    +0.220 C 
ATOM      6  C   UNL     1       7.481  -4.600  26.234  0.00  0.00    +0.206 C 
ATOM      7  C   UNL     1       6.395  -4.436  27.312  0.00  0.00    +0.179 C 
ATOM      8  C   UNL     1       5.285  -5.479  27.111  0.00  0.00    +0.177 C 
ATOM      9  C   UNL     1       4.741  -5.461  25.674  0.00  0.00    +0.178 C 
ATOM     10  O   UNL     1       5.785  -5.600  24.690  0.00  0.00    -0.337 OA
ATOM     11  C   UNL     1       6.557  -3.385  24.133  0.00  0.00    +0.095 C 
ENDROOT
BRANCH   1  12
ATOM     12  C   UNL     1       8.189  -2.015  22.906  0.00  0.00    -0.028 A 
ATOM     13  C   UNL     1       9.063  -1.736  21.846  0.00  0.00    +0.006 A 
ATOM     14  C   UNL     1       9.713  -0.504  21.758  0.00  0.00    +0.009 A 
ATOM     15  C   UNL     1       9.496   0.485  22.728  0.00  0.00    -0.018 A 
ATOM     16  C   UNL     1       8.633   0.211  23.813  0.00  0.00    -0.018 A 
ATOM     17  C   UNL     1       8.406   1.201  24.781  0.00  0.00    +0.008 A 
ATOM     18  C   UNL     1       9.016   2.452  24.670  0.00  0.00    +0.001 A 
ATOM     19  C   UNL     1       9.863   2.723  23.600  0.00  0.00    +0.001 A 
ATOM     20  C   UNL     1      10.107   1.744  22.636  0.00  0.00    +0.008 A 
ATOM     21  C   UNL     1       7.996  -1.043  23.894  0.00  0.00    +0.013 A 
ENDBRANCH   1  12
BRANCH   6  22
ATOM     22  O   UNL     1       8.236  -5.789  26.569  0.00  0.00    -0.384 OA
ATOM     23  H   UNL     1       7.910  -6.099  27.441  0.00  0.00    +0.210 HD
ENDBRANCH   6  22
BRANCH   7  24
ATOM     24  O   UNL     1       5.842  -3.129  27.433  0.00  0.00    -0.386 OA
ATOM     25  H   UNL     1       5.761  -2.689  26.576  0.00  0.00    +0.210 HD
ENDBRANCH   7  24
BRANCH   8  26
ATOM     26  O   UNL     1       5.843  -6.784  27.363  0.00  0.00    -0.386 OA
ATOM     27  H   UNL     1       5.652  -7.005  28.294  0.00  0.00    +0.210 HD
ENDBRANCH   8  26
BRANCH   9  28
ATOM     28  C   UNL     1       3.770  -4.300  25.396  0.00  0.00    +0.190 C 
BRANCH  28  29
ATOM     29  O   UNL     1       3.051  -3.922  26.560  0.00  0.00    -0.392 OA
ATOM     30  H   UNL     1       3.106  -2.957  26.642  0.00  0.00    +0.210 HD
ENDBRANCH  28  29
ENDBRANCH   9  28
TORSDOF 6
ENDMDL
MODEL 9
REMARK VINA RESULT:      -7.0      2.068      3.366
REMARK  Name = 
REMARK  6 active torsions:
REMARK  status: ('A' for Active; 'I' for Inactive)
REMARK    1  A    between atoms: C_2  and  C_21
REMARK    2  A    between atoms: C_8  and  C_10
REMARK    3  A    between atoms: C_10  and  O_11
REMARK    4  A    between atoms: C_12  and  O_14
REMARK    5  A    between atoms: C_15  and  O_17
REMARK    6  A    between atoms: C_18  and  O_20
REMARK                            x       y       z     vdW  Elec       q    Type
REMARK                         _______ _______ _______ _____ _____    ______ ____
ROOT
ATOM      1  C   UNL     1       8.943   0.094  25.538  0.00  0.00    +0.116 C 
ATOM      2  N   UNL     1      10.256   0.549  25.119  0.00  0.00    -0.190 NA
ATOM      3  H   UNL     1      10.668   1.155  25.830  0.00  0.00    +0.155 HD
ATOM      4  O   UNL     1      10.044   1.515  24.042  0.00  0.00    -0.261 OA
ATOM      5  C   UNL     1       8.670   1.971  24.006  0.00  0.00    +0.220 C 
ATOM      6  C   UNL     1       8.260   1.951  22.499  0.00  0.00    +0.206 C 
ATOM      7  C   UNL     1       6.985   2.757  22.192  0.00  0.00    +0.179 C 
ATOM      8  C   UNL     1       7.069   4.148  22.838  0.00  0.00    +0.177 C 
ATOM      9  C   UNL     1       7.403   4.060  24.336  0.00  0.00    +0.178 C 
ATOM     10  O   UNL     1       8.591   3.286  24.589  0.00  0.00    -0.337 OA
ATOM     11  C   UNL     1       7.912   0.991  24.887  0.00  0.00    +0.095 C 
ENDROOT
BRANCH   1  12
ATOM     12  C   UNL     1       8.611  -1.346  25.195  0.00  0.00    -0.028 A 
ATOM     13  C   UNL     1       8.417  -2.261  26.239  0.00  0.00    +0.006 A 
ATOM     14  C   UNL     1       7.942  -3.549  25.985  0.00  0.00    +0.009 A 
ATOM     15  C   UNL     1       7.641  -3.949  24.676  0.00  0.00    -0.018 A 
ATOM     16  C   UNL     1       7.850  -3.045  23.610  0.00  0.00    -0.018 A 
ATOM     17  C   UNL     1       7.541  -3.439  22.300  0.00  0.00    +0.008 A 
ATOM     18  C   UNL     1       7.019  -4.709  22.048  0.00  0.00    +0.001 A 
ATOM     19  C   UNL     1       6.810  -5.599  23.097  0.00  0.00    +0.001 A 
ATOM     20  C   UNL     1       7.124  -5.224  24.404  0.00  0.00    +0.008 A 
ATOM     21  C   UNL     1       8.343  -1.754  23.883  0.00  0.00    +0.013 A 
ENDBRANCH   1  12
BRANCH   6  22
ATOM     22  O   UNL     1       9.321   2.506  21.685  0.00  0.00    -0.384 OA
ATOM     23  H   UNL     1      10.022   2.814  22.299  0.00  0.00    +0.210 HD
ENDBRANCH   6  22
BRANCH   7  24
ATOM     24  O   UNL     1       5.758   2.118  22.529  0.00  0.00    -0.386 OA
ATOM     25  H   UNL     1       5.064   2.756  22.745  0.00  0.00    +0.210 HD
ENDBRANCH   7  24
BRANCH   8  26
ATOM     26  O   UNL     1       8.123   4.885  22.186  0.00  0.00    -0.386 OA
ATOM     27  H   UNL     1       7.792   5.144  21.306  0.00  0.00    +0.210 HD
ENDBRANCH   8  26
BRANCH   9  28
ATOM     28  C   UNL     1       6.202   3.669  25.214  0.00  0.00    +0.190 C 
BRANCH  28  29
ATOM     29  O   UNL     1       4.973   4.109  24.658  0.00  0.00    -0.392 OA
ATOM     30  H   UNL     1       4.524   4.652  25.323  0.00  0.00    +0.210 HD
ENDBRANCH  28  29
ENDBRANCH   9  28
TORSDOF 6
ENDMDL
