MODEL 1
REMARK VINA RESULT:      -6.3      0.000      0.000
REMARK  Name = 
REMARK  14 active torsions:
REMARK  status: ('A' for Active; 'I' for Inactive)
REMARK    1  A    between atoms: N_1  and  C_2
REMARK    2  A    between atoms: C_2  and  C_4
REMARK    3  A    between atoms: C_2  and  C_23
REMARK    4  A    between atoms: C_4  and  C_5
REMARK    5  A    between atoms: C_5  and  C_6
REMARK    6  A    between atoms: N_8  and  C_9
REMARK    7  A    between atoms: C_9  and  C_11
REMARK    8  A    between atoms: C_9  and  C_16
REMARK    9  A    between atoms: C_11  and  S_12
REMARK   10  A    between atoms: S_12  and  O_13
REMARK   11  A    between atoms: N_18  and  CA_19
REMARK   12  A    between atoms: CA_19  and  C_20
REMARK   13  A    between atoms: C_20  and  O_21
REMARK   14  A    between atoms: C_23  and  O_24
REMARK                            x       y       z     vdW  Elec       q    Type
REMARK                         _______ _______ _______ _____ _____    ______ ____
ROOT
ATOM      1  C   UNK A   1       7.580  -3.660  22.883  0.00  0.00    +0.182 C 
ENDROOT
BRANCH   1   3
ATOM      2  C   UNK A   1       9.557  -2.167  23.065  0.00  0.00    +0.214 C 
ATOM      3  N   UNK A   1       8.278  -2.398  22.632  0.00  0.00    -0.303 N 
ATOM      4  H   UNK A   1       7.761  -1.639  22.199  0.00  0.00    +0.149 HD
ATOM      5  O   UNK A   1      10.150  -2.940  23.811  0.00  0.00    -0.276 OA
BRANCH   2   6
ATOM      6  C   UNK A   1      10.187  -0.882  22.557  0.00  0.00    +0.098 C 
BRANCH   6   7
ATOM      7  C   UNK A   1       9.495  -0.247  21.346  0.00  0.00    +0.039 C 
BRANCH   7   8
ATOM      8  C   UNK A   1       8.891   1.151  21.552  0.00  0.00    +0.161 C 
BRANCH   8   9
ATOM      9  N   UNK A   1       9.909   2.224  21.701  0.00  0.00    -0.318 NA
ATOM     10  H   UNK A   1       9.564   2.964  22.319  0.00  0.00    +0.119 HD
ATOM     11  H   UNK A   1      10.704   1.828  22.215  0.00  0.00    +0.119 HD
ENDBRANCH   8   9
BRANCH   8  12
ATOM     12  C   UNK A   1       7.936   1.189  22.754  0.00  0.00    +0.322 C 
ATOM     13  O   UNK A   1       6.956   0.471  22.883  0.00  0.00    -0.249 OA
BRANCH  12  14
ATOM     14  O   UNK A   1       8.342   2.078  23.694  0.00  0.00    -0.480 OA
ATOM     15  H   UNK A   1       9.192   1.714  24.054  0.00  0.00    +0.295 HD
ENDBRANCH  12  14
ENDBRANCH   8  12
ENDBRANCH   7   8
ENDBRANCH   6   7
ENDBRANCH   2   6
ENDBRANCH   1   3
BRANCH   1  16
ATOM     16  C   UNK A   1       6.948  -3.700  24.289  0.00  0.00    +0.235 C 
ATOM     17  N   GLY A   2       6.871  -4.957  24.862  0.00  0.00    -0.303 N 
ATOM     18  H   GLY A   2       7.647  -5.578  24.620  0.00  0.00    +0.149 HD
ATOM     19  O   UNK A   1       6.507  -2.690  24.832  0.00  0.00    -0.274 OA
BRANCH  17  20
ATOM     20  CA  GLY A   2       6.313  -5.087  26.216  0.00  0.00    +0.224 C 
BRANCH  20  21
ATOM     21  C   GLY A   2       7.359  -5.536  27.234  0.00  0.00    +0.322 C 
ATOM     22  OXT GLY A   2       7.099  -6.099  28.288  0.00  0.00    -0.249 OA
BRANCH  21  23
ATOM     23  O   GLY A   2       8.632  -5.289  26.835  0.00  0.00    -0.480 OA
ATOM     24  H   GLY A   2       8.961  -6.050  26.311  0.00  0.00    +0.295 HD
ENDBRANCH  21  23
ENDBRANCH  20  21
ENDBRANCH  17  20
ENDBRANCH   1  16
BRANCH   1  25
ATOM     25  C   UNK A   1       6.449  -3.898  21.892  0.00  0.00    +0.229 C 
BRANCH  25  26
ATOM     26  S   UNK A   1       6.357  -5.599  21.422  0.00  0.00    +0.082 S 
ATOM     27  O   UNK A   1       7.486  -6.317  21.959  0.00  0.00    -0.147 OA
ATOM     28  O   UNK A   1       5.951  -5.693  20.037  0.00  0.00    -0.147 OA
BRANCH  26  29
ATOM     29  O   UNK A   1       5.052  -5.993  22.285  0.00  0.00    -0.254 OA
ATOM     30  H   UNK A   1       4.973  -5.363  23.033  0.00  0.00    +0.244 HD
ENDBRANCH  26  29
ENDBRANCH  25  26
ENDBRANCH   1  25
TORSDOF 14
ENDMDL
MODEL 2
REMARK VINA RESULT:      -6.2      2.578      6.418
REMARK  Name = 
REMARK  14 active torsions:
REMARK  status: ('A' for Active; 'I' for Inactive)
REMARK    1  A    between atoms: N_1  and  C_2
REMARK    2  A    between atoms: C_2  and  C_4
REMARK    3  A    between atoms: C_2  and  C_23
REMARK    4  A    between atoms: C_4  and  C_5
REMARK    5  A    between atoms: C_5  and  C_6
REMARK    6  A    between atoms: N_8  and  C_9
REMARK    7  A    between atoms: C_9  and  C_11
REMARK    8  A    between atoms: C_9  and  C_16
REMARK    9  A    between atoms: C_11  and  S_12
REMARK   10  A    between atoms: S_12  and  O_13
REMARK   11  A    between atoms: N_18  and  CA_19
REMARK   12  A    between atoms: CA_19  and  C_20
REMARK   13  A    between atoms: C_20  and  O_21
REMARK   14  A    between atoms: C_23  and  O_24
REMARK                            x       y       z     vdW  Elec       q    Type
REMARK                         _______ _______ _______ _____ _____    ______ ____
ROOT
ATOM      1  C   UNK A   1       9.411  -2.274  24.423  0.00  0.00    +0.182 C 
ENDROOT
BRANCH   1   3
ATOM      2  C   UNK A   1       8.146  -4.410  24.358  0.00  0.00    +0.214 C 
ATOM      3  N   UNK A   1       8.168  -3.041  24.334  0.00  0.00    -0.303 N 
ATOM      4  H   UNK A   1       7.304  -2.539  24.157  0.00  0.00    +0.149 HD
ATOM      5  O   UNK A   1       9.169  -5.087  24.314  0.00  0.00    -0.276 OA
BRANCH   2   6
ATOM      6  C   UNK A   1       6.763  -5.031  24.442  0.00  0.00    +0.098 C 
BRANCH   6   7
ATOM      7  C   UNK A   1       5.603  -4.035  24.554  0.00  0.00    +0.039 C 
BRANCH   7   8
ATOM      8  C   UNK A   1       4.742  -3.835  23.296  0.00  0.00    +0.161 C 
BRANCH   8   9
ATOM      9  N   UNK A   1       4.133  -5.092  22.786  0.00  0.00    -0.318 NA
ATOM     10  H   UNK A   1       3.562  -4.903  21.958  0.00  0.00    +0.119 HD
ATOM     11  H   UNK A   1       4.892  -5.683  22.430  0.00  0.00    +0.119 HD
ENDBRANCH   8   9
BRANCH   8  12
ATOM     12  C   UNK A   1       5.532  -3.160  22.166  0.00  0.00    +0.322 C 
ATOM     13  O   UNK A   1       5.664  -3.620  21.043  0.00  0.00    -0.249 OA
BRANCH  12  14
ATOM     14  O   UNK A   1       6.021  -1.952  22.543  0.00  0.00    -0.480 OA
ATOM     15  H   UNK A   1       6.320  -2.069  23.482  0.00  0.00    +0.295 HD
ENDBRANCH  12  14
ENDBRANCH   8  12
ENDBRANCH   7   8
ENDBRANCH   6   7
ENDBRANCH   2   6
ENDBRANCH   1   3
BRANCH   1  16
ATOM     16  C   UNK A   1       9.783  -1.615  23.080  0.00  0.00    +0.235 C 
ATOM     17  N   GLY A   2       8.879  -0.674  22.617  0.00  0.00    -0.303 N 
ATOM     18  H   GLY A   2       8.419  -0.135  23.354  0.00  0.00    +0.149 HD
ATOM     19  O   UNK A   1      10.788  -1.940  22.452  0.00  0.00    -0.274 OA
BRANCH  17  20
ATOM     20  CA  GLY A   2       9.168   0.031  21.361  0.00  0.00    +0.224 C 
BRANCH  20  21
ATOM     21  C   GLY A   2       8.954   1.538  21.478  0.00  0.00    +0.322 C 
ATOM     22  OXT GLY A   2       7.858   2.078  21.525  0.00  0.00    -0.249 OA
BRANCH  21  23
ATOM     23  O   GLY A   2      10.114   2.236  21.572  0.00  0.00    -0.480 OA
ATOM     24  H   GLY A   2      10.099   2.782  22.387  0.00  0.00    +0.295 HD
ENDBRANCH  21  23
ENDBRANCH  20  21
ENDBRANCH  17  20
ENDBRANCH   1  16
BRANCH   1  25
ATOM     25  C   UNK A   1       9.321  -1.150  25.447  0.00  0.00    +0.229 C 
BRANCH  25  26
ATOM     26  S   UNK A   1       7.660  -0.924  26.005  0.00  0.00    +0.082 S 
ATOM     27  O   UNK A   1       7.284  -2.010  26.875  0.00  0.00    -0.147 OA
ATOM     28  O   UNK A   1       6.840  -0.480  24.899  0.00  0.00    -0.147 OA
BRANCH  26  29
ATOM     29  O   UNK A   1       7.912   0.386  26.912  0.00  0.00    -0.254 OA
ATOM     30  H   UNK A   1       7.054   0.843  27.043  0.00  0.00    +0.244 HD
ENDBRANCH  26  29
ENDBRANCH  25  26
ENDBRANCH   1  25
TORSDOF 14
ENDMDL
MODEL 3
REMARK VINA RESULT:      -6.1      3.814      8.202
REMARK  Name = 
REMARK  14 active torsions:
REMARK  status: ('A' for Active; 'I' for Inactive)
REMARK    1  A    between atoms: N_1  and  C_2
REMARK    2  A    between atoms: C_2  and  C_4
REMARK    3  A    between atoms: C_2  and  C_23
REMARK    4  A    between atoms: C_4  and  C_5
REMARK    5  A    between atoms: C_5  and  C_6
REMARK    6  A    between atoms: N_8  and  C_9
REMARK    7  A    between atoms: C_9  and  C_11
REMARK    8  A    between atoms: C_9  and  C_16
REMARK    9  A    between atoms: C_11  and  S_12
REMARK   10  A    between atoms: S_12  and  O_13
REMARK   11  A    between atoms: N_18  and  CA_19
REMARK   12  A    between atoms: CA_19  and  C_20
REMARK   13  A    between atoms: C_20  and  O_21
REMARK   14  A    between atoms: C_23  and  O_24
REMARK                            x       y       z     vdW  Elec       q    Type
REMARK                         _______ _______ _______ _____ _____    ______ ____
ROOT
ATOM      1  C   UNK A   1       9.526   2.975  24.185  0.00  0.00    +0.182 C 
ENDROOT
BRANCH   1   3
ATOM      2  C   UNK A   1       9.990   0.946  22.831  0.00  0.00    +0.214 C 
ATOM      3  N   UNK A   1       9.363   2.154  22.985  0.00  0.00    -0.303 N 
ATOM      4  H   UNK A   1       8.838   2.538  22.205  0.00  0.00    +0.149 HD
ATOM      5  O   UNK A   1      10.837   0.538  23.620  0.00  0.00    -0.276 OA
BRANCH   2   6
ATOM      6  C   UNK A   1       9.562   0.149  21.611  0.00  0.00    +0.098 C 
BRANCH   6   7
ATOM      7  C   UNK A   1       9.748  -1.369  21.722  0.00  0.00    +0.039 C 
BRANCH   7   8
ATOM      8  C   UNK A   1       8.707  -2.132  22.557  0.00  0.00    +0.161 C 
BRANCH   8   9
ATOM      9  N   UNK A   1       7.425  -1.397  22.726  0.00  0.00    -0.318 NA
ATOM     10  H   UNK A   1       6.649  -2.054  22.848  0.00  0.00    +0.119 HD
ATOM     11  H   UNK A   1       7.468  -0.900  23.623  0.00  0.00    +0.119 HD
ENDBRANCH   8   9
BRANCH   8  12
ATOM     12  C   UNK A   1       9.256  -2.518  23.938  0.00  0.00    +0.322 C 
ATOM     13  O   UNK A   1       9.932  -3.509  24.162  0.00  0.00    -0.249 OA
BRANCH  12  14
ATOM     14  O   UNK A   1       8.949  -1.592  24.880  0.00  0.00    -0.480 OA
ATOM     15  H   UNK A   1       7.999  -1.357  24.722  0.00  0.00    +0.295 HD
ENDBRANCH  12  14
ENDBRANCH   8  12
ENDBRANCH   7   8
ENDBRANCH   6   7
ENDBRANCH   2   6
ENDBRANCH   1   3
BRANCH   1  16
ATOM     16  C   UNK A   1      10.091   4.372  23.857  0.00  0.00    +0.235 C 
ATOM     17  N   GLY A   2      11.339   4.375  23.259  0.00  0.00    -0.303 N 
ATOM     18  H   GLY A   2      11.508   3.583  22.634  0.00  0.00    +0.149 HD
ATOM     19  O   UNK A   1       9.489   5.402  24.151  0.00  0.00    -0.274 OA
BRANCH  17  20
ATOM     20  CA  GLY A   2      11.942   5.661  22.880  0.00  0.00    +0.224 C 
BRANCH  20  21
ATOM     21  C   GLY A   2      13.411   5.521  22.488  0.00  0.00    +0.322 C 
ATOM     22  OXT GLY A   2      13.909   6.019  21.488  0.00  0.00    -0.249 OA
BRANCH  21  23
ATOM     23  O   GLY A   2      14.139   4.817  23.392  0.00  0.00    -0.480 OA
ATOM     24  H   GLY A   2      14.517   5.435  24.053  0.00  0.00    +0.295 HD
ENDBRANCH  21  23
ENDBRANCH  20  21
ENDBRANCH  17  20
ENDBRANCH   1  16
BRANCH   1  25
ATOM     25  C   UNK A   1       8.206   3.202  24.910  0.00  0.00    +0.229 C 
BRANCH  25  26
ATOM     26  S   UNK A   1       7.556   1.686  25.545  0.00  0.00    +0.082 S 
ATOM     27  O   UNK A   1       6.936   0.936  24.482  0.00  0.00    -0.147 OA
ATOM     28  O   UNK A   1       6.907   1.938  26.813  0.00  0.00    -0.147 OA
BRANCH  26  29
ATOM     29  O   UNK A   1       8.961   0.982  25.908  0.00  0.00    -0.254 OA
ATOM     30  H   UNK A   1       9.191   0.359  25.186  0.00  0.00    +0.244 HD
ENDBRANCH  26  29
ENDBRANCH  25  26
ENDBRANCH   1  25
TORSDOF 14
ENDMDL
MODEL 4
REMARK VINA RESULT:      -6.1      1.728      2.144
REMARK  Name = 
REMARK  14 active torsions:
REMARK  status: ('A' for Active; 'I' for Inactive)
REMARK    1  A    between atoms: N_1  and  C_2
REMARK    2  A    between atoms: C_2  and  C_4
REMARK    3  A    between atoms: C_2  and  C_23
REMARK    4  A    between atoms: C_4  and  C_5
REMARK    5  A    between atoms: C_5  and  C_6
REMARK    6  A    between atoms: N_8  and  C_9
REMARK    7  A    between atoms: C_9  and  C_11
REMARK    8  A    between atoms: C_9  and  C_16
REMARK    9  A    between atoms: C_11  and  S_12
REMARK   10  A    between atoms: S_12  and  O_13
REMARK   11  A    between atoms: N_18  and  CA_19
REMARK   12  A    between atoms: CA_19  and  C_20
REMARK   13  A    between atoms: C_20  and  O_21
REMARK   14  A    between atoms: C_23  and  O_24
REMARK                            x       y       z     vdW  Elec       q    Type
REMARK                         _______ _______ _______ _____ _____    ______ ____
ROOT
ATOM      1  C   UNK A   1       7.956  -2.946  22.755  0.00  0.00    +0.182 C 
ENDROOT
BRANCH   1   3
ATOM      2  C   UNK A   1       9.110  -0.913  21.917  0.00  0.00    +0.214 C 
ATOM      3  N   UNK A   1       8.018  -1.508  22.489  0.00  0.00    -0.303 N 
ATOM      4  H   UNK A   1       7.259  -0.923  22.825  0.00  0.00    +0.149 HD
ATOM      5  O   UNK A   1      10.160  -1.516  21.717  0.00  0.00    -0.276 OA
BRANCH   2   6
ATOM      6  C   UNK A   1       8.928   0.548  21.546  0.00  0.00    +0.098 C 
BRANCH   6   7
ATOM      7  C   UNK A   1      10.114   1.461  21.876  0.00  0.00    +0.039 C 
BRANCH   7   8
ATOM      8  C   UNK A   1      10.024   2.262  23.186  0.00  0.00    +0.161 C 
BRANCH   8   9
ATOM      9  N   UNK A   1      10.943   3.430  23.233  0.00  0.00    -0.318 NA
ATOM     10  H   UNK A   1      11.349   3.604  22.310  0.00  0.00    +0.119 HD
ATOM     11  H   UNK A   1      10.374   4.265  23.411  0.00  0.00    +0.119 HD
ENDBRANCH   8   9
BRANCH   8  12
ATOM     12  C   UNK A   1      10.269   1.375  24.415  0.00  0.00    +0.322 C 
ATOM     13  O   UNK A   1      11.291   0.737  24.616  0.00  0.00    -0.249 OA
BRANCH  12  14
ATOM     14  O   UNK A   1       9.235   1.427  25.290  0.00  0.00    -0.480 OA
ATOM     15  H   UNK A   1       9.385   0.678  25.923  0.00  0.00    +0.295 HD
ENDBRANCH  12  14
ENDBRANCH   8  12
ENDBRANCH   7   8
ENDBRANCH   6   7
ENDBRANCH   2   6
ENDBRANCH   1   3
BRANCH   1  16
ATOM     16  C   UNK A   1       8.613  -3.315  24.100  0.00  0.00    +0.235 C 
ATOM     17  N   GLY A   2       7.801  -3.169  25.211  0.00  0.00    -0.303 N 
ATOM     18  H   GLY A   2       6.813  -3.372  25.039  0.00  0.00    +0.149 HD
ATOM     19  O   UNK A   1       9.788  -3.669  24.173  0.00  0.00    -0.274 OA
BRANCH  17  20
ATOM     20  CA  GLY A   2       8.332  -3.531  26.532  0.00  0.00    +0.224 C 
BRANCH  20  21
ATOM     21  C   GLY A   2       7.983  -4.963  26.927  0.00  0.00    +0.322 C 
ATOM     22  OXT GLY A   2       7.204  -5.262  27.821  0.00  0.00    -0.249 OA
BRANCH  21  23
ATOM     23  O   GLY A   2       8.592  -5.895  26.150  0.00  0.00    -0.480 OA
ATOM     24  H   GLY A   2       9.548  -5.687  26.085  0.00  0.00    +0.295 HD
ENDBRANCH  21  23
ENDBRANCH  20  21
ENDBRANCH  17  20
ENDBRANCH   1  16
BRANCH   1  25
ATOM     25  C   UNK A   1       6.523  -3.458  22.818  0.00  0.00    +0.229 C 
BRANCH  25  26
ATOM     26  S   UNK A   1       6.466  -5.220  22.704  0.00  0.00    +0.082 S 
ATOM     27  O   UNK A   1       6.383  -5.794  24.023  0.00  0.00    -0.147 OA
ATOM     28  O   UNK A   1       7.417  -5.666  21.709  0.00  0.00    -0.147 OA
BRANCH  26  29
ATOM     29  O   UNK A   1       5.017  -5.346  22.007  0.00  0.00    -0.254 OA
ATOM     30  H   UNK A   1       5.139  -5.342  21.034  0.00  0.00    +0.244 HD
ENDBRANCH  26  29
ENDBRANCH  25  26
ENDBRANCH   1  25
TORSDOF 14
ENDMDL
MODEL 5
REMARK VINA RESULT:      -6.0      1.994      2.688
REMARK  Name = 
REMARK  14 active torsions:
REMARK  status: ('A' for Active; 'I' for Inactive)
REMARK    1  A    between atoms: N_1  and  C_2
REMARK    2  A    between atoms: C_2  and  C_4
REMARK    3  A    between atoms: C_2  and  C_23
REMARK    4  A    between atoms: C_4  and  C_5
REMARK    5  A    between atoms: C_5  and  C_6
REMARK    6  A    between atoms: N_8  and  C_9
REMARK    7  A    between atoms: C_9  and  C_11
REMARK    8  A    between atoms: C_9  and  C_16
REMARK    9  A    between atoms: C_11  and  S_12
REMARK   10  A    between atoms: S_12  and  O_13
REMARK   11  A    between atoms: N_18  and  CA_19
REMARK   12  A    between atoms: CA_19  and  C_20
REMARK   13  A    between atoms: C_20  and  O_21
REMARK   14  A    between atoms: C_23  and  O_24
REMARK                            x       y       z     vdW  Elec       q    Type
REMARK                         _______ _______ _______ _____ _____    ______ ____
ROOT
ATOM      1  C   UNK A   1       7.657  -4.062  24.579  0.00  0.00    +0.182 C 
ENDROOT
BRANCH   1   3
ATOM      2  C   UNK A   1       9.397  -2.295  24.446  0.00  0.00    +0.214 C 
ATOM      3  N   UNK A   1       8.170  -2.723  24.876  0.00  0.00    -0.303 N 
ATOM      4  H   UNK A   1       7.632  -2.128  25.498  0.00  0.00    +0.149 HD
ATOM      5  O   UNK A   1      10.206  -3.045  23.908  0.00  0.00    -0.276 OA
BRANCH   2   6
ATOM      6  C   UNK A   1       9.686  -0.823  24.685  0.00  0.00    +0.098 C 
BRANCH   6   7
ATOM      7  C   UNK A   1      10.136  -0.034  23.450  0.00  0.00    +0.039 C 
BRANCH   7   8
ATOM      8  C   UNK A   1       9.181  -0.035  22.246  0.00  0.00    +0.161 C 
BRANCH   8   9
ATOM      9  N   UNK A   1       9.619  -0.927  21.139  0.00  0.00    -0.318 NA
ATOM     10  H   UNK A   1       9.131  -1.825  21.188  0.00  0.00    +0.119 HD
ATOM     11  H   UNK A   1       9.287  -0.516  20.260  0.00  0.00    +0.119 HD
ENDBRANCH   8   9
BRANCH   8  12
ATOM     12  C   UNK A   1       8.955   1.381  21.696  0.00  0.00    +0.322 C 
ATOM     13  O   UNK A   1       7.859   1.868  21.468  0.00  0.00    -0.249 OA
BRANCH  12  14
ATOM     14  O   UNK A   1      10.121   2.057  21.546  0.00  0.00    -0.480 OA
ATOM     15  H   UNK A   1      10.433   1.847  20.628  0.00  0.00    +0.295 HD
ENDBRANCH  12  14
ENDBRANCH   8  12
ENDBRANCH   7   8
ENDBRANCH   6   7
ENDBRANCH   2   6
ENDBRANCH   1   3
BRANCH   1  16
ATOM     16  C   UNK A   1       7.527  -4.926  25.849  0.00  0.00    +0.235 C 
ATOM     17  N   GLY A   2       6.415  -4.660  26.629  0.00  0.00    -0.303 N 
ATOM     18  H   GLY A   2       5.585  -4.383  26.099  0.00  0.00    +0.149 HD
ATOM     19  O   UNK A   1       8.378  -5.757  26.160  0.00  0.00    -0.274 OA
BRANCH  17  20
ATOM     20  CA  GLY A   2       6.190  -5.460  27.842  0.00  0.00    +0.224 C 
BRANCH  20  21
ATOM     21  C   GLY A   2       5.322  -6.687  27.576  0.00  0.00    +0.322 C 
ATOM     22  OXT GLY A   2       4.601  -6.824  26.597  0.00  0.00    -0.249 OA
BRANCH  21  23
ATOM     23  O   GLY A   2       5.459  -7.652  28.520  0.00  0.00    -0.480 OA
ATOM     24  H   GLY A   2       6.385  -7.975  28.521  0.00  0.00    +0.295 HD
ENDBRANCH  21  23
ENDBRANCH  20  21
ENDBRANCH  17  20
ENDBRANCH   1  16
BRANCH   1  25
ATOM     25  C   UNK A   1       6.276  -4.020  23.940  0.00  0.00    +0.229 C 
BRANCH  25  26
ATOM     26  S   UNK A   1       6.246  -2.930  22.550  0.00  0.00    +0.082 S 
ATOM     27  O   UNK A   1       6.232  -1.561  23.001  0.00  0.00    -0.147 OA
ATOM     28  O   UNK A   1       5.324  -3.442  21.559  0.00  0.00    -0.147 OA
BRANCH  26  29
ATOM     29  O   UNK A   1       7.720  -3.259  21.983  0.00  0.00    -0.254 OA
ATOM     30  H   UNK A   1       8.367  -2.693  22.455  0.00  0.00    +0.244 HD
ENDBRANCH  26  29
ENDBRANCH  25  26
ENDBRANCH   1  25
TORSDOF 14
ENDMDL
MODEL 6
REMARK VINA RESULT:      -5.8      2.434      3.148
REMARK  Name = 
REMARK  14 active torsions:
REMARK  status: ('A' for Active; 'I' for Inactive)
REMARK    1  A    between atoms: N_1  and  C_2
REMARK    2  A    between atoms: C_2  and  C_4
REMARK    3  A    between atoms: C_2  and  C_23
REMARK    4  A    between atoms: C_4  and  C_5
REMARK    5  A    between atoms: C_5  and  C_6
REMARK    6  A    between atoms: N_8  and  C_9
REMARK    7  A    between atoms: C_9  and  C_11
REMARK    8  A    between atoms: C_9  and  C_16
REMARK    9  A    between atoms: C_11  and  S_12
REMARK   10  A    between atoms: S_12  and  O_13
REMARK   11  A    between atoms: N_18  and  CA_19
REMARK   12  A    between atoms: CA_19  and  C_20
REMARK   13  A    between atoms: C_20  and  O_21
REMARK   14  A    between atoms: C_23  and  O_24
REMARK                            x       y       z     vdW  Elec       q    Type
REMARK                         _______ _______ _______ _____ _____    ______ ____
ROOT
ATOM      1  C   UNK A   1       7.295  -5.019  24.954  0.00  0.00    +0.182 C 
ENDROOT
BRANCH   1   3
ATOM      2  C   UNK A   1       9.289  -3.620  24.469  0.00  0.00    +0.214 C 
ATOM      3  N   UNK A   1       7.935  -3.742  24.641  0.00  0.00    -0.303 N 
ATOM      4  H   UNK A   1       7.363  -2.903  24.641  0.00  0.00    +0.149 HD
ATOM      5  O   UNK A   1      10.068  -4.539  24.704  0.00  0.00    -0.276 OA
BRANCH   2   6
ATOM      6  C   UNK A   1       9.756  -2.265  23.968  0.00  0.00    +0.098 C 
BRANCH   6   7
ATOM      7  C   UNK A   1       8.741  -1.126  24.113  0.00  0.00    +0.039 C 
BRANCH   7   8
ATOM      8  C   UNK A   1       8.949  -0.163  25.293  0.00  0.00    +0.161 C 
BRANCH   8   9
ATOM      9  N   UNK A   1      10.349   0.319  25.428  0.00  0.00    -0.318 NA
ATOM     10  H   UNK A   1      10.955  -0.144  24.745  0.00  0.00    +0.119 HD
ATOM     11  H   UNK A   1      10.366   1.304  25.142  0.00  0.00    +0.119 HD
ENDBRANCH   8   9
BRANCH   8  12
ATOM     12  C   UNK A   1       8.496  -0.783  26.622  0.00  0.00    +0.322 C 
ATOM     13  O   UNK A   1       7.562  -1.560  26.741  0.00  0.00    -0.249 OA
BRANCH  12  14
ATOM     14  O   UNK A   1       9.297  -0.412  27.651  0.00  0.00    -0.480 OA
ATOM     15  H   UNK A   1       9.914   0.268  27.276  0.00  0.00    +0.295 HD
ENDBRANCH  12  14
ENDBRANCH   8  12
ENDBRANCH   7   8
ENDBRANCH   6   7
ENDBRANCH   2   6
ENDBRANCH   1   3
BRANCH   1  16
ATOM     16  C   UNK A   1       6.927  -5.131  26.447  0.00  0.00    +0.235 C 
ATOM     17  N   GLY A   2       5.580  -5.313  26.708  0.00  0.00    -0.303 N 
ATOM     18  H   GLY A   2       5.086  -5.869  26.005  0.00  0.00    +0.149 HD
ATOM     19  O   UNK A   1       7.770  -5.021  27.335  0.00  0.00    -0.274 OA
BRANCH  17  20
ATOM     20  CA  GLY A   2       5.141  -5.464  28.102  0.00  0.00    +0.224 C 
BRANCH  20  21
ATOM     21  C   GLY A   2       5.043  -6.928  28.525  0.00  0.00    +0.322 C 
ATOM     22  OXT GLY A   2       6.004  -7.636  28.791  0.00  0.00    -0.249 OA
BRANCH  21  23
ATOM     23  O   GLY A   2       3.763  -7.370  28.625  0.00  0.00    -0.480 OA
ATOM     24  H   GLY A   2       3.154  -6.674  28.299  0.00  0.00    +0.295 HD
ENDBRANCH  21  23
ENDBRANCH  20  21
ENDBRANCH  17  20
ENDBRANCH   1  16
BRANCH   1  25
ATOM     25  C   UNK A   1       6.004  -5.223  24.173  0.00  0.00    +0.229 C 
BRANCH  25  26
ATOM     26  S   UNK A   1       6.271  -5.041  22.436  0.00  0.00    +0.082 S 
ATOM     27  O   UNK A   1       6.627  -3.677  22.135  0.00  0.00    -0.147 OA
ATOM     28  O   UNK A   1       5.246  -5.765  21.716  0.00  0.00    -0.147 OA
BRANCH  26  29
ATOM     29  O   UNK A   1       7.601  -5.946  22.325  0.00  0.00    -0.254 OA
ATOM     30  H   UNK A   1       7.776  -6.126  21.377  0.00  0.00    +0.244 HD
ENDBRANCH  26  29
ENDBRANCH  25  26
ENDBRANCH   1  25
TORSDOF 14
ENDMDL
MODEL 7
REMARK VINA RESULT:      -5.8      1.869      2.412
REMARK  Name = 
REMARK  14 active torsions:
REMARK  status: ('A' for Active; 'I' for Inactive)
REMARK    1  A    between atoms: N_1  and  C_2
REMARK    2  A    between atoms: C_2  and  C_4
REMARK    3  A    between atoms: C_2  and  C_23
REMARK    4  A    between atoms: C_4  and  C_5
REMARK    5  A    between atoms: C_5  and  C_6
REMARK    6  A    between atoms: N_8  and  C_9
REMARK    7  A    between atoms: C_9  and  C_11
REMARK    8  A    between atoms: C_9  and  C_16
REMARK    9  A    between atoms: C_11  and  S_12
REMARK   10  A    between atoms: S_12  and  O_13
REMARK   11  A    between atoms: N_18  and  CA_19
REMARK   12  A    between atoms: CA_19  and  C_20
REMARK   13  A    between atoms: C_20  and  O_21
REMARK   14  A    between atoms: C_23  and  O_24
REMARK                            x       y       z     vdW  Elec       q    Type
REMARK                         _______ _______ _______ _____ _____    ______ ____
ROOT
ATOM      1  C   UNK A   1       8.089  -4.187  23.203  0.00  0.00    +0.182 C 
ENDROOT
BRANCH   1   3
ATOM      2  C   UNK A   1       8.188  -1.737  22.808  0.00  0.00    +0.214 C 
ATOM      3  N   UNK A   1       7.513  -2.843  23.252  0.00  0.00    -0.303 N 
ATOM      4  H   UNK A   1       6.618  -2.718  23.716  0.00  0.00    +0.149 HD
ATOM      5  O   UNK A   1       9.367  -1.777  22.470  0.00  0.00    -0.276 OA
BRANCH   2   6
ATOM      6  C   UNK A   1       7.371  -0.458  22.763  0.00  0.00    +0.098 C 
BRANCH   6   7
ATOM      7  C   UNK A   1       7.976   0.733  23.513  0.00  0.00    +0.039 C 
BRANCH   7   8
ATOM      8  C   UNK A   1       8.901   1.660  22.706  0.00  0.00    +0.161 C 
BRANCH   8   9
ATOM      9  N   UNK A   1       9.041   1.264  21.280  0.00  0.00    -0.318 NA
ATOM     10  H   UNK A   1       8.593   0.359  21.113  0.00  0.00    +0.119 HD
ATOM     11  H   UNK A   1       8.485   1.920  20.720  0.00  0.00    +0.119 HD
ENDBRANCH   8   9
BRANCH   8  12
ATOM     12  C   UNK A   1      10.294   1.769  23.341  0.00  0.00    +0.322 C 
ATOM     13  O   UNK A   1      10.892   2.818  23.522  0.00  0.00    -0.249 OA
BRANCH  12  14
ATOM     14  O   UNK A   1      10.766   0.561  23.735  0.00  0.00    -0.480 OA
ATOM     15  H   UNK A   1       9.980  -0.044  23.735  0.00  0.00    +0.295 HD
ENDBRANCH  12  14
ENDBRANCH   8  12
ENDBRANCH   7   8
ENDBRANCH   6   7
ENDBRANCH   2   6
ENDBRANCH   1   3
BRANCH   1  16
ATOM     16  C   UNK A   1       8.557  -4.668  24.591  0.00  0.00    +0.235 C 
ATOM     17  N   GLY A   2       7.569  -4.720  25.559  0.00  0.00    -0.303 N 
ATOM     18  H   GLY A   2       6.644  -4.973  25.203  0.00  0.00    +0.149 HD
ATOM     19  O   UNK A   1       9.733  -4.940  24.822  0.00  0.00    -0.274 OA
BRANCH  17  20
ATOM     20  CA  GLY A   2       7.917  -5.200  26.903  0.00  0.00    +0.224 C 
BRANCH  20  21
ATOM     21  C   GLY A   2       6.696  -5.686  27.681  0.00  0.00    +0.322 C 
ATOM     22  OXT GLY A   2       6.418  -5.336  28.819  0.00  0.00    -0.249 OA
BRANCH  21  23
ATOM     23  O   GLY A   2       5.906  -6.524  26.962  0.00  0.00    -0.480 OA
ATOM     24  H   GLY A   2       6.117  -6.430  26.009  0.00  0.00    +0.295 HD
ENDBRANCH  21  23
ENDBRANCH  20  21
ENDBRANCH  17  20
ENDBRANCH   1  16
BRANCH   1  25
ATOM     25  C   UNK A   1       7.090  -5.222  22.700  0.00  0.00    +0.229 C 
BRANCH  25  26
ATOM     26  S   UNK A   1       5.459  -4.548  22.610  0.00  0.00    +0.082 S 
ATOM     27  O   UNK A   1       5.378  -3.608  21.520  0.00  0.00    -0.147 OA
ATOM     28  O   UNK A   1       4.991  -4.249  23.946  0.00  0.00    -0.147 OA
BRANCH  26  29
ATOM     29  O   UNK A   1       4.691  -5.896  22.172  0.00  0.00    -0.254 OA
ATOM     30  H   UNK A   1       3.784  -5.658  21.883  0.00  0.00    +0.244 HD
ENDBRANCH  26  29
ENDBRANCH  25  26
ENDBRANCH   1  25
TORSDOF 14
ENDMDL
MODEL 8
REMARK VINA RESULT:      -5.8      1.953      5.697
REMARK  Name = 
REMARK  14 active torsions:
REMARK  status: ('A' for Active; 'I' for Inactive)
REMARK    1  A    between atoms: N_1  and  C_2
REMARK    2  A    between atoms: C_2  and  C_4
REMARK    3  A    between atoms: C_2  and  C_23
REMARK    4  A    between atoms: C_4  and  C_5
REMARK    5  A    between atoms: C_5  and  C_6
REMARK    6  A    between atoms: N_8  and  C_9
REMARK    7  A    between atoms: C_9  and  C_11
REMARK    8  A    between atoms: C_9  and  C_16
REMARK    9  A    between atoms: C_11  and  S_12
REMARK   10  A    between atoms: S_12  and  O_13
REMARK   11  A    between atoms: N_18  and  CA_19
REMARK   12  A    between atoms: CA_19  and  C_20
REMARK   13  A    between atoms: C_20  and  O_21
REMARK   14  A    between atoms: C_23  and  O_24
REMARK                            x       y       z     vdW  Elec       q    Type
REMARK                         _______ _______ _______ _____ _____    ______ ____
ROOT
ATOM      1  C   UNK A   1       6.114  -2.799  23.059  0.00  0.00    +0.182 C 
ENDROOT
BRANCH   1   3
ATOM      2  C   UNK A   1       5.456  -3.520  25.342  0.00  0.00    +0.214 C 
ATOM      3  N   UNK A   1       6.266  -3.643  24.244  0.00  0.00    -0.303 N 
ATOM      4  H   UNK A   1       7.056  -4.279  24.286  0.00  0.00    +0.149 HD
ATOM      5  O   UNK A   1       4.645  -2.607  25.464  0.00  0.00    -0.276 OA
BRANCH   2   6
ATOM      6  C   UNK A   1       5.635  -4.596  26.399  0.00  0.00    +0.098 C 
BRANCH   6   7
ATOM      7  C   UNK A   1       6.803  -5.560  26.162  0.00  0.00    +0.039 C 
BRANCH   7   8
ATOM      8  C   UNK A   1       8.207  -5.041  26.511  0.00  0.00    +0.161 C 
BRANCH   8   9
ATOM      9  N   UNK A   1       8.217  -3.639  27.008  0.00  0.00    -0.318 NA
ATOM     10  H   UNK A   1       8.945  -3.097  26.536  0.00  0.00    +0.119 HD
ATOM     11  H   UNK A   1       7.344  -3.195  26.702  0.00  0.00    +0.119 HD
ENDBRANCH   8   9
BRANCH   8  12
ATOM     12  C   UNK A   1       9.172  -5.164  25.323  0.00  0.00    +0.322 C 
ATOM     13  O   UNK A   1       8.961  -4.710  24.209  0.00  0.00    -0.249 OA
BRANCH  12  14
ATOM     14  O   UNK A   1      10.324  -5.789  25.671  0.00  0.00    -0.480 OA
ATOM     15  H   UNK A   1      10.581  -5.403  26.548  0.00  0.00    +0.295 HD
ENDBRANCH  12  14
ENDBRANCH   8  12
ENDBRANCH   7   8
ENDBRANCH   6   7
ENDBRANCH   2   6
ENDBRANCH   1   3
BRANCH   1  16
ATOM     16  C   UNK A   1       6.997  -1.537  23.130  0.00  0.00    +0.235 C 
ATOM     17  N   GLY A   2       8.333  -1.770  23.408  0.00  0.00    -0.303 N 
ATOM     18  H   GLY A   2       8.698  -2.642  23.019  0.00  0.00    +0.149 HD
ATOM     19  O   UNK A   1       6.531  -0.408  22.991  0.00  0.00    -0.274 OA
BRANCH  17  20
ATOM     20  CA  GLY A   2       9.256  -0.628  23.461  0.00  0.00    +0.224 C 
BRANCH  20  21
ATOM     21  C   GLY A   2       9.846  -0.294  22.093  0.00  0.00    +0.322 C 
ATOM     22  OXT GLY A   2      10.037   0.842  21.683  0.00  0.00    -0.249 OA
BRANCH  21  23
ATOM     23  O   GLY A   2      10.187  -1.394  21.376  0.00  0.00    -0.480 OA
ATOM     24  H   GLY A   2      10.119  -1.191  20.419  0.00  0.00    +0.295 HD
ENDBRANCH  21  23
ENDBRANCH  20  21
ENDBRANCH  17  20
ENDBRANCH   1  16
BRANCH   1  25
ATOM     25  C   UNK A   1       6.504  -3.529  21.780  0.00  0.00    +0.229 C 
BRANCH  25  26
ATOM     26  S   UNK A   1       5.802  -5.150  21.728  0.00  0.00    +0.082 S 
ATOM     27  O   UNK A   1       5.924  -5.694  20.399  0.00  0.00    -0.147 OA
ATOM     28  O   UNK A   1       4.561  -5.159  22.472  0.00  0.00    -0.147 OA
BRANCH  26  29
ATOM     29  O   UNK A   1       6.882  -5.884  22.675  0.00  0.00    -0.254 OA
ATOM     30  H   UNK A   1       7.392  -6.520  22.129  0.00  0.00    +0.244 HD
ENDBRANCH  26  29
ENDBRANCH  25  26
ENDBRANCH   1  25
TORSDOF 14
ENDMDL
MODEL 9
REMARK VINA RESULT:      -5.8      2.803      3.584
REMARK  Name = 
REMARK  14 active torsions:
REMARK  status: ('A' for Active; 'I' for Inactive)
REMARK    1  A    between atoms: N_1  and  C_2
REMARK    2  A    between atoms: C_2  and  C_4
REMARK    3  A    between atoms: C_2  and  C_23
REMARK    4  A    between atoms: C_4  and  C_5
REMARK    5  A    between atoms: C_5  and  C_6
REMARK    6  A    between atoms: N_8  and  C_9
REMARK    7  A    between atoms: C_9  and  C_11
REMARK    8  A    between atoms: C_9  and  C_16
REMARK    9  A    between atoms: C_11  and  S_12
REMARK   10  A    between atoms: S_12  and  O_13
REMARK   11  A    between atoms: N_18  and  CA_19
REMARK   12  A    between atoms: CA_19  and  C_20
REMARK   13  A    between atoms: C_20  and  O_21
REMARK   14  A    between atoms: C_23  and  O_24
REMARK                            x       y       z     vdW  Elec       q    Type
REMARK                         _______ _______ _______ _____ _____    ______ ____
ROOT
ATOM      1  C   UNK A   1       7.830  -1.940  22.765  0.00  0.00    +0.182 C 
ENDROOT
BRANCH   1   3
ATOM      2  C   UNK A   1       8.917   0.058  21.768  0.00  0.00    +0.214 C 
ATOM      3  N   UNK A   1       8.200  -0.524  22.779  0.00  0.00    -0.303 N 
ATOM      4  H   UNK A   1       7.994   0.020  23.611  0.00  0.00    +0.149 HD
ATOM      5  O   UNK A   1       9.417  -0.592  20.855  0.00  0.00    -0.276 OA
BRANCH   2   6
ATOM      6  C   UNK A   1       9.050   1.568  21.859  0.00  0.00    +0.098 C 
BRANCH   6   7
ATOM      7  C   UNK A   1      10.344   2.076  22.503  0.00  0.00    +0.039 C 
BRANCH   7   8
ATOM      8  C   UNK A   1      10.459   1.929  24.029  0.00  0.00    +0.161 C 
BRANCH   8   9
ATOM      9  N   UNK A   1      10.856   0.564  24.467  0.00  0.00    -0.318 NA
ATOM     10  H   UNK A   1      11.255   0.039  23.685  0.00  0.00    +0.119 HD
ATOM     11  H   UNK A   1      11.641   0.664  25.120  0.00  0.00    +0.119 HD
ENDBRANCH   8   9
BRANCH   8  12
ATOM     12  C   UNK A   1       9.160   2.332  24.740  0.00  0.00    +0.322 C 
ATOM     13  O   UNK A   1       8.659   3.444  24.690  0.00  0.00    -0.249 OA
BRANCH  12  14
ATOM     14  O   UNK A   1       8.594   1.284  25.390  0.00  0.00    -0.480 OA
ATOM     15  H   UNK A   1       7.752   1.636  25.778  0.00  0.00    +0.295 HD
ENDBRANCH  12  14
ENDBRANCH   8  12
ENDBRANCH   7   8
ENDBRANCH   6   7
ENDBRANCH   2   6
ENDBRANCH   1   3
BRANCH   1  16
ATOM     16  C   UNK A   1       8.731  -2.783  23.689  0.00  0.00    +0.235 C 
ATOM     17  N   GLY A   2       8.201  -4.002  24.074  0.00  0.00    -0.303 N 
ATOM     18  H   GLY A   2       7.617  -4.450  23.364  0.00  0.00    +0.149 HD
ATOM     19  O   UNK A   1       9.820  -2.373  24.085  0.00  0.00    -0.274 OA
BRANCH  17  20
ATOM     20  CA  GLY A   2       9.005  -4.888  24.927  0.00  0.00    +0.224 C 
BRANCH  20  21
ATOM     21  C   GLY A   2       8.618  -4.784  26.400  0.00  0.00    +0.322 C 
ATOM     22  OXT GLY A   2       8.600  -3.741  27.037  0.00  0.00    -0.249 OA
BRANCH  21  23
ATOM     23  O   GLY A   2       8.243  -5.973  26.938  0.00  0.00    -0.480 OA
ATOM     24  H   GLY A   2       8.985  -6.338  27.465  0.00  0.00    +0.295 HD
ENDBRANCH  21  23
ENDBRANCH  20  21
ENDBRANCH  17  20
ENDBRANCH   1  16
BRANCH   1  25
ATOM     25  C   UNK A   1       6.398  -2.164  23.233  0.00  0.00    +0.229 C 
BRANCH  25  26
ATOM     26  S   UNK A   1       5.984  -1.085  24.570  0.00  0.00    +0.082 S 
ATOM     27  O   UNK A   1       4.820  -1.583  25.259  0.00  0.00    -0.147 OA
ATOM     28  O   UNK A   1       6.114   0.288  24.134  0.00  0.00    -0.147 OA
BRANCH  26  29
ATOM     29  O   UNK A   1       7.277  -1.373  25.490  0.00  0.00    -0.254 OA
ATOM     30  H   UNK A   1       7.560  -2.301  25.347  0.00  0.00    +0.244 HD
ENDBRANCH  26  29
ENDBRANCH  25  26
ENDBRANCH   1  25
TORSDOF 14
ENDMDL
