MODEL 1
REMARK VINA RESULT:      -5.8      0.000      0.000
REMARK  Name = 
REMARK  6 active torsions:
REMARK  status: ('A' for Active; 'I' for Inactive)
REMARK    1  A    between atoms: C_1  and  O_2
REMARK    2  A    between atoms: O_2  and  C_3
REMARK    3  A    between atoms: C_4  and  O_5
REMARK    4  A    between atoms: C_7  and  C_8
REMARK    5  A    between atoms: C_9  and  C_10
REMARK    6  A    between atoms: C_10  and  O_11
REMARK                            x       y       z     vdW  Elec       q    Type
REMARK                         _______ _______ _______ _____ _____    ______ ____
ROOT
ATOM      1  C   UNL     1       9.896  -0.977  23.300  0.00  0.00    +0.161 A 
ATOM      2  C   UNL     1      10.157  -0.364  24.521  0.00  0.00    +0.050 A 
ATOM      3  C   UNL     1      10.328   1.027  24.585  0.00  0.00    +0.012 A 
ATOM      4  C   UNL     1      10.229   1.828  23.436  0.00  0.00    -0.021 A 
ATOM      5  C   UNL     1       9.967   1.206  22.211  0.00  0.00    +0.057 A 
ATOM      6  C   UNL     1       9.804  -0.176  22.156  0.00  0.00    +0.159 A 
ENDROOT
BRANCH   1   8
ATOM      7  C   UNL     1       9.554  -3.129  24.245  0.00  0.00    +0.277 C 
ATOM      8  O   UNL     1       9.725  -2.320  23.086  0.00  0.00    -0.491 OA
ENDBRANCH   1   8
BRANCH   4   9
ATOM      9  C   UNL     1      10.479   3.274  23.564  0.00  0.00    +0.015 C 
ATOM     10  C   UNL     1      11.676   3.855  23.376  0.00  0.00    +0.092 C 
BRANCH  10  11
ATOM     11  C   UNL     1      11.947   5.303  23.469  0.00  0.00    +0.330 C 
ATOM     12  O   UNL     1      11.064   6.131  23.324  0.00  0.00    -0.246 OA
BRANCH  11  13
ATOM     13  O   UNL     1      13.234   5.632  23.685  0.00  0.00    -0.478 OA
ATOM     14  H   UNL     1      13.815   5.535  22.912  0.00  0.00    +0.295 HD
ENDBRANCH  11  13
ENDBRANCH  10  11
ENDBRANCH   4   9
BRANCH   6  15
ATOM     15  O   UNL     1       9.559  -0.747  20.935  0.00  0.00    -0.503 OA
ATOM     16  H   UNL     1      10.441  -0.959  20.573  0.00  0.00    +0.292 HD
ENDBRANCH   6  15
TORSDOF 5
ENDMDL
MODEL 2
REMARK VINA RESULT:      -5.5      1.835      6.390
REMARK  Name = 
REMARK  6 active torsions:
REMARK  status: ('A' for Active; 'I' for Inactive)
REMARK    1  A    between atoms: C_1  and  O_2
REMARK    2  A    between atoms: O_2  and  C_3
REMARK    3  A    between atoms: C_4  and  O_5
REMARK    4  A    between atoms: C_7  and  C_8
REMARK    5  A    between atoms: C_9  and  C_10
REMARK    6  A    between atoms: C_10  and  O_11
REMARK                            x       y       z     vdW  Elec       q    Type
REMARK                         _______ _______ _______ _____ _____    ______ ____
ROOT
ATOM      1  C   UNL     1      10.151   1.913  23.552  0.00  0.00    +0.161 A 
ATOM      2  C   UNL     1      10.429   1.177  24.699  0.00  0.00    +0.050 A 
ATOM      3  C   UNL     1      10.339  -0.223  24.673  0.00  0.00    +0.012 A 
ATOM      4  C   UNL     1       9.983  -0.909  23.501  0.00  0.00    -0.021 A 
ATOM      5  C   UNL     1       9.704  -0.163  22.351  0.00  0.00    +0.057 A 
ATOM      6  C   UNL     1       9.791   1.226  22.388  0.00  0.00    +0.159 A 
ENDROOT
BRANCH   1   8
ATOM      7  C   UNL     1      11.468   3.884  23.408  0.00  0.00    +0.277 C 
ATOM      8  O   UNL     1      10.181   3.279  23.437  0.00  0.00    -0.491 OA
ENDBRANCH   1   8
BRANCH   4   9
ATOM      9  C   UNL     1       9.849  -2.375  23.558  0.00  0.00    +0.015 C 
ATOM     10  C   UNL     1       9.359  -3.050  24.612  0.00  0.00    +0.092 C 
BRANCH  10  11
ATOM     11  C   UNL     1       9.187  -4.514  24.684  0.00  0.00    +0.330 C 
ATOM     12  O   UNL     1       8.113  -5.045  24.460  0.00  0.00    -0.246 OA
BRANCH  11  13
ATOM     13  O   UNL     1      10.284  -5.203  25.049  0.00  0.00    -0.478 OA
ATOM     14  H   UNL     1      10.173  -6.168  25.063  0.00  0.00    +0.295 HD
ENDBRANCH  11  13
ENDBRANCH  10  11
ENDBRANCH   4   9
BRANCH   6  15
ATOM     15  O   UNL     1       9.499   1.919  21.243  0.00  0.00    -0.503 OA
ATOM     16  H   UNL     1       9.336   1.234  20.566  0.00  0.00    +0.292 HD
ENDBRANCH   6  15
TORSDOF 5
ENDMDL
MODEL 3
REMARK VINA RESULT:      -5.3      3.955      6.936
REMARK  Name = 
REMARK  6 active torsions:
REMARK  status: ('A' for Active; 'I' for Inactive)
REMARK    1  A    between atoms: C_1  and  O_2
REMARK    2  A    between atoms: O_2  and  C_3
REMARK    3  A    between atoms: C_4  and  O_5
REMARK    4  A    between atoms: C_7  and  C_8
REMARK    5  A    between atoms: C_9  and  C_10
REMARK    6  A    between atoms: C_10  and  O_11
REMARK                            x       y       z     vdW  Elec       q    Type
REMARK                         _______ _______ _______ _____ _____    ______ ____
ROOT
ATOM      1  C   UNL     1       6.403  -5.759  25.882  0.00  0.00    +0.161 A 
ATOM      2  C   UNL     1       6.274  -5.209  24.611  0.00  0.00    +0.050 A 
ATOM      3  C   UNL     1       7.283  -4.378  24.100  0.00  0.00    +0.012 A 
ATOM      4  C   UNL     1       8.440  -4.095  24.843  0.00  0.00    -0.021 A 
ATOM      5  C   UNL     1       8.564  -4.651  26.121  0.00  0.00    +0.057 A 
ATOM      6  C   UNL     1       7.555  -5.470  26.622  0.00  0.00    +0.159 A 
ENDROOT
BRANCH   1   8
ATOM      7  C   UNL     1       4.373  -6.984  25.740  0.00  0.00    +0.277 C 
ATOM      8  O   UNL     1       5.494  -6.568  26.512  0.00  0.00    -0.491 OA
ENDBRANCH   1   8
BRANCH   4   9
ATOM      9  C   UNL     1       9.432  -3.168  24.272  0.00  0.00    +0.015 C 
ATOM     10  C   UNL     1       9.151  -2.231  23.350  0.00  0.00    +0.092 C 
BRANCH  10  11
ATOM     11  C   UNL     1      10.118  -1.272  22.784  0.00  0.00    +0.330 C 
ATOM     12  O   UNL     1      10.547  -0.334  23.434  0.00  0.00    -0.246 OA
BRANCH  11  13
ATOM     13  O   UNL     1      10.456  -1.489  21.499  0.00  0.00    -0.478 OA
ATOM     14  H   UNL     1      11.275  -1.996  21.373  0.00  0.00    +0.295 HD
ENDBRANCH  11  13
ENDBRANCH  10  11
ENDBRANCH   4   9
BRANCH   6  15
ATOM     15  O   UNL     1       7.711  -5.985  27.881  0.00  0.00    -0.503 OA
ATOM     16  H   UNL     1       8.635  -5.783  28.125  0.00  0.00    +0.292 HD
ENDBRANCH   6  15
TORSDOF 5
ENDMDL
MODEL 4
REMARK VINA RESULT:      -5.2      3.035      6.890
REMARK  Name = 
REMARK  6 active torsions:
REMARK  status: ('A' for Active; 'I' for Inactive)
REMARK    1  A    between atoms: C_1  and  O_2
REMARK    2  A    between atoms: O_2  and  C_3
REMARK    3  A    between atoms: C_4  and  O_5
REMARK    4  A    between atoms: C_7  and  C_8
REMARK    5  A    between atoms: C_9  and  C_10
REMARK    6  A    between atoms: C_10  and  O_11
REMARK                            x       y       z     vdW  Elec       q    Type
REMARK                         _______ _______ _______ _____ _____    ______ ____
ROOT
ATOM      1  C   UNL     1       9.436   0.811  22.633  0.00  0.00    +0.161 A 
ATOM      2  C   UNL     1       9.351  -0.312  21.816  0.00  0.00    +0.050 A 
ATOM      3  C   UNL     1       9.460  -1.595  22.374  0.00  0.00    +0.012 A 
ATOM      4  C   UNL     1       9.642  -1.777  23.754  0.00  0.00    -0.021 A 
ATOM      5  C   UNL     1       9.727  -0.644  24.570  0.00  0.00    +0.057 A 
ATOM      6  C   UNL     1       9.623   0.626  24.007  0.00  0.00    +0.159 A 
ENDROOT
BRANCH   1   8
ATOM      7  C   UNL     1       8.066   2.621  21.934  0.00  0.00    +0.277 C 
ATOM      8  O   UNL     1       9.365   2.118  22.225  0.00  0.00    -0.491 OA
ENDBRANCH   1   8
BRANCH   4   9
ATOM      9  C   UNL     1       9.808  -3.148  24.266  0.00  0.00    +0.015 C 
ATOM     10  C   UNL     1       8.908  -3.782  25.038  0.00  0.00    +0.092 C 
BRANCH  10  11
ATOM     11  C   UNL     1       9.036  -5.163  25.540  0.00  0.00    +0.330 C 
ATOM     12  O   UNL     1       8.108  -5.734  26.089  0.00  0.00    -0.246 OA
BRANCH  11  13
ATOM     13  O   UNL     1      10.249  -5.722  25.380  0.00  0.00    -0.478 OA
ATOM     14  H   UNL     1      10.498  -5.900  24.457  0.00  0.00    +0.295 HD
ENDBRANCH  11  13
ENDBRANCH  10  11
ENDBRANCH   4   9
BRANCH   6  15
ATOM     15  O   UNL     1       9.722   1.709  24.840  0.00  0.00    -0.503 OA
ATOM     16  H   UNL     1       8.799   1.957  25.043  0.00  0.00    +0.292 HD
ENDBRANCH   6  15
TORSDOF 5
ENDMDL
MODEL 5
REMARK VINA RESULT:      -5.0      2.831      6.987
REMARK  Name = 
REMARK  6 active torsions:
REMARK  status: ('A' for Active; 'I' for Inactive)
REMARK    1  A    between atoms: C_1  and  O_2
REMARK    2  A    between atoms: O_2  and  C_3
REMARK    3  A    between atoms: C_4  and  O_5
REMARK    4  A    between atoms: C_7  and  C_8
REMARK    5  A    between atoms: C_9  and  C_10
REMARK    6  A    between atoms: C_10  and  O_11
REMARK                            x       y       z     vdW  Elec       q    Type
REMARK                         _______ _______ _______ _____ _____    ______ ____
ROOT
ATOM      1  C   UNL     1       9.775   0.046  23.229  0.00  0.00    +0.161 A 
ATOM      2  C   UNL     1       9.307   0.439  24.479  0.00  0.00    +0.050 A 
ATOM      3  C   UNL     1       8.979  -0.528  25.441  0.00  0.00    +0.012 A 
ATOM      4  C   UNL     1       9.126  -1.899  25.177  0.00  0.00    -0.021 A 
ATOM      5  C   UNL     1       9.597  -2.288  23.919  0.00  0.00    +0.057 A 
ATOM      6  C   UNL     1       9.915  -1.321  22.968  0.00  0.00    +0.159 A 
ENDROOT
BRANCH   1   8
ATOM      7  C   UNL     1      10.178   2.266  22.488  0.00  0.00    +0.277 C 
ATOM      8  O   UNL     1      10.114   0.876  22.192  0.00  0.00    -0.491 OA
ENDBRANCH   1   8
BRANCH   4   9
ATOM      9  C   UNL     1       8.708  -2.862  26.210  0.00  0.00    +0.015 C 
ATOM     10  C   UNL     1       7.820  -3.850  26.008  0.00  0.00    +0.092 C 
BRANCH  10  11
ATOM     11  C   UNL     1       7.406  -4.846  27.015  0.00  0.00    +0.330 C 
ATOM     12  O   UNL     1       6.573  -4.588  27.868  0.00  0.00    -0.246 OA
BRANCH  11  13
ATOM     13  O   UNL     1       8.037  -6.032  26.942  0.00  0.00    -0.478 OA
ATOM     14  H   UNL     1       7.490  -6.800  27.179  0.00  0.00    +0.295 HD
ENDBRANCH  11  13
ENDBRANCH  10  11
ENDBRANCH   4   9
BRANCH   6  15
ATOM     15  O   UNL     1      10.363  -1.745  21.745  0.00  0.00    -0.503 OA
ATOM     16  H   UNL     1       9.609  -1.612  21.138  0.00  0.00    +0.292 HD
ENDBRANCH   6  15
TORSDOF 5
ENDMDL
MODEL 6
REMARK VINA RESULT:      -5.0      2.739      4.528
REMARK  Name = 
REMARK  6 active torsions:
REMARK  status: ('A' for Active; 'I' for Inactive)
REMARK    1  A    between atoms: C_1  and  O_2
REMARK    2  A    between atoms: O_2  and  C_3
REMARK    3  A    between atoms: C_4  and  O_5
REMARK    4  A    between atoms: C_7  and  C_8
REMARK    5  A    between atoms: C_9  and  C_10
REMARK    6  A    between atoms: C_10  and  O_11
REMARK                            x       y       z     vdW  Elec       q    Type
REMARK                         _______ _______ _______ _____ _____    ______ ____
ROOT
ATOM      1  C   UNL     1       7.644  -4.358  23.308  0.00  0.00    +0.161 A 
ATOM      2  C   UNL     1       7.410  -3.374  22.353  0.00  0.00    +0.050 A 
ATOM      3  C   UNL     1       8.209  -2.221  22.323  0.00  0.00    +0.012 A 
ATOM      4  C   UNL     1       9.260  -2.038  23.236  0.00  0.00    -0.021 A 
ATOM      5  C   UNL     1       9.490  -3.031  24.194  0.00  0.00    +0.057 A 
ATOM      6  C   UNL     1       8.688  -4.169  24.220  0.00  0.00    +0.159 A 
ENDROOT
BRANCH   1   8
ATOM      7  C   UNL     1       6.055  -5.875  22.404  0.00  0.00    +0.277 C 
ATOM      8  O   UNL     1       6.935  -5.520  23.465  0.00  0.00    -0.491 OA
ENDBRANCH   1   8
BRANCH   4   9
ATOM      9  C   UNL     1      10.021  -0.778  23.187  0.00  0.00    +0.015 C 
ATOM     10  C   UNL     1       9.506   0.404  22.809  0.00  0.00    +0.092 C 
BRANCH  10  11
ATOM     11  C   UNL     1      10.237   1.685  22.780  0.00  0.00    +0.330 C 
ATOM     12  O   UNL     1      10.769   2.143  23.777  0.00  0.00    -0.246 OA
BRANCH  11  13
ATOM     13  O   UNL     1      10.239   2.317  21.592  0.00  0.00    -0.478 OA
ATOM     14  H   UNL     1      11.088   2.725  21.348  0.00  0.00    +0.295 HD
ENDBRANCH  11  13
ENDBRANCH  10  11
ENDBRANCH   4   9
BRANCH   6  15
ATOM     15  O   UNL     1       8.940  -5.112  25.181  0.00  0.00    -0.503 OA
ATOM     16  H   UNL     1       8.777  -4.658  26.030  0.00  0.00    +0.292 HD
ENDBRANCH   6  15
TORSDOF 5
ENDMDL
MODEL 7
REMARK VINA RESULT:      -4.9      3.255      7.644
REMARK  Name = 
REMARK  6 active torsions:
REMARK  status: ('A' for Active; 'I' for Inactive)
REMARK    1  A    between atoms: C_1  and  O_2
REMARK    2  A    between atoms: O_2  and  C_3
REMARK    3  A    between atoms: C_4  and  O_5
REMARK    4  A    between atoms: C_7  and  C_8
REMARK    5  A    between atoms: C_9  and  C_10
REMARK    6  A    between atoms: C_10  and  O_11
REMARK                            x       y       z     vdW  Elec       q    Type
REMARK                         _______ _______ _______ _____ _____    ______ ____
ROOT
ATOM      1  C   UNL     1       9.935  -0.642  23.828  0.00  0.00    +0.161 A 
ATOM      2  C   UNL     1       9.924  -0.878  22.457  0.00  0.00    +0.050 A 
ATOM      3  C   UNL     1       8.989  -1.767  21.906  0.00  0.00    +0.012 A 
ATOM      4  C   UNL     1       8.042  -2.422  22.710  0.00  0.00    -0.021 A 
ATOM      5  C   UNL     1       8.058  -2.180  24.088  0.00  0.00    +0.057 A 
ATOM      6  C   UNL     1       8.995  -1.300  24.627  0.00  0.00    +0.159 A 
ENDROOT
BRANCH   1   8
ATOM      7  C   UNL     1      10.725   1.569  24.191  0.00  0.00    +0.277 C 
ATOM      8  O   UNL     1      10.799   0.182  24.502  0.00  0.00    -0.491 OA
ENDBRANCH   1   8
BRANCH   4   9
ATOM      9  C   UNL     1       7.128  -3.386  22.076  0.00  0.00    +0.015 C 
ATOM     10  C   UNL     1       7.269  -4.721  22.144  0.00  0.00    +0.092 C 
BRANCH  10  11
ATOM     11  C   UNL     1       6.353  -5.709  21.544  0.00  0.00    +0.330 C 
ATOM     12  O   UNL     1       5.933  -5.586  20.406  0.00  0.00    -0.246 OA
BRANCH  11  13
ATOM     13  O   UNL     1       5.992  -6.722  22.353  0.00  0.00    -0.478 OA
ATOM     14  H   UNL     1       6.693  -7.039  22.947  0.00  0.00    +0.295 HD
ENDBRANCH  11  13
ENDBRANCH  10  11
ENDBRANCH   4   9
BRANCH   6  15
ATOM     15  O   UNL     1       8.983  -1.100  25.982  0.00  0.00    -0.503 OA
ATOM     16  H   UNL     1       8.042  -1.164  26.239  0.00  0.00    +0.292 HD
ENDBRANCH   6  15
TORSDOF 5
ENDMDL
MODEL 8
REMARK VINA RESULT:      -4.8      3.128      4.793
REMARK  Name = 
REMARK  6 active torsions:
REMARK  status: ('A' for Active; 'I' for Inactive)
REMARK    1  A    between atoms: C_1  and  O_2
REMARK    2  A    between atoms: O_2  and  C_3
REMARK    3  A    between atoms: C_4  and  O_5
REMARK    4  A    between atoms: C_7  and  C_8
REMARK    5  A    between atoms: C_9  and  C_10
REMARK    6  A    between atoms: C_10  and  O_11
REMARK                            x       y       z     vdW  Elec       q    Type
REMARK                         _______ _______ _______ _____ _____    ______ ____
ROOT
ATOM      1  C   UNL     1       6.927  -4.674  23.106  0.00  0.00    +0.161 A 
ATOM      2  C   UNL     1       8.019  -4.563  23.959  0.00  0.00    +0.050 A 
ATOM      3  C   UNL     1       8.792  -3.392  23.960  0.00  0.00    +0.012 A 
ATOM      4  C   UNL     1       8.480  -2.310  23.121  0.00  0.00    -0.021 A 
ATOM      5  C   UNL     1       7.380  -2.428  22.265  0.00  0.00    +0.057 A 
ATOM      6  C   UNL     1       6.622  -3.597  22.266  0.00  0.00    +0.159 A 
ENDROOT
BRANCH   1   8
ATOM      7  C   UNL     1       5.212  -6.004  24.072  0.00  0.00    +0.277 C 
ATOM      8  O   UNL     1       6.098  -5.759  22.985  0.00  0.00    -0.491 OA
ENDBRANCH   1   8
BRANCH   4   9
ATOM      9  C   UNL     1       9.367  -1.135  23.130  0.00  0.00    +0.015 C 
ATOM     10  C   UNL     1       9.077   0.036  22.537  0.00  0.00    +0.092 C 
BRANCH  10  11
ATOM     11  C   UNL     1       9.933   1.238  22.555  0.00  0.00    +0.330 C 
ATOM     12  O   UNL     1      10.633   1.513  23.516  0.00  0.00    -0.246 OA
BRANCH  11  13
ATOM     13  O   UNL     1       9.854   2.015  21.459  0.00  0.00    -0.478 OA
ATOM     14  H   UNL     1      10.634   2.572  21.297  0.00  0.00    +0.295 HD
ENDBRANCH  11  13
ENDBRANCH  10  11
ENDBRANCH   4   9
BRANCH   6  15
ATOM     15  O   UNL     1       5.559  -3.675  21.405  0.00  0.00    -0.503 OA
ATOM     16  H   UNL     1       5.700  -4.502  20.904  0.00  0.00    +0.292 HD
ENDBRANCH   6  15
TORSDOF 5
ENDMDL
MODEL 9
REMARK VINA RESULT:      -4.8      3.179      3.411
REMARK  Name = 
REMARK  6 active torsions:
REMARK  status: ('A' for Active; 'I' for Inactive)
REMARK    1  A    between atoms: C_1  and  O_2
REMARK    2  A    between atoms: O_2  and  C_3
REMARK    3  A    between atoms: C_4  and  O_5
REMARK    4  A    between atoms: C_7  and  C_8
REMARK    5  A    between atoms: C_9  and  C_10
REMARK    6  A    between atoms: C_10  and  O_11
REMARK                            x       y       z     vdW  Elec       q    Type
REMARK                         _______ _______ _______ _____ _____    ______ ____
ROOT
ATOM      1  C   UNL     1       8.154  -1.457  22.633  0.00  0.00    +0.161 A 
ATOM      2  C   UNL     1       7.096  -0.706  23.134  0.00  0.00    +0.050 A 
ATOM      3  C   UNL     1       7.065   0.682  22.935  0.00  0.00    +0.012 A 
ATOM      4  C   UNL     1       8.082   1.341  22.224  0.00  0.00    -0.021 A 
ATOM      5  C   UNL     1       9.144   0.580  21.723  0.00  0.00    +0.057 A 
ATOM      6  C   UNL     1       9.168  -0.798  21.930  0.00  0.00    +0.159 A 
ENDROOT
BRANCH   1   8
ATOM      7  C   UNL     1       7.294  -3.634  22.227  0.00  0.00    +0.277 C 
ATOM      8  O   UNL     1       8.323  -2.811  22.766  0.00  0.00    -0.491 OA
ENDBRANCH   1   8
BRANCH   4   9
ATOM      9  C   UNL     1       8.019   2.807  22.103  0.00  0.00    +0.015 C 
ATOM     10  C   UNL     1       7.109   3.579  22.722  0.00  0.00    +0.092 C 
BRANCH  10  11
ATOM     11  C   UNL     1       7.042   5.051  22.642  0.00  0.00    +0.330 C 
ATOM     12  O   UNL     1       6.591   5.723  23.555  0.00  0.00    -0.246 OA
BRANCH  11  13
ATOM     13  O   UNL     1       7.476   5.583  21.484  0.00  0.00    -0.478 OA
ATOM     14  H   UNL     1       7.046   6.418  21.233  0.00  0.00    +0.295 HD
ENDBRANCH  11  13
ENDBRANCH  10  11
ENDBRANCH   4   9
BRANCH   6  15
ATOM     15  O   UNL     1      10.231  -1.504  21.431  0.00  0.00    -0.503 OA
ATOM     16  H   UNL     1      10.738  -1.786  22.217  0.00  0.00    +0.292 HD
ENDBRANCH   6  15
TORSDOF 5
ENDMDL
