MODEL 1
REMARK VINA RESULT:      -5.6      0.000      0.000
REMARK  Name = 
REMARK  19 active torsions:
REMARK  status: ('A' for Active; 'I' for Inactive)
REMARK    1  A    between atoms: C_1  and  O_2
REMARK    2  A    between atoms: O_2  and  C_3
REMARK    3  A    between atoms: C_8  and  C_9
REMARK    4  A    between atoms: C_17  and  O_18
REMARK    5  A    between atoms: C_19  and  C_20
REMARK    6  A    between atoms: C_27  and  C_28
REMARK    7  A    between atoms: C_32  and  C_34
REMARK    8  A    between atoms: C_35  and  O_37
REMARK    9  A    between atoms: C_38  and  C_40
REMARK   10  A    between atoms: C_41  and  O_43
REMARK   11  A    between atoms: C_44  and  C_46
REMARK   12  A    between atoms: C_47  and  O_49
REMARK   13  A    between atoms: O_49  and  C_50
REMARK   14  A    between atoms: C_50  and  C_51
REMARK   15  A    between atoms: C_53  and  C_55
REMARK   16  A    between atoms: N_61  and  C_64
REMARK   17  A    between atoms: C_64  and  C_65
REMARK   18  A    between atoms: C_65  and  C_66
REMARK   19  A    between atoms: C_65  and  C_67
REMARK                            x       y       z     vdW  Elec       q    Type
REMARK                         _______ _______ _______ _____ _____    ______ ____
ROOT
ATOM      1  C   UNL     1       5.776  -3.847  22.558  0.00  0.00    +0.150 C 
ATOM      2  C   UNL     1       6.395  -1.852  23.233  0.00  0.00    +0.060 C 
ATOM      3  C   UNL     1       6.652  -3.094  24.556  0.00  0.00    +0.014 C 
ATOM      4  C   UNL     1       6.787   0.307  23.417  0.00  0.00    +0.187 C 
ATOM      5  C   UNL     1       6.358   2.282  24.060  0.00  0.00    +0.056 C 
ATOM      6  C   UNL     1       7.530   3.247  25.108  0.00  0.00    +0.014 C 
ATOM      7  C   UNL     1       6.034   4.159  23.791  0.00  0.00    +0.126 C 
ATOM      8  C   UNL     1       5.707   5.509  25.136  0.00  0.00    +0.044 C 
ATOM      9  C   UNL     1       6.749   6.330  26.265  0.00  0.00    +0.013 C 
ATOM     10  C   UNL     1       4.296   5.045  25.540  0.00  0.00    +0.126 C 
ATOM     11  C   UNL     1       4.525   4.294  26.823  0.00  0.00    +0.037 C 
ATOM     12  C   UNL     1       3.645   5.039  27.826  0.00  0.00    +0.014 C 
ATOM     13  C   UNL     1       4.290   2.847  26.525  0.00  0.00    -0.021 C 
ATOM     14  C   UNL     1       3.694   2.107  27.437  0.00  0.00    -0.003 C 
ATOM     15  C   UNL     1       2.745   1.072  27.062  0.00  0.00    +0.008 C 
ATOM     16  C   UNL     1       1.982   0.413  27.986  0.00  0.00    +0.012 C 
ATOM     17  C   UNL     1       2.446   0.704  29.388  0.00  0.00    +0.049 C 
ATOM     18  C   UNL     1       0.965  -0.760  27.500  0.00  0.00    +0.244 C 
ATOM     19  O   UNL     1       0.529  -0.636  26.352  0.00  0.00    -0.270 OA
ATOM     20  N   UNL     1       0.735  -1.983  28.297  0.00  0.00    -0.277 N 
ATOM     21  H   UNL     1       0.873  -1.882  29.296  0.00  0.00    +0.155 HD
ATOM     22  C   UNL     1       1.004  -3.427  27.942  0.00  0.00    +0.105 C 
ATOM     23  C   UNL     1       1.897  -4.115  27.102  0.00  0.00    +0.080 C 
ATOM     24  C   UNL     1       0.902  -4.456  26.211  0.00  0.00    +0.092 C 
ATOM     25  C   UNL     1       0.471  -5.815  26.876  0.00  0.00    +0.031 A 
ATOM     26  C   UNL     1       0.725  -5.865  28.305  0.00  0.00    +0.075 A 
ATOM     27  C   UNL     1       0.990  -7.044  29.079  0.00  0.00    +0.135 A 
ATOM     28  C   UNL     1       1.150  -8.291  28.472  0.00  0.00    +0.034 A 
ATOM     29  C   UNL     1       1.205  -9.537  29.356  0.00  0.00    +0.051 C 
ATOM     30  C   UNL     1       1.235  -8.183  27.055  0.00  0.00    +0.143 A 
ATOM     31  O   UNL     1       2.067  -8.989  26.246  0.00  0.00    -0.444 OA
ATOM     32  C   UNL     1       1.646  -8.593  24.861  0.00  0.00    +0.314 C 
ATOM     33  C   UNL     1       0.443  -9.803  24.587  0.00  0.00    +0.114 C 
ATOM     34  C   UNL     1       1.069  -7.348  24.958  0.00  0.00    +0.250 C 
ATOM     35  O   UNL     1       0.615  -6.578  24.079  0.00  0.00    -0.284 OA
ATOM     36  O   UNL     1       2.856  -7.792  23.776  0.00  0.00    -0.453 OA
ATOM     37  C   UNL     1       4.048  -6.528  24.020  0.00  0.00    +0.190 C 
ATOM     38  C   UNL     1       0.787  -7.046  26.336  0.00  0.00    +0.077 A 
ATOM     39  N   UNL     1       1.040  -3.352  25.396  0.00  0.00    -0.256 NA
ATOM     40  C   UNL     1       2.532  -2.534  26.017  0.00  0.00    +0.128 C 
ATOM     41  C   UNL     1       3.120  -2.155  27.554  0.00  0.00    +0.065 C 
ATOM     42  C   UNL     1       4.261  -3.023  28.056  0.00  0.00    +0.088 C 
ATOM     43  N   UNL     1       5.356  -2.324  27.479  0.00  0.00    -0.302 NA
ATOM     44  C   UNL     1       4.994  -2.234  26.054  0.00  0.00    +0.088 C 
ATOM     45  C   UNL     1       3.636  -1.868  25.235  0.00  0.00    +0.065 C 
ATOM     46  N   UNL     1       2.889  -3.877  26.168  0.00  0.00    -0.317 N 
ATOM     47  H   UNL     1       2.684  -4.218  25.203  0.00  0.00    +0.148 HD
ATOM     48  C   UNL     1       1.038  -4.527  28.933  0.00  0.00    +0.213 C 
ATOM     49  O   UNL     1       1.512  -4.389  30.051  0.00  0.00    -0.285 OA
ATOM     50  C   UNL     1       4.490  -5.259  23.172  0.00  0.00    +0.042 C 
ENDROOT
BRANCH   1  52
ATOM     51  C   UNL     1       7.540  -6.393  21.870  0.00  0.00    +0.194 C 
ATOM     52  O   UNL     1       6.429  -5.155  21.507  0.00  0.00    -0.375 OA
ENDBRANCH   1  52
BRANCH   7  53
ATOM     53  O   UNL     1       5.042   4.865  22.849  0.00  0.00    -0.391 OA
ATOM     54  H   UNL     1       5.540   5.531  22.263  0.00  0.00    +0.210 HD
ENDBRANCH   7  53
BRANCH  10  55
ATOM     55  O   UNL     1       3.583   4.230  24.564  0.00  0.00    -0.391 OA
ATOM     56  H   UNL     1       4.173   3.837  23.882  0.00  0.00    +0.210 HD
ENDBRANCH  10  55
BRANCH  27  57
ATOM     57  O   UNL     1       1.221  -6.954  30.433  0.00  0.00    -0.506 OA
ATOM     58  H   UNL     1       2.189  -6.940  30.610  0.00  0.00    +0.292 HD
ENDBRANCH  27  57
BRANCH   4  59
ATOM     59  O   UNL     1       8.218   1.393  22.755  0.00  0.00    -0.461 OA
BRANCH  59  60
ATOM     60  C   UNL     1       9.805   1.568  22.964  0.00  0.00    +0.304 C 
ATOM     61  O   UNL     1      10.413   2.183  22.064  0.00  0.00    -0.251 OA
ATOM     62  C   UNL     1      11.016   1.048  24.256  0.00  0.00    +0.136 C 
ENDBRANCH  59  60
ENDBRANCH   4  59
BRANCH  43  63
ATOM     63  C   UNL     1       5.636  -1.021  28.043  0.00  0.00    +0.087 C 
BRANCH  63  64
ATOM     64  C   UNL     1       6.703  -0.205  27.279  0.00  0.00    -0.003 C 
ATOM     65  C   UNL     1       7.857  -1.182  27.110  0.00  0.00    +0.008 C 
ATOM     66  C   UNL     1       7.196   1.192  27.769  0.00  0.00    +0.008 C 
ENDBRANCH  63  64
ENDBRANCH  43  63
TORSDOF 8
ENDMDL
