MODEL 1
REMARK VINA RESULT:      -6.4      0.000      0.000
REMARK  Name = 
REMARK  7 active torsions:
REMARK  status: ('A' for Active; 'I' for Inactive)
REMARK    1  A    between atoms: O_1  and  C_2
REMARK    2  A    between atoms: C_5  and  N_16
REMARK    3  A    between atoms: C_8  and  C_10
REMARK    4  A    between atoms: C_10  and  O_11
REMARK    5  A    between atoms: O_11  and  P_12
REMARK    6  A    between atoms: P_12  and  O_13
REMARK    7  A    between atoms: P_12  and  O_14
REMARK                            x       y       z     vdW  Elec       q    Type
REMARK                         _______ _______ _______ _____ _____    ______ ____
ROOT
ATOM      1  C   UNL     1       7.014  -2.017  23.396  0.00  0.00    +0.150 C 
ATOM      2  C   UNL     1       8.544  -1.983  23.382  0.00  0.00    +0.175 C 
ATOM      3  O   UNL     1       8.986  -3.360  23.326  0.00  0.00    -0.348 OA
ATOM      4  C   UNL     1       7.831  -4.220  23.294  0.00  0.00    +0.226 C 
ATOM      5  C   UNL     1       6.720  -3.338  22.733  0.00  0.00    +0.088 C 
ENDROOT
BRANCH   4   6
ATOM      6  N   UNL     1       7.590  -4.766  24.640  0.00  0.00    -0.274 N 
ATOM      7  C   UNL     1       8.684  -5.236  25.358  0.00  0.00    +0.331 A 
ATOM      8  O   UNL     1       9.837  -5.256  24.934  0.00  0.00    -0.246 OA
ATOM      9  N   UNL     1       8.410  -5.703  26.622  0.00  0.00    -0.275 N 
ATOM     10  H   UNL     1       9.192  -6.044  27.158  0.00  0.00    +0.173 HD
ATOM     11  C   UNL     1       7.203  -5.655  27.256  0.00  0.00    +0.254 A 
ATOM     12  O   UNL     1       7.041  -6.038  28.399  0.00  0.00    -0.268 OA
ATOM     13  C   UNL     1       6.101  -5.085  26.477  0.00  0.00    +0.088 A 
ATOM     14  C   UNL     1       6.347  -4.652  25.241  0.00  0.00    +0.098 A 
ENDBRANCH   4   6
BRANCH   1  15
ATOM     15  O   UNL     1       6.438  -0.923  22.702  0.00  0.00    -0.389 OA
ATOM     16  H   UNL     1       5.969  -1.273  21.923  0.00  0.00    +0.210 HD
ENDBRANCH   1  15
BRANCH   2  17
ATOM     17  C   UNL     1       9.092  -1.288  24.635  0.00  0.00    +0.206 C 
BRANCH  17  18
ATOM     18  O   UNL     1       8.595   0.047  24.738  0.00  0.00    -0.284 OA
BRANCH  18  19
ATOM     19  P   UNL     1       9.714   1.264  24.234  0.00  0.00    +0.472 P 
ATOM     20  O   UNL     1      10.716   2.356  23.781  0.00  0.00    -0.228 OA
BRANCH  19  21
ATOM     21  O   UNL     1      10.740   0.593  25.320  0.00  0.00    -0.303 OA
ATOM     22  H   UNL     1      11.630   0.967  25.229  0.00  0.00    +0.222 HD
ENDBRANCH  19  21
BRANCH  19  23
ATOM     23  O   UNL     1       8.932   2.246  25.282  0.00  0.00    -0.303 OA
ATOM     24  H   UNL     1       9.541   2.819  25.776  0.00  0.00    +0.222 HD
ENDBRANCH  19  23
ENDBRANCH  18  19
ENDBRANCH  17  18
ENDBRANCH   2  17
TORSDOF 7
ENDMDL
MODEL 2
REMARK VINA RESULT:      -6.4      2.596      4.582
REMARK  Name = 
REMARK  7 active torsions:
REMARK  status: ('A' for Active; 'I' for Inactive)
REMARK    1  A    between atoms: O_1  and  C_2
REMARK    2  A    between atoms: C_5  and  N_16
REMARK    3  A    between atoms: C_8  and  C_10
REMARK    4  A    between atoms: C_10  and  O_11
REMARK    5  A    between atoms: O_11  and  P_12
REMARK    6  A    between atoms: P_12  and  O_13
REMARK    7  A    between atoms: P_12  and  O_14
REMARK                            x       y       z     vdW  Elec       q    Type
REMARK                         _______ _______ _______ _____ _____    ______ ____
ROOT
ATOM      1  C   UNL     1       7.364  -5.435  26.450  0.00  0.00    +0.150 C 
ATOM      2  C   UNL     1       7.385  -3.905  26.409  0.00  0.00    +0.175 C 
ATOM      3  O   UNL     1       6.179  -3.496  25.720  0.00  0.00    -0.348 OA
ATOM      4  C   UNL     1       5.429  -4.670  25.354  0.00  0.00    +0.226 C 
ATOM      5  C   UNL     1       5.892  -5.736  26.342  0.00  0.00    +0.088 C 
ENDROOT
BRANCH   4   6
ATOM      6  N   UNL     1       5.664  -4.976  23.933  0.00  0.00    -0.274 N 
ATOM      7  C   UNL     1       5.259  -6.220  23.459  0.00  0.00    +0.331 A 
ATOM      8  O   UNL     1       4.746  -7.095  24.154  0.00  0.00    -0.246 OA
ATOM      9  N   UNL     1       5.468  -6.443  22.119  0.00  0.00    -0.275 N 
ATOM     10  H   UNL     1       5.178  -7.337  21.758  0.00  0.00    +0.173 HD
ATOM     11  C   UNL     1       5.937  -5.536  21.213  0.00  0.00    +0.254 A 
ATOM     12  O   UNL     1       6.048  -5.783  20.028  0.00  0.00    -0.268 OA
ATOM     13  C   UNL     1       6.281  -4.220  21.756  0.00  0.00    +0.088 A 
ATOM     14  C   UNL     1       6.107  -3.998  23.059  0.00  0.00    +0.098 A 
ENDBRANCH   4   6
BRANCH   1  15
ATOM     15  O   UNL     1       7.938  -5.955  27.637  0.00  0.00    -0.389 OA
ATOM     16  H   UNL     1       7.769  -6.915  27.658  0.00  0.00    +0.210 HD
ENDBRANCH   1  15
BRANCH   2  17
ATOM     17  C   UNL     1       8.629  -3.389  25.676  0.00  0.00    +0.206 C 
BRANCH  17  18
ATOM     18  O   UNL     1       8.308  -2.266  24.853  0.00  0.00    -0.284 OA
BRANCH  18  19
ATOM     19  P   UNL     1       9.386  -2.026  23.523  0.00  0.00    +0.472 P 
ATOM     20  O   UNL     1      10.351  -1.811  22.330  0.00  0.00    -0.228 OA
BRANCH  19  21
ATOM     21  O   UNL     1      10.170  -3.352  24.083  0.00  0.00    -0.303 OA
ATOM     22  H   UNL     1      11.109  -3.159  24.226  0.00  0.00    +0.222 HD
ENDBRANCH  19  21
BRANCH  19  23
ATOM     23  O   UNL     1      10.134  -0.934  24.482  0.00  0.00    -0.303 OA
ATOM     24  H   UNL     1       9.610  -0.125  24.601  0.00  0.00    +0.222 HD
ENDBRANCH  19  23
ENDBRANCH  18  19
ENDBRANCH  17  18
ENDBRANCH   2  17
TORSDOF 7
ENDMDL
MODEL 3
REMARK VINA RESULT:      -6.3      2.406      3.576
REMARK  Name = 
REMARK  7 active torsions:
REMARK  status: ('A' for Active; 'I' for Inactive)
REMARK    1  A    between atoms: O_1  and  C_2
REMARK    2  A    between atoms: C_5  and  N_16
REMARK    3  A    between atoms: C_8  and  C_10
REMARK    4  A    between atoms: C_10  and  O_11
REMARK    5  A    between atoms: O_11  and  P_12
REMARK    6  A    between atoms: P_12  and  O_13
REMARK    7  A    between atoms: P_12  and  O_14
REMARK                            x       y       z     vdW  Elec       q    Type
REMARK                         _______ _______ _______ _____ _____    ______ ____
ROOT
ATOM      1  C   UNL     1       9.239   0.786  22.146  0.00  0.00    +0.150 C 
ATOM      2  C   UNL     1      10.311   0.574  23.217  0.00  0.00    +0.175 C 
ATOM      3  O   UNL     1      10.606  -0.843  23.229  0.00  0.00    -0.348 OA
ATOM      4  C   UNL     1       9.796  -1.497  22.233  0.00  0.00    +0.226 C 
ATOM      5  C   UNL     1       9.462  -0.392  21.235  0.00  0.00    +0.088 C 
ENDROOT
BRANCH   4   6
ATOM      6  N   UNL     1       8.640  -2.134  22.885  0.00  0.00    -0.274 N 
ATOM      7  C   UNL     1       8.888  -3.125  23.829  0.00  0.00    +0.331 A 
ATOM      8  O   UNL     1      10.008  -3.528  24.135  0.00  0.00    -0.246 OA
ATOM      9  N   UNL     1       7.776  -3.663  24.433  0.00  0.00    -0.275 N 
ATOM     10  H   UNL     1       7.938  -4.380  25.121  0.00  0.00    +0.173 HD
ATOM     11  C   UNL     1       6.486  -3.251  24.263  0.00  0.00    +0.254 A 
ATOM     12  O   UNL     1       5.552  -3.738  24.871  0.00  0.00    -0.268 OA
ATOM     13  C   UNL     1       6.291  -2.157  23.310  0.00  0.00    +0.088 A 
ATOM     14  C   UNL     1       7.358  -1.643  22.698  0.00  0.00    +0.098 A 
ENDBRANCH   4   6
BRANCH   1  15
ATOM     15  O   UNL     1       9.381   2.026  21.473  0.00  0.00    -0.389 OA
ATOM     16  H   UNL     1       8.558   2.533  21.599  0.00  0.00    +0.210 HD
ENDBRANCH   1  15
BRANCH   2  17
ATOM     17  C   UNL     1       9.816   1.035  24.594  0.00  0.00    +0.206 C 
BRANCH  17  18
ATOM     18  O   UNL     1       9.876  -0.031  25.542  0.00  0.00    -0.284 OA
BRANCH  18  19
ATOM     19  P   UNL     1       8.368  -0.388  26.309  0.00  0.00    +0.472 P 
ATOM     20  O   UNL     1       7.016  -0.707  26.996  0.00  0.00    -0.228 OA
BRANCH  19  21
ATOM     21  O   UNL     1       8.105   1.229  26.261  0.00  0.00    -0.303 OA
ATOM     22  H   UNL     1       8.554   1.628  25.500  0.00  0.00    +0.222 HD
ENDBRANCH  19  21
BRANCH  19  23
ATOM     23  O   UNL     1       9.220  -0.408  27.704  0.00  0.00    -0.303 OA
ATOM     24  H   UNL     1       8.814  -0.978  28.377  0.00  0.00    +0.222 HD
ENDBRANCH  19  23
ENDBRANCH  18  19
ENDBRANCH  17  18
ENDBRANCH   2  17
TORSDOF 7
ENDMDL
MODEL 4
REMARK VINA RESULT:      -6.3      2.431      3.326
REMARK  Name = 
REMARK  7 active torsions:
REMARK  status: ('A' for Active; 'I' for Inactive)
REMARK    1  A    between atoms: O_1  and  C_2
REMARK    2  A    between atoms: C_5  and  N_16
REMARK    3  A    between atoms: C_8  and  C_10
REMARK    4  A    between atoms: C_10  and  O_11
REMARK    5  A    between atoms: O_11  and  P_12
REMARK    6  A    between atoms: P_12  and  O_13
REMARK    7  A    between atoms: P_12  and  O_14
REMARK                            x       y       z     vdW  Elec       q    Type
REMARK                         _______ _______ _______ _____ _____    ______ ____
ROOT
ATOM      1  C   UNL     1       9.344  -1.501  22.569  0.00  0.00    +0.150 C 
ATOM      2  C   UNL     1       8.610  -0.516  23.482  0.00  0.00    +0.175 C 
ATOM      3  O   UNL     1       8.090  -1.290  24.589  0.00  0.00    -0.348 OA
ATOM      4  C   UNL     1       8.469  -2.669  24.412  0.00  0.00    +0.226 C 
ATOM      5  C   UNL     1       9.706  -2.609  23.522  0.00  0.00    +0.088 C 
ENDROOT
BRANCH   4   6
ATOM      6  N   UNL     1       7.329  -3.423  23.864  0.00  0.00    -0.274 N 
ATOM      7  C   UNL     1       7.500  -4.783  23.628  0.00  0.00    +0.331 A 
ATOM      8  O   UNL     1       8.549  -5.394  23.817  0.00  0.00    -0.246 OA
ATOM      9  N   UNL     1       6.395  -5.447  23.150  0.00  0.00    -0.275 N 
ATOM     10  H   UNL     1       6.500  -6.433  22.977  0.00  0.00    +0.173 HD
ATOM     11  C   UNL     1       5.147  -4.922  22.984  0.00  0.00    +0.254 A 
ATOM     12  O   UNL     1       4.198  -5.581  22.606  0.00  0.00    -0.268 OA
ATOM     13  C   UNL     1       5.008  -3.502  23.315  0.00  0.00    +0.088 A 
ATOM     14  C   UNL     1       6.077  -2.840  23.756  0.00  0.00    +0.098 A 
ENDBRANCH   4   6
BRANCH   1  15
ATOM     15  O   UNL     1      10.483  -0.924  21.950  0.00  0.00    -0.389 OA
ATOM     16  H   UNL     1      10.967  -0.415  22.625  0.00  0.00    +0.210 HD
ENDBRANCH   1  15
BRANCH   2  17
ATOM     17  C   UNL     1       7.473   0.190  22.733  0.00  0.00    +0.206 C 
BRANCH  17  18
ATOM     18  O   UNL     1       7.975   1.264  21.937  0.00  0.00    -0.284 OA
BRANCH  18  19
ATOM     19  P   UNL     1       9.012   2.356  22.787  0.00  0.00    +0.472 P 
ATOM     20  O   UNL     1       9.941   3.334  23.549  0.00  0.00    -0.228 OA
BRANCH  19  21
ATOM     21  O   UNL     1       8.160   3.544  22.045  0.00  0.00    -0.303 OA
ATOM     22  H   UNL     1       7.806   4.170  22.695  0.00  0.00    +0.222 HD
ENDBRANCH  19  21
BRANCH  19  23
ATOM     23  O   UNL     1      10.080   2.094  21.576  0.00  0.00    -0.303 OA
ATOM     24  H   UNL     1       9.803   2.509  20.743  0.00  0.00    +0.222 HD
ENDBRANCH  19  23
ENDBRANCH  18  19
ENDBRANCH  17  18
ENDBRANCH   2  17
TORSDOF 7
ENDMDL
MODEL 5
REMARK VINA RESULT:      -6.3      3.024      6.036
REMARK  Name = 
REMARK  7 active torsions:
REMARK  status: ('A' for Active; 'I' for Inactive)
REMARK    1  A    between atoms: O_1  and  C_2
REMARK    2  A    between atoms: C_5  and  N_16
REMARK    3  A    between atoms: C_8  and  C_10
REMARK    4  A    between atoms: C_10  and  O_11
REMARK    5  A    between atoms: O_11  and  P_12
REMARK    6  A    between atoms: P_12  and  O_13
REMARK    7  A    between atoms: P_12  and  O_14
REMARK                            x       y       z     vdW  Elec       q    Type
REMARK                         _______ _______ _______ _____ _____    ______ ____
ROOT
ATOM      1  C   UNL     1       9.420  -3.296  24.346  0.00  0.00    +0.150 C 
ATOM      2  C   UNL     1       8.158  -3.515  23.508  0.00  0.00    +0.175 C 
ATOM      3  O   UNL     1       8.000  -2.333  22.687  0.00  0.00    -0.348 OA
ATOM      4  C   UNL     1       9.083  -1.424  22.965  0.00  0.00    +0.226 C 
ATOM      5  C   UNL     1      10.195  -2.317  23.506  0.00  0.00    +0.088 C 
ENDROOT
BRANCH   4   6
ATOM      6  N   UNL     1       8.614  -0.369  23.879  0.00  0.00    -0.274 N 
ATOM      7  C   UNL     1       9.561   0.497  24.416  0.00  0.00    +0.331 A 
ATOM      8  O   UNL     1      10.769   0.423  24.203  0.00  0.00    -0.246 OA
ATOM      9  N   UNL     1       9.067   1.485  25.235  0.00  0.00    -0.275 N 
ATOM     10  H   UNL     1       9.739   2.122  25.629  0.00  0.00    +0.173 HD
ATOM     11  C   UNL     1       7.751   1.744  25.483  0.00  0.00    +0.254 A 
ATOM     12  O   UNL     1       7.380   2.670  26.178  0.00  0.00    -0.268 OA
ATOM     13  C   UNL     1       6.795   0.844  24.835  0.00  0.00    +0.088 A 
ATOM     14  C   UNL     1       7.261  -0.134  24.059  0.00  0.00    +0.098 A 
ENDBRANCH   4   6
BRANCH   1  15
ATOM     15  O   UNL     1      10.135  -4.499  24.577  0.00  0.00    -0.389 OA
ATOM     16  H   UNL     1      11.022  -4.263  24.906  0.00  0.00    +0.210 HD
ENDBRANCH   1  15
BRANCH   2  17
ATOM     17  C   UNL     1       6.929  -3.722  24.401  0.00  0.00    +0.206 C 
BRANCH  17  18
ATOM     18  O   UNL     1       6.919  -5.037  24.959  0.00  0.00    -0.284 OA
BRANCH  18  19
ATOM     19  P   UNL     1       6.866  -5.077  26.687  0.00  0.00    +0.472 P 
ATOM     20  O   UNL     1       6.818  -5.113  28.235  0.00  0.00    -0.228 OA
BRANCH  19  21
ATOM     21  O   UNL     1       8.301  -5.861  26.587  0.00  0.00    -0.303 OA
ATOM     22  H   UNL     1       9.028  -5.284  26.868  0.00  0.00    +0.222 HD
ENDBRANCH  19  21
BRANCH  19  23
ATOM     23  O   UNL     1       5.910  -6.392  26.506  0.00  0.00    -0.303 OA
ATOM     24  H   UNL     1       6.052  -6.838  25.655  0.00  0.00    +0.222 HD
ENDBRANCH  19  23
ENDBRANCH  18  19
ENDBRANCH  17  18
ENDBRANCH   2  17
TORSDOF 7
ENDMDL
MODEL 6
REMARK VINA RESULT:      -6.2      3.151      4.453
REMARK  Name = 
REMARK  7 active torsions:
REMARK  status: ('A' for Active; 'I' for Inactive)
REMARK    1  A    between atoms: O_1  and  C_2
REMARK    2  A    between atoms: C_5  and  N_16
REMARK    3  A    between atoms: C_8  and  C_10
REMARK    4  A    between atoms: C_10  and  O_11
REMARK    5  A    between atoms: O_11  and  P_12
REMARK    6  A    between atoms: P_12  and  O_13
REMARK    7  A    between atoms: P_12  and  O_14
REMARK                            x       y       z     vdW  Elec       q    Type
REMARK                         _______ _______ _______ _____ _____    ______ ____
ROOT
ATOM      1  C   UNL     1       9.064   1.568  22.572  0.00  0.00    +0.150 C 
ATOM      2  C   UNL     1       9.718   2.360  23.707  0.00  0.00    +0.175 C 
ATOM      3  O   UNL     1      10.670   1.469  24.335  0.00  0.00    -0.348 OA
ATOM      4  C   UNL     1      10.643   0.201  23.652  0.00  0.00    +0.226 C 
ATOM      5  C   UNL     1      10.113   0.533  22.261  0.00  0.00    +0.088 C 
ENDROOT
BRANCH   4   6
ATOM      6  N   UNL     1       9.835  -0.756  24.427  0.00  0.00    -0.274 N 
ATOM      7  C   UNL     1       9.794  -2.076  23.993  0.00  0.00    +0.331 A 
ATOM      8  O   UNL     1      10.363  -2.495  22.987  0.00  0.00    -0.246 OA
ATOM      9  N   UNL     1       9.055  -2.936  24.771  0.00  0.00    -0.275 N 
ATOM     10  H   UNL     1       9.017  -3.897  24.473  0.00  0.00    +0.173 HD
ATOM     11  C   UNL     1       8.452  -2.634  25.958  0.00  0.00    +0.254 A 
ATOM     12  O   UNL     1       7.857  -3.459  26.624  0.00  0.00    -0.268 OA
ATOM     13  C   UNL     1       8.588  -1.245  26.401  0.00  0.00    +0.088 A 
ATOM     14  C   UNL     1       9.281  -0.395  25.644  0.00  0.00    +0.098 A 
ENDBRANCH   4   6
BRANCH   1  15
ATOM     15  O   UNL     1       8.753   2.379  21.451  0.00  0.00    -0.389 OA
ATOM     16  H   UNL     1       9.006   1.891  20.647  0.00  0.00    +0.210 HD
ENDBRANCH   1  15
BRANCH   2  17
ATOM     17  C   UNL     1       8.672   2.838  24.721  0.00  0.00    +0.206 C 
BRANCH  17  18
ATOM     18  O   UNL     1       7.820   3.830  24.148  0.00  0.00    -0.284 OA
BRANCH  18  19
ATOM     19  P   UNL     1       8.624   5.302  23.727  0.00  0.00    +0.472 P 
ATOM     20  O   UNL     1       9.344   6.621  23.349  0.00  0.00    -0.228 OA
BRANCH  19  21
ATOM     21  O   UNL     1       7.330   6.053  24.397  0.00  0.00    -0.303 OA
ATOM     22  H   UNL     1       7.272   5.855  25.344  0.00  0.00    +0.222 HD
ENDBRANCH  19  21
BRANCH  19  23
ATOM     23  O   UNL     1       7.978   5.088  22.239  0.00  0.00    -0.303 OA
ATOM     24  H   UNL     1       8.483   4.455  21.705  0.00  0.00    +0.222 HD
ENDBRANCH  19  23
ENDBRANCH  18  19
ENDBRANCH  17  18
ENDBRANCH   2  17
TORSDOF 7
ENDMDL
MODEL 7
REMARK VINA RESULT:      -6.2      2.868      4.433
REMARK  Name = 
REMARK  7 active torsions:
REMARK  status: ('A' for Active; 'I' for Inactive)
REMARK    1  A    between atoms: O_1  and  C_2
REMARK    2  A    between atoms: C_5  and  N_16
REMARK    3  A    between atoms: C_8  and  C_10
REMARK    4  A    between atoms: C_10  and  O_11
REMARK    5  A    between atoms: O_11  and  P_12
REMARK    6  A    between atoms: P_12  and  O_13
REMARK    7  A    between atoms: P_12  and  O_14
REMARK                            x       y       z     vdW  Elec       q    Type
REMARK                         _______ _______ _______ _____ _____    ______ ____
ROOT
ATOM      1  C   UNL     1       8.954   1.582  22.599  0.00  0.00    +0.150 C 
ATOM      2  C   UNL     1       9.291   2.295  23.910  0.00  0.00    +0.175 C 
ATOM      3  O   UNL     1      10.262   1.465  24.591  0.00  0.00    -0.348 OA
ATOM      4  C   UNL     1      10.542   0.310  23.778  0.00  0.00    +0.226 C 
ATOM      5  C   UNL     1      10.188   0.752  22.361  0.00  0.00    +0.088 C 
ENDROOT
BRANCH   4   6
ATOM      6  N   UNL     1       9.784  -0.844  24.290  0.00  0.00    -0.274 N 
ATOM      7  C   UNL     1       9.925  -2.061  23.631  0.00  0.00    +0.331 A 
ATOM      8  O   UNL     1      10.616  -2.233  22.629  0.00  0.00    -0.246 OA
ATOM      9  N   UNL     1       9.225  -3.114  24.170  0.00  0.00    -0.275 N 
ATOM     10  H   UNL     1       9.318  -4.003  23.708  0.00  0.00    +0.173 HD
ATOM     11  C   UNL     1       8.498  -3.093  25.325  0.00  0.00    +0.254 A 
ATOM     12  O   UNL     1       7.945  -4.078  25.775  0.00  0.00    -0.268 OA
ATOM     13  C   UNL     1       8.442  -1.803  26.014  0.00  0.00    +0.088 A 
ATOM     14  C   UNL     1       9.096  -0.767  25.489  0.00  0.00    +0.098 A 
ENDBRANCH   4   6
BRANCH   1  15
ATOM     15  O   UNL     1       8.696   2.487  21.538  0.00  0.00    -0.389 OA
ATOM     16  H   UNL     1       7.746   2.703  21.551  0.00  0.00    +0.210 HD
ENDBRANCH   1  15
BRANCH   2  17
ATOM     17  C   UNL     1       8.039   2.483  24.775  0.00  0.00    +0.206 C 
BRANCH  17  18
ATOM     18  O   UNL     1       6.856   2.180  24.034  0.00  0.00    -0.284 OA
BRANCH  18  19
ATOM     19  P   UNL     1       5.722   1.184  24.878  0.00  0.00    +0.472 P 
ATOM     20  O   UNL     1       4.706   0.292  25.634  0.00  0.00    -0.228 OA
BRANCH  19  21
ATOM     21  O   UNL     1       6.073   0.048  23.750  0.00  0.00    -0.303 OA
ATOM     22  H   UNL     1       6.525  -0.708  24.154  0.00  0.00    +0.222 HD
ENDBRANCH  19  21
BRANCH  19  23
ATOM     23  O   UNL     1       4.575   1.969  24.016  0.00  0.00    -0.303 OA
ATOM     24  H   UNL     1       4.051   1.367  23.463  0.00  0.00    +0.222 HD
ENDBRANCH  19  23
ENDBRANCH  18  19
ENDBRANCH  17  18
ENDBRANCH   2  17
TORSDOF 7
ENDMDL
MODEL 8
REMARK VINA RESULT:      -6.2      2.398      3.848
REMARK  Name = 
REMARK  7 active torsions:
REMARK  status: ('A' for Active; 'I' for Inactive)
REMARK    1  A    between atoms: O_1  and  C_2
REMARK    2  A    between atoms: C_5  and  N_16
REMARK    3  A    between atoms: C_8  and  C_10
REMARK    4  A    between atoms: C_10  and  O_11
REMARK    5  A    between atoms: O_11  and  P_12
REMARK    6  A    between atoms: P_12  and  O_13
REMARK    7  A    between atoms: P_12  and  O_14
REMARK                            x       y       z     vdW  Elec       q    Type
REMARK                         _______ _______ _______ _____ _____    ______ ____
ROOT
ATOM      1  C   UNL     1       8.956  -4.955  24.978  0.00  0.00    +0.150 C 
ATOM      2  C   UNL     1       8.301  -3.684  24.435  0.00  0.00    +0.175 C 
ATOM      3  O   UNL     1       7.148  -3.427  25.270  0.00  0.00    -0.348 OA
ATOM      4  C   UNL     1       7.068  -4.447  26.284  0.00  0.00    +0.226 C 
ATOM      5  C   UNL     1       8.499  -4.961  26.413  0.00  0.00    +0.088 C 
ENDROOT
BRANCH   4   6
ATOM      6  N   UNL     1       6.066  -5.450  25.891  0.00  0.00    -0.274 N 
ATOM      7  C   UNL     1       5.682  -6.394  26.837  0.00  0.00    +0.331 A 
ATOM      8  O   UNL     1       6.146  -6.468  27.973  0.00  0.00    -0.246 OA
ATOM      9  N   UNL     1       4.717  -7.286  26.432  0.00  0.00    -0.275 N 
ATOM     10  H   UNL     1       4.426  -7.975  27.106  0.00  0.00    +0.173 HD
ATOM     11  C   UNL     1       4.049  -7.266  25.242  0.00  0.00    +0.254 A 
ATOM     12  O   UNL     1       3.166  -8.056  24.968  0.00  0.00    -0.268 OA
ATOM     13  C   UNL     1       4.445  -6.207  24.311  0.00  0.00    +0.088 A 
ATOM     14  C   UNL     1       5.396  -5.351  24.682  0.00  0.00    +0.098 A 
ENDBRANCH   4   6
BRANCH   1  15
ATOM     15  O   UNL     1      10.369  -4.933  24.860  0.00  0.00    -0.389 OA
ATOM     16  H   UNL     1      10.684  -5.855  24.835  0.00  0.00    +0.210 HD
ENDBRANCH   1  15
BRANCH   2  17
ATOM     17  C   UNL     1       7.881  -3.860  22.971  0.00  0.00    +0.206 C 
BRANCH  17  18
ATOM     18  O   UNL     1       8.199  -2.698  22.204  0.00  0.00    -0.284 OA
BRANCH  18  19
ATOM     19  P   UNL     1       9.370  -1.659  22.938  0.00  0.00    +0.472 P 
ATOM     20  O   UNL     1      10.419  -0.728  23.596  0.00  0.00    -0.228 OA
BRANCH  19  21
ATOM     21  O   UNL     1       8.277  -0.462  22.692  0.00  0.00    -0.303 OA
ATOM     22  H   UNL     1       7.460  -0.637  23.184  0.00  0.00    +0.222 HD
ENDBRANCH  19  21
BRANCH  19  23
ATOM     23  O   UNL     1      10.065  -1.597  21.459  0.00  0.00    -0.303 OA
ATOM     24  H   UNL     1      10.180  -0.687  21.142  0.00  0.00    +0.222 HD
ENDBRANCH  19  23
ENDBRANCH  18  19
ENDBRANCH  17  18
ENDBRANCH   2  17
TORSDOF 7
ENDMDL
MODEL 9
REMARK VINA RESULT:      -6.2      3.237      6.137
REMARK  Name = 
REMARK  7 active torsions:
REMARK  status: ('A' for Active; 'I' for Inactive)
REMARK    1  A    between atoms: O_1  and  C_2
REMARK    2  A    between atoms: C_5  and  N_16
REMARK    3  A    between atoms: C_8  and  C_10
REMARK    4  A    between atoms: C_10  and  O_11
REMARK    5  A    between atoms: O_11  and  P_12
REMARK    6  A    between atoms: P_12  and  O_13
REMARK    7  A    between atoms: P_12  and  O_14
REMARK                            x       y       z     vdW  Elec       q    Type
REMARK                         _______ _______ _______ _____ _____    ______ ____
ROOT
ATOM      1  C   UNL     1       8.116  -4.917  26.499  0.00  0.00    +0.150 C 
ATOM      2  C   UNL     1       7.718  -5.375  25.094  0.00  0.00    +0.175 C 
ATOM      3  O   UNL     1       8.698  -4.818  24.187  0.00  0.00    -0.348 OA
ATOM      4  C   UNL     1       9.664  -4.067  24.946  0.00  0.00    +0.226 C 
ATOM      5  C   UNL     1       9.594  -4.670  26.346  0.00  0.00    +0.088 C 
ENDROOT
BRANCH   4   6
ATOM      6  N   UNL     1       9.347  -2.632  24.857  0.00  0.00    -0.274 N 
ATOM      7  C   UNL     1       9.792  -1.934  23.739  0.00  0.00    +0.331 A 
ATOM      8  O   UNL     1      10.460  -2.428  22.833  0.00  0.00    -0.246 OA
ATOM      9  N   UNL     1       9.440  -0.606  23.686  0.00  0.00    -0.275 N 
ATOM     10  H   UNL     1       9.751  -0.087  22.882  0.00  0.00    +0.173 HD
ATOM     11  C   UNL     1       8.628   0.048  24.566  0.00  0.00    +0.254 A 
ATOM     12  O   UNL     1       8.313   1.215  24.431  0.00  0.00    -0.268 OA
ATOM     13  C   UNL     1       8.131  -0.753  25.686  0.00  0.00    +0.088 A 
ATOM     14  C   UNL     1       8.486  -2.036  25.763  0.00  0.00    +0.098 A 
ENDBRANCH   4   6
BRANCH   1  15
ATOM     15  O   UNL     1       7.829  -5.889  27.491  0.00  0.00    -0.389 OA
ATOM     16  H   UNL     1       8.144  -5.547  28.347  0.00  0.00    +0.210 HD
ENDBRANCH   1  15
BRANCH   2  17
ATOM     17  C   UNL     1       6.309  -4.890  24.733  0.00  0.00    +0.206 C 
BRANCH  17  18
ATOM     18  O   UNL     1       5.638  -5.841  23.904  0.00  0.00    -0.284 OA
BRANCH  18  19
ATOM     19  P   UNL     1       5.746  -5.509  22.210  0.00  0.00    +0.472 P 
ATOM     20  O   UNL     1       5.843  -5.211  20.693  0.00  0.00    -0.228 OA
BRANCH  19  21
ATOM     21  O   UNL     1       4.206  -6.063  22.132  0.00  0.00    -0.303 OA
ATOM     22  H   UNL     1       3.902  -6.106  21.213  0.00  0.00    +0.222 HD
ENDBRANCH  19  21
BRANCH  19  23
ATOM     23  O   UNL     1       6.484  -6.964  22.095  0.00  0.00    -0.303 OA
ATOM     24  H   UNL     1       6.990  -7.186  22.893  0.00  0.00    +0.222 HD
ENDBRANCH  19  23
ENDBRANCH  18  19
ENDBRANCH  17  18
ENDBRANCH   2  17
TORSDOF 7
ENDMDL
