MODEL 1
REMARK VINA RESULT:      -7.4      0.000      0.000
REMARK  Name = 
REMARK  12 active torsions:
REMARK  status: ('A' for Active; 'I' for Inactive)
REMARK    1  A    between atoms: C_1  and  O_2
REMARK    2  A    between atoms: O_2  and  C_3
REMARK    3  A    between atoms: N_8  and  C_9
REMARK    4  A    between atoms: C_9  and  C_10
REMARK    5  A    between atoms: C_10  and  C_11
REMARK    6  A    between atoms: C_11  and  C_12
REMARK    7  A    between atoms: C_12  and  C_13
REMARK    8  A    between atoms: C_13  and  C_14
REMARK    9  A    between atoms: C_14  and  C_15
REMARK   10  A    between atoms: C_15  and  C_16
REMARK   11  A    between atoms: C_16  and  N_17
REMARK   12  A    between atoms: C_33  and  O_35
REMARK                            x       y       z     vdW  Elec       q    Type
REMARK                         _______ _______ _______ _____ _____    ______ ____
ROOT
ATOM      1  C   UNL     1       9.027   4.008  24.497  0.00  0.00    +0.162 A 
ATOM      2  C   UNL     1       9.277   2.708  24.027  0.00  0.00    +0.167 A 
ATOM      3  C   UNL     1       8.664   1.552  24.539  0.00  0.00    +0.024 A 
ATOM      4  C   UNL     1       9.559   0.315  24.345  0.00  0.00    +0.061 C 
ATOM      5  C   UNL     1      10.266   0.998  23.065  0.00  0.00    +0.191 C 
ATOM      6  C   UNL     1       9.499   0.439  21.709  0.00  0.00    +0.081 C 
ATOM      7  C   UNL     1       9.650  -1.114  21.540  0.00  0.00    +0.141 C 
ATOM      8  C   UNL     1      10.393  -1.538  22.774  0.00  0.00    +0.001 C 
ATOM      9  C   UNL     1       9.567  -1.097  23.765  0.00  0.00    -0.013 C 
ATOM     10  C   UNL     1       9.842  -0.185  25.820  0.00  0.00    +0.091 C 
ATOM     11  C   UNL     1       8.699  -0.406  26.888  0.00  0.00    +0.351 C 
ATOM     12  N   UNL     1       7.280  -0.333  26.375  0.00  0.00    -0.234 N 
ATOM     13  C   UNL     1       6.795   0.747  25.898  0.00  0.00    +0.311 C 
ATOM     14  C   UNL     1       7.637   1.811  25.443  0.00  0.00    +0.046 A 
ATOM     15  C   UNL     1       7.332   3.085  25.933  0.00  0.00    +0.018 A 
ATOM     16  O   UNL     1      10.202   2.427  23.075  0.00  0.00    -0.484 OA
ATOM     17  C   UNL     1       8.068   4.173  25.493  0.00  0.00    +0.050 A 
ENDROOT
BRANCH   1  19
ATOM     18  C   UNL     1       8.904   6.164  23.463  0.00  0.00    +0.277 C 
ATOM     19  O   UNL     1       9.639   5.183  24.173  0.00  0.00    -0.491 OA
ENDBRANCH   1  19
BRANCH   7  20
ATOM     20  O   UNL     1       8.395  -1.809  21.619  0.00  0.00    -0.388 OA
ATOM     21  H   UNL     1       8.126  -1.973  20.691  0.00  0.00    +0.210 HD
ENDBRANCH   7  20
BRANCH  12  22
ATOM     22  C   UNL     1       6.440  -1.551  26.217  0.00  0.00    +0.350 C 
BRANCH  22  23
ATOM     23  C   UNL     1       6.007  -1.825  24.789  0.00  0.00    +0.072 C 
BRANCH  23  24
ATOM     24  C   UNL     1       4.661  -2.576  24.781  0.00  0.00    +0.006 C 
BRANCH  24  25
ATOM     25  C   UNL     1       4.080  -2.852  26.176  0.00  0.00    +0.000 C 
BRANCH  25  26
ATOM     26  C   UNL     1       2.911  -3.831  26.114  0.00  0.00    +0.000 C 
BRANCH  26  27
ATOM     27  C   UNL     1       2.838  -4.571  24.785  0.00  0.00    +0.002 C 
BRANCH  27  28
ATOM     28  C   UNL     1       2.625  -6.061  25.042  0.00  0.00    +0.019 C 
BRANCH  28  29
ATOM     29  C   UNL     1       3.794  -6.894  24.517  0.00  0.00    +0.117 C 
BRANCH  29  30
ATOM     30  N   UNL     1       5.033  -6.287  24.847  0.00  0.00    -0.234 N 
ATOM     31  C   UNL     1       5.883  -5.725  23.907  0.00  0.00    +0.254 C 
ATOM     32  O   UNL     1       5.732  -5.659  22.699  0.00  0.00    -0.270 OA
ATOM     33  C   UNL     1       7.064  -5.238  24.613  0.00  0.00    +0.049 A 
ATOM     34  C   UNL     1       6.894  -5.546  25.935  0.00  0.00    +0.049 A 
ATOM     35  C   UNL     1       7.840  -5.214  26.897  0.00  0.00    +0.014 A 
ATOM     36  C   UNL     1       8.996  -4.546  26.447  0.00  0.00    +0.001 A 
ATOM     37  C   UNL     1       9.165  -4.246  25.081  0.00  0.00    +0.001 A 
ATOM     38  C   UNL     1       8.192  -4.595  24.139  0.00  0.00    +0.014 A 
ATOM     39  C   UNL     1       5.633  -6.237  26.082  0.00  0.00    +0.254 C 
ATOM     40  O   UNL     1       5.226  -6.739  27.096  0.00  0.00    -0.270 OA
ENDBRANCH  29  30
ENDBRANCH  28  29
ENDBRANCH  27  28
ENDBRANCH  26  27
ENDBRANCH  25  26
ENDBRANCH  24  25
ENDBRANCH  23  24
ENDBRANCH  22  23
ENDBRANCH  12  22
TORSDOF 11
ENDMDL
MODEL 2
REMARK VINA RESULT:      -7.2      1.999      7.724
REMARK  Name = 
REMARK  12 active torsions:
REMARK  status: ('A' for Active; 'I' for Inactive)
REMARK    1  A    between atoms: C_1  and  O_2
REMARK    2  A    between atoms: O_2  and  C_3
REMARK    3  A    between atoms: N_8  and  C_9
REMARK    4  A    between atoms: C_9  and  C_10
REMARK    5  A    between atoms: C_10  and  C_11
REMARK    6  A    between atoms: C_11  and  C_12
REMARK    7  A    between atoms: C_12  and  C_13
REMARK    8  A    between atoms: C_13  and  C_14
REMARK    9  A    between atoms: C_14  and  C_15
REMARK   10  A    between atoms: C_15  and  C_16
REMARK   11  A    between atoms: C_16  and  N_17
REMARK   12  A    between atoms: C_33  and  O_35
REMARK                            x       y       z     vdW  Elec       q    Type
REMARK                         _______ _______ _______ _____ _____    ______ ____
ROOT
ATOM      1  C   UNL     1       4.738  -4.267  28.375  0.00  0.00    +0.162 A 
ATOM      2  C   UNL     1       5.819  -4.545  27.520  0.00  0.00    +0.167 A 
ATOM      3  C   UNL     1       5.824  -4.273  26.142  0.00  0.00    +0.024 A 
ATOM      4  C   UNL     1       6.762  -5.233  25.388  0.00  0.00    +0.061 C 
ATOM      5  C   UNL     1       7.659  -5.436  26.715  0.00  0.00    +0.191 C 
ATOM      6  C   UNL     1       8.939  -4.391  26.621  0.00  0.00    +0.081 C 
ATOM      7  C   UNL     1       9.865  -4.698  25.392  0.00  0.00    +0.141 C 
ATOM      8  C   UNL     1       9.161  -5.819  24.683  0.00  0.00    +0.001 C 
ATOM      9  C   UNL     1       7.943  -5.265  24.422  0.00  0.00    -0.013 C 
ATOM     10  C   UNL     1       5.801  -5.999  24.392  0.00  0.00    +0.091 C 
ATOM     11  C   UNL     1       4.777  -5.258  23.443  0.00  0.00    +0.351 C 
ATOM     12  N   UNL     1       4.906  -3.755  23.362  0.00  0.00    -0.234 N 
ATOM     13  C   UNL     1       4.696  -3.009  24.376  0.00  0.00    +0.311 C 
ATOM     14  C   UNL     1       4.730  -3.528  25.709  0.00  0.00    +0.046 A 
ATOM     15  C   UNL     1       3.635  -3.207  26.519  0.00  0.00    +0.018 A 
ATOM     16  O   UNL     1       6.945  -5.182  27.929  0.00  0.00    -0.484 OA
ATOM     17  C   UNL     1       3.624  -3.627  27.839  0.00  0.00    +0.050 A 
ENDROOT
BRANCH   1  19
ATOM     18  C   UNL     1       3.716  -5.680  30.016  0.00  0.00    +0.277 C 
ATOM     19  O   UNL     1       4.563  -4.592  29.688  0.00  0.00    -0.491 OA
ENDBRANCH   1  19
BRANCH   7  20
ATOM     20  O   UNL     1       9.894  -3.628  24.433  0.00  0.00    -0.388 OA
ATOM     21  H   UNL     1      10.789  -3.234  24.505  0.00  0.00    +0.210 HD
ENDBRANCH   7  20
BRANCH  12  22
ATOM     22  C   UNL     1       5.470  -3.081  22.161  0.00  0.00    +0.350 C 
BRANCH  22  23
ATOM     23  C   UNL     1       6.985  -3.112  22.087  0.00  0.00    +0.072 C 
BRANCH  23  24
ATOM     24  C   UNL     1       7.565  -1.775  22.590  0.00  0.00    +0.006 C 
BRANCH  24  25
ATOM     25  C   UNL     1       8.851  -1.332  21.875  0.00  0.00    +0.000 C 
BRANCH  25  26
ATOM     26  C   UNL     1       8.818   0.154  21.530  0.00  0.00    +0.000 C 
BRANCH  26  27
ATOM     27  C   UNL     1      10.133   0.856  21.843  0.00  0.00    +0.002 C 
BRANCH  27  28
ATOM     28  C   UNL     1       9.849   2.174  22.560  0.00  0.00    +0.019 C 
BRANCH  28  29
ATOM     29  C   UNL     1      10.278   2.120  24.026  0.00  0.00    +0.117 C 
BRANCH  29  30
ATOM     30  N   UNL     1       9.224   1.630  24.840  0.00  0.00    -0.234 N 
ATOM     31  C   UNL     1       9.137   0.314  25.267  0.00  0.00    +0.254 C 
ATOM     32  O   UNL     1       9.901  -0.607  25.030  0.00  0.00    -0.270 OA
ATOM     33  C   UNL     1       7.911   0.181  26.047  0.00  0.00    +0.049 A 
ATOM     34  C   UNL     1       7.298   1.405  26.039  0.00  0.00    +0.049 A 
ATOM     35  C   UNL     1       6.097   1.633  26.700  0.00  0.00    +0.014 A 
ATOM     36  C   UNL     1       5.530   0.537  27.380  0.00  0.00    +0.001 A 
ATOM     37  C   UNL     1       6.164  -0.720  27.371  0.00  0.00    +0.001 A 
ATOM     38  C   UNL     1       7.373  -0.914  26.695  0.00  0.00    +0.014 A 
ATOM     39  C   UNL     1       8.104   2.311  25.252  0.00  0.00    +0.254 C 
ATOM     40  O   UNL     1       7.801   3.436  24.955  0.00  0.00    -0.270 OA
ENDBRANCH  29  30
ENDBRANCH  28  29
ENDBRANCH  27  28
ENDBRANCH  26  27
ENDBRANCH  25  26
ENDBRANCH  24  25
ENDBRANCH  23  24
ENDBRANCH  22  23
ENDBRANCH  12  22
TORSDOF 11
ENDMDL
MODEL 3
REMARK VINA RESULT:      -7.1      2.075      5.783
REMARK  Name = 
REMARK  12 active torsions:
REMARK  status: ('A' for Active; 'I' for Inactive)
REMARK    1  A    between atoms: C_1  and  O_2
REMARK    2  A    between atoms: O_2  and  C_3
REMARK    3  A    between atoms: N_8  and  C_9
REMARK    4  A    between atoms: C_9  and  C_10
REMARK    5  A    between atoms: C_10  and  C_11
REMARK    6  A    between atoms: C_11  and  C_12
REMARK    7  A    between atoms: C_12  and  C_13
REMARK    8  A    between atoms: C_13  and  C_14
REMARK    9  A    between atoms: C_14  and  C_15
REMARK   10  A    between atoms: C_15  and  C_16
REMARK   11  A    between atoms: C_16  and  N_17
REMARK   12  A    between atoms: C_33  and  O_35
REMARK                            x       y       z     vdW  Elec       q    Type
REMARK                         _______ _______ _______ _____ _____    ______ ____
ROOT
ATOM      1  C   UNL     1       9.457  -0.799  24.242  0.00  0.00    +0.162 A 
ATOM      2  C   UNL     1       8.706  -1.891  23.777  0.00  0.00    +0.167 A 
ATOM      3  C   UNL     1       8.019  -2.788  24.612  0.00  0.00    +0.024 A 
ATOM      4  C   UNL     1       7.877  -4.170  23.949  0.00  0.00    +0.061 C 
ATOM      5  C   UNL     1       7.955  -3.500  22.482  0.00  0.00    +0.191 C 
ATOM      6  C   UNL     1       6.405  -3.279  21.947  0.00  0.00    +0.081 C 
ATOM      7  C   UNL     1       5.634  -4.637  21.789  0.00  0.00    +0.141 C 
ATOM      8  C   UNL     1       6.609  -5.663  22.289  0.00  0.00    +0.001 C 
ATOM      9  C   UNL     1       6.850  -5.228  23.558  0.00  0.00    -0.013 C 
ATOM     10  C   UNL     1       8.650  -5.142  24.929  0.00  0.00    +0.091 C 
ATOM     11  C   UNL     1       8.397  -5.173  26.488  0.00  0.00    +0.351 C 
ATOM     12  N   UNL     1       7.212  -4.380  26.990  0.00  0.00    -0.234 N 
ATOM     13  C   UNL     1       7.162  -3.109  26.882  0.00  0.00    +0.311 C 
ATOM     14  C   UNL     1       7.987  -2.403  25.949  0.00  0.00    +0.046 A 
ATOM     15  C   UNL     1       8.700  -1.316  26.465  0.00  0.00    +0.018 A 
ATOM     16  O   UNL     1       8.632  -2.239  22.468  0.00  0.00    -0.484 OA
ATOM     17  C   UNL     1       9.476  -0.549  25.612  0.00  0.00    +0.050 A 
ENDROOT
BRANCH   1  19
ATOM     18  C   UNL     1      10.973   1.055  24.267  0.00  0.00    +0.277 C 
ATOM     19  O   UNL     1      10.261   0.060  23.551  0.00  0.00    -0.491 OA
ENDBRANCH   1  19
BRANCH   7  20
ATOM     20  O   UNL     1       4.509  -4.747  22.677  0.00  0.00    -0.388 OA
ATOM     21  H   UNL     1       4.806  -4.357  23.526  0.00  0.00    +0.210 HD
ENDBRANCH   7  20
BRANCH  12  22
ATOM     22  C   UNL     1       5.965  -5.045  27.454  0.00  0.00    +0.350 C 
BRANCH  22  23
ATOM     23  C   UNL     1       4.823  -4.088  27.743  0.00  0.00    +0.072 C 
BRANCH  23  24
ATOM     24  C   UNL     1       3.950  -3.914  26.485  0.00  0.00    +0.006 C 
BRANCH  24  25
ATOM     25  C   UNL     1       3.175  -2.588  26.429  0.00  0.00    +0.000 C 
BRANCH  25  26
ATOM     26  C   UNL     1       3.743  -1.564  27.408  0.00  0.00    +0.000 C 
BRANCH  26  27
ATOM     27  C   UNL     1       2.962  -0.256  27.404  0.00  0.00    +0.002 C 
BRANCH  27  28
ATOM     28  C   UNL     1       3.937   0.919  27.381  0.00  0.00    +0.019 C 
BRANCH  28  29
ATOM     29  C   UNL     1       5.384   0.445  27.246  0.00  0.00    +0.117 C 
BRANCH  29  30
ATOM     30  N   UNL     1       5.995   1.014  26.099  0.00  0.00    -0.234 N 
ATOM     31  C   UNL     1       5.920   0.450  24.835  0.00  0.00    +0.254 C 
ATOM     32  O   UNL     1       5.355  -0.578  24.500  0.00  0.00    -0.270 OA
ATOM     33  C   UNL     1       6.693   1.292  23.927  0.00  0.00    +0.049 A 
ATOM     34  C   UNL     1       7.221   2.307  24.677  0.00  0.00    +0.049 A 
ATOM     35  C   UNL     1       8.014   3.302  24.118  0.00  0.00    +0.014 A 
ATOM     36  C   UNL     1       8.258   3.215  22.733  0.00  0.00    +0.001 A 
ATOM     37  C   UNL     1       7.720   2.158  21.975  0.00  0.00    +0.001 A 
ATOM     38  C   UNL     1       6.925   1.173  22.570  0.00  0.00    +0.014 A 
ATOM     39  C   UNL     1       6.812   2.117  26.050  0.00  0.00    +0.254 C 
ATOM     40  O   UNL     1       7.187   2.772  26.988  0.00  0.00    -0.270 OA
ENDBRANCH  29  30
ENDBRANCH  28  29
ENDBRANCH  27  28
ENDBRANCH  26  27
ENDBRANCH  25  26
ENDBRANCH  24  25
ENDBRANCH  23  24
ENDBRANCH  22  23
ENDBRANCH  12  22
TORSDOF 11
ENDMDL
MODEL 4
REMARK VINA RESULT:      -6.8      2.048      4.120
REMARK  Name = 
REMARK  12 active torsions:
REMARK  status: ('A' for Active; 'I' for Inactive)
REMARK    1  A    between atoms: C_1  and  O_2
REMARK    2  A    between atoms: O_2  and  C_3
REMARK    3  A    between atoms: N_8  and  C_9
REMARK    4  A    between atoms: C_9  and  C_10
REMARK    5  A    between atoms: C_10  and  C_11
REMARK    6  A    between atoms: C_11  and  C_12
REMARK    7  A    between atoms: C_12  and  C_13
REMARK    8  A    between atoms: C_13  and  C_14
REMARK    9  A    between atoms: C_14  and  C_15
REMARK   10  A    between atoms: C_15  and  C_16
REMARK   11  A    between atoms: C_16  and  N_17
REMARK   12  A    between atoms: C_33  and  O_35
REMARK                            x       y       z     vdW  Elec       q    Type
REMARK                         _______ _______ _______ _____ _____    ______ ____
ROOT
ATOM      1  C   UNL     1      10.952   3.693  23.454  0.00  0.00    +0.162 A 
ATOM      2  C   UNL     1       9.602   4.047  23.620  0.00  0.00    +0.167 A 
ATOM      3  C   UNL     1       8.591   3.145  23.992  0.00  0.00    +0.024 A 
ATOM      4  C   UNL     1       7.218   3.598  23.462  0.00  0.00    +0.061 C 
ATOM      5  C   UNL     1       7.702   5.139  23.458  0.00  0.00    +0.191 C 
ATOM      6  C   UNL     1       7.189   5.830  24.871  0.00  0.00    +0.081 C 
ATOM      7  C   UNL     1       5.624   5.843  24.990  0.00  0.00    +0.141 C 
ATOM      8  C   UNL     1       5.165   5.111  23.762  0.00  0.00    +0.001 C 
ATOM      9  C   UNL     1       5.790   3.908  23.901  0.00  0.00    -0.013 C 
ATOM     10  C   UNL     1       6.772   2.419  22.506  0.00  0.00    +0.091 C 
ATOM     11  C   UNL     1       6.799   0.900  22.942  0.00  0.00    +0.351 C 
ATOM     12  N   UNL     1       7.063   0.628  24.404  0.00  0.00    -0.234 N 
ATOM     13  C   UNL     1       8.174   0.934  24.953  0.00  0.00    +0.311 C 
ATOM     14  C   UNL     1       9.062   1.890  24.366  0.00  0.00    +0.046 A 
ATOM     15  C   UNL     1      10.396   1.488  24.239  0.00  0.00    +0.018 A 
ATOM     16  O   UNL     1       9.122   5.289  23.361  0.00  0.00    -0.484 OA
ATOM     17  C   UNL     1      11.326   2.381  23.732  0.00  0.00    +0.050 A 
ENDROOT
BRANCH   1  19
ATOM     18  C   UNL     1      12.436   5.551  23.738  0.00  0.00    +0.277 C 
ATOM     19  O   UNL     1      11.994   4.436  22.983  0.00  0.00    -0.491 OA
ENDBRANCH   1  19
BRANCH   7  20
ATOM     20  O   UNL     1       5.140   5.047  26.084  0.00  0.00    -0.388 OA
ATOM     21  H   UNL     1       4.702   4.273  25.672  0.00  0.00    +0.210 HD
ENDBRANCH   7  20
BRANCH  12  22
ATOM     22  C   UNL     1       5.984   0.175  25.323  0.00  0.00    +0.350 C 
BRANCH  22  23
ATOM     23  C   UNL     1       6.113  -1.272  25.765  0.00  0.00    +0.072 C 
BRANCH  23  24
ATOM     24  C   UNL     1       5.048  -2.135  25.059  0.00  0.00    +0.006 C 
BRANCH  24  25
ATOM     25  C   UNL     1       4.283  -3.087  25.992  0.00  0.00    +0.000 C 
BRANCH  25  26
ATOM     26  C   UNL     1       3.185  -3.840  25.248  0.00  0.00    +0.000 C 
BRANCH  26  27
ATOM     27  C   UNL     1       3.601  -5.254  24.865  0.00  0.00    +0.002 C 
BRANCH  27  28
ATOM     28  C   UNL     1       3.830  -5.327  23.357  0.00  0.00    +0.019 C 
BRANCH  28  29
ATOM     29  C   UNL     1       5.160  -6.002  23.023  0.00  0.00    +0.117 C 
BRANCH  29  30
ATOM     30  N   UNL     1       6.224  -5.063  23.062  0.00  0.00    -0.234 N 
ATOM     31  C   UNL     1       7.126  -4.975  24.111  0.00  0.00    +0.254 C 
ATOM     32  O   UNL     1       7.163  -5.642  25.131  0.00  0.00    -0.270 OA
ATOM     33  C   UNL     1       8.044  -3.880  23.815  0.00  0.00    +0.049 A 
ATOM     34  C   UNL     1       7.648  -3.338  22.622  0.00  0.00    +0.049 A 
ATOM     35  C   UNL     1       8.316  -2.269  22.039  0.00  0.00    +0.014 A 
ATOM     36  C   UNL     1       9.427  -1.758  22.739  0.00  0.00    +0.001 A 
ATOM     37  C   UNL     1       9.817  -2.315  23.972  0.00  0.00    +0.001 A 
ATOM     38  C   UNL     1       9.121  -3.392  24.530  0.00  0.00    +0.014 A 
ATOM     39  C   UNL     1       6.482  -4.058  22.162  0.00  0.00    +0.254 C 
ATOM     40  O   UNL     1       5.819  -3.772  21.199  0.00  0.00    -0.270 OA
ENDBRANCH  29  30
ENDBRANCH  28  29
ENDBRANCH  27  28
ENDBRANCH  26  27
ENDBRANCH  25  26
ENDBRANCH  24  25
ENDBRANCH  23  24
ENDBRANCH  22  23
ENDBRANCH  12  22
TORSDOF 11
ENDMDL
MODEL 5
REMARK VINA RESULT:      -6.7      2.244      6.184
REMARK  Name = 
REMARK  12 active torsions:
REMARK  status: ('A' for Active; 'I' for Inactive)
REMARK    1  A    between atoms: C_1  and  O_2
REMARK    2  A    between atoms: O_2  and  C_3
REMARK    3  A    between atoms: N_8  and  C_9
REMARK    4  A    between atoms: C_9  and  C_10
REMARK    5  A    between atoms: C_10  and  C_11
REMARK    6  A    between atoms: C_11  and  C_12
REMARK    7  A    between atoms: C_12  and  C_13
REMARK    8  A    between atoms: C_13  and  C_14
REMARK    9  A    between atoms: C_14  and  C_15
REMARK   10  A    between atoms: C_15  and  C_16
REMARK   11  A    between atoms: C_16  and  N_17
REMARK   12  A    between atoms: C_33  and  O_35
REMARK                            x       y       z     vdW  Elec       q    Type
REMARK                         _______ _______ _______ _____ _____    ______ ____
ROOT
ATOM      1  C   UNL     1       9.164  -0.565  24.205  0.00  0.00    +0.162 A 
ATOM      2  C   UNL     1       8.524  -1.720  23.722  0.00  0.00    +0.167 A 
ATOM      3  C   UNL     1       7.986  -2.724  24.543  0.00  0.00    +0.024 A 
ATOM      4  C   UNL     1       7.976  -4.086  23.824  0.00  0.00    +0.061 C 
ATOM      5  C   UNL     1       7.907  -3.352  22.387  0.00  0.00    +0.191 C 
ATOM      6  C   UNL     1       6.319  -3.295  21.927  0.00  0.00    +0.081 C 
ATOM      7  C   UNL     1       5.705  -4.727  21.739  0.00  0.00    +0.141 C 
ATOM      8  C   UNL     1       6.815  -5.650  22.151  0.00  0.00    +0.001 C 
ATOM      9  C   UNL     1       7.062  -5.242  23.427  0.00  0.00    -0.013 C 
ATOM     10  C   UNL     1       8.901  -4.998  24.726  0.00  0.00    +0.091 C 
ATOM     11  C   UNL     1       8.726  -5.122  26.291  0.00  0.00    +0.351 C 
ATOM     12  N   UNL     1       7.481  -4.497  26.877  0.00  0.00    -0.234 N 
ATOM     13  C   UNL     1       7.278  -3.237  26.829  0.00  0.00    +0.311 C 
ATOM     14  C   UNL     1       7.971  -2.401  25.897  0.00  0.00    +0.046 A 
ATOM     15  C   UNL     1       8.576  -1.258  26.432  0.00  0.00    +0.018 A 
ATOM     16  O   UNL     1       8.431  -2.020  22.403  0.00  0.00    -0.484 OA
ATOM     17  C   UNL     1       9.216  -0.371  25.583  0.00  0.00    +0.050 A 
ENDROOT
BRANCH   1  19
ATOM     18  C   UNL     1      10.963   1.012  24.122  0.00  0.00    +0.277 C 
ATOM     19  O   UNL     1       9.829   0.410  23.522  0.00  0.00    -0.491 OA
ENDBRANCH   1  19
BRANCH   7  20
ATOM     20  O   UNL     1       4.643  -5.006  22.666  0.00  0.00    -0.388 OA
ATOM     21  H   UNL     1       3.846  -5.158  22.116  0.00  0.00    +0.210 HD
ENDBRANCH   7  20
BRANCH  12  22
ATOM     22  C   UNL     1       6.343  -5.323  27.361  0.00  0.00    +0.350 C 
BRANCH  22  23
ATOM     23  C   UNL     1       5.072  -4.535  27.623  0.00  0.00    +0.072 C 
BRANCH  23  24
ATOM     24  C   UNL     1       4.097  -4.699  26.439  0.00  0.00    +0.006 C 
BRANCH  24  25
ATOM     25  C   UNL     1       3.943  -3.443  25.567  0.00  0.00    +0.000 C 
BRANCH  25  26
ATOM     26  C   UNL     1       3.703  -2.197  26.413  0.00  0.00    +0.000 C 
BRANCH  26  27
ATOM     27  C   UNL     1       4.597  -1.033  26.006  0.00  0.00    +0.002 C 
BRANCH  27  28
ATOM     28  C   UNL     1       4.859  -0.143  27.219  0.00  0.00    +0.019 C 
BRANCH  28  29
ATOM     29  C   UNL     1       4.434   1.301  26.958  0.00  0.00    +0.117 C 
BRANCH  29  30
ATOM     30  N   UNL     1       5.307   1.922  26.027  0.00  0.00    -0.234 N 
ATOM     31  C   UNL     1       6.614   2.274  26.323  0.00  0.00    +0.254 C 
ATOM     32  O   UNL     1       7.214   2.128  27.375  0.00  0.00    -0.270 OA
ATOM     33  C   UNL     1       7.180   2.916  25.141  0.00  0.00    +0.049 A 
ATOM     34  C   UNL     1       6.192   2.950  24.195  0.00  0.00    +0.049 A 
ATOM     35  C   UNL     1       6.397   3.494  22.933  0.00  0.00    +0.014 A 
ATOM     36  C   UNL     1       7.677   4.021  22.670  0.00  0.00    +0.001 A 
ATOM     37  C   UNL     1       8.682   3.992  23.657  0.00  0.00    +0.001 A 
ATOM     38  C   UNL     1       8.440   3.435  24.917  0.00  0.00    +0.014 A 
ATOM     39  C   UNL     1       5.001   2.356  24.760  0.00  0.00    +0.254 C 
ATOM     40  O   UNL     1       3.920   2.321  24.233  0.00  0.00    -0.270 OA
ENDBRANCH  29  30
ENDBRANCH  28  29
ENDBRANCH  27  28
ENDBRANCH  26  27
ENDBRANCH  25  26
ENDBRANCH  24  25
ENDBRANCH  23  24
ENDBRANCH  22  23
ENDBRANCH  12  22
TORSDOF 11
ENDMDL
MODEL 6
REMARK VINA RESULT:      -6.7      1.426      2.027
REMARK  Name = 
REMARK  12 active torsions:
REMARK  status: ('A' for Active; 'I' for Inactive)
REMARK    1  A    between atoms: C_1  and  O_2
REMARK    2  A    between atoms: O_2  and  C_3
REMARK    3  A    between atoms: N_8  and  C_9
REMARK    4  A    between atoms: C_9  and  C_10
REMARK    5  A    between atoms: C_10  and  C_11
REMARK    6  A    between atoms: C_11  and  C_12
REMARK    7  A    between atoms: C_12  and  C_13
REMARK    8  A    between atoms: C_13  and  C_14
REMARK    9  A    between atoms: C_14  and  C_15
REMARK   10  A    between atoms: C_15  and  C_16
REMARK   11  A    between atoms: C_16  and  N_17
REMARK   12  A    between atoms: C_33  and  O_35
REMARK                            x       y       z     vdW  Elec       q    Type
REMARK                         _______ _______ _______ _____ _____    ______ ____
ROOT
ATOM      1  C   UNL     1       8.760   3.989  24.530  0.00  0.00    +0.162 A 
ATOM      2  C   UNL     1       9.083   2.667  24.176  0.00  0.00    +0.167 A 
ATOM      3  C   UNL     1       8.300   1.549  24.506  0.00  0.00    +0.024 A 
ATOM      4  C   UNL     1       9.159   0.276  24.605  0.00  0.00    +0.061 C 
ATOM      5  C   UNL     1      10.239   0.897  23.578  0.00  0.00    +0.191 C 
ATOM      6  C   UNL     1       9.880   0.327  22.067  0.00  0.00    +0.081 C 
ATOM      7  C   UNL     1      10.010  -1.235  21.976  0.00  0.00    +0.141 C 
ATOM      8  C   UNL     1      10.340  -1.649  23.382  0.00  0.00    +0.001 C 
ATOM      9  C   UNL     1       9.279  -1.151  24.078  0.00  0.00    -0.013 C 
ATOM     10  C   UNL     1       8.977  -0.190  26.106  0.00  0.00    +0.091 C 
ATOM     11  C   UNL     1       7.562  -0.341  26.795  0.00  0.00    +0.351 C 
ATOM     12  N   UNL     1       6.360  -0.233  25.886  0.00  0.00    -0.234 N 
ATOM     13  C   UNL     1       6.082   0.848  25.268  0.00  0.00    +0.311 C 
ATOM     14  C   UNL     1       7.064   1.869  25.063  0.00  0.00    +0.046 A 
ATOM     15  C   UNL     1       6.682   3.167  25.419  0.00  0.00    +0.018 A 
ATOM     16  O   UNL     1      10.234   2.328  23.543  0.00  0.00    -0.484 OA
ATOM     17  C   UNL     1       7.559   4.216  25.197  0.00  0.00    +0.050 A 
ENDROOT
BRANCH   1  19
ATOM     18  C   UNL     1       9.446   6.109  25.405  0.00  0.00    +0.277 C 
ATOM     19  O   UNL     1       9.489   5.132  24.380  0.00  0.00    -0.491 OA
ENDBRANCH   1  19
BRANCH   7  20
ATOM     20  O   UNL     1       8.759  -1.884  21.695  0.00  0.00    -0.388 OA
ATOM     21  H   UNL     1       8.756  -2.697  22.243  0.00  0.00    +0.210 HD
ENDBRANCH   7  20
BRANCH  12  22
ATOM     22  C   UNL     1       5.554  -1.426  25.509  0.00  0.00    +0.350 C 
BRANCH  22  23
ATOM     23  C   UNL     1       5.108  -2.270  26.688  0.00  0.00    +0.072 C 
BRANCH  23  24
ATOM     24  C   UNL     1       3.725  -2.889  26.401  0.00  0.00    +0.006 C 
BRANCH  24  25
ATOM     25  C   UNL     1       3.091  -3.610  27.600  0.00  0.00    +0.000 C 
BRANCH  25  26
ATOM     26  C   UNL     1       3.926  -3.435  28.866  0.00  0.00    +0.000 C 
BRANCH  26  27
ATOM     27  C   UNL     1       4.185  -4.754  29.582  0.00  0.00    +0.002 C 
BRANCH  27  28
ATOM     28  C   UNL     1       3.664  -5.909  28.729  0.00  0.00    +0.019 C 
BRANCH  28  29
ATOM     29  C   UNL     1       4.802  -6.806  28.244  0.00  0.00    +0.117 C 
BRANCH  29  30
ATOM     30  N   UNL     1       5.367  -6.299  27.046  0.00  0.00    -0.234 N 
ATOM     31  C   UNL     1       4.848  -6.558  25.787  0.00  0.00    +0.254 C 
ATOM     32  O   UNL     1       3.874  -7.233  25.498  0.00  0.00    -0.270 OA
ATOM     33  C   UNL     1       5.711  -5.903  24.808  0.00  0.00    +0.049 A 
ATOM     34  C   UNL     1       6.722  -5.303  25.506  0.00  0.00    +0.049 A 
ATOM     35  C   UNL     1       7.726  -4.579  24.875  0.00  0.00    +0.014 A 
ATOM     36  C   UNL     1       7.660  -4.495  23.470  0.00  0.00    +0.001 A 
ATOM     37  C   UNL     1       6.621  -5.129  22.762  0.00  0.00    +0.001 A 
ATOM     38  C   UNL     1       5.626  -5.850  23.430  0.00  0.00    +0.014 A 
ATOM     39  C   UNL     1       6.529  -5.577  26.912  0.00  0.00    +0.254 C 
ATOM     40  O   UNL     1       7.295  -5.285  27.793  0.00  0.00    -0.270 OA
ENDBRANCH  29  30
ENDBRANCH  28  29
ENDBRANCH  27  28
ENDBRANCH  26  27
ENDBRANCH  25  26
ENDBRANCH  24  25
ENDBRANCH  23  24
ENDBRANCH  22  23
ENDBRANCH  12  22
TORSDOF 11
ENDMDL
MODEL 7
REMARK VINA RESULT:      -6.6      2.095      8.897
REMARK  Name = 
REMARK  12 active torsions:
REMARK  status: ('A' for Active; 'I' for Inactive)
REMARK    1  A    between atoms: C_1  and  O_2
REMARK    2  A    between atoms: O_2  and  C_3
REMARK    3  A    between atoms: N_8  and  C_9
REMARK    4  A    between atoms: C_9  and  C_10
REMARK    5  A    between atoms: C_10  and  C_11
REMARK    6  A    between atoms: C_11  and  C_12
REMARK    7  A    between atoms: C_12  and  C_13
REMARK    8  A    between atoms: C_13  and  C_14
REMARK    9  A    between atoms: C_14  and  C_15
REMARK   10  A    between atoms: C_15  and  C_16
REMARK   11  A    between atoms: C_16  and  N_17
REMARK   12  A    between atoms: C_33  and  O_35
REMARK                            x       y       z     vdW  Elec       q    Type
REMARK                         _______ _______ _______ _____ _____    ______ ____
ROOT
ATOM      1  C   UNL     1       3.047  -6.607  26.299  0.00  0.00    +0.162 A 
ATOM      2  C   UNL     1       3.785  -5.998  25.270  0.00  0.00    +0.167 A 
ATOM      3  C   UNL     1       5.084  -5.486  25.429  0.00  0.00    +0.024 A 
ATOM      4  C   UNL     1       5.360  -4.347  24.430  0.00  0.00    +0.061 C 
ATOM      5  C   UNL     1       4.280  -4.959  23.398  0.00  0.00    +0.191 C 
ATOM      6  C   UNL     1       5.102  -5.885  22.300  0.00  0.00    +0.081 C 
ATOM      7  C   UNL     1       6.115  -5.038  21.452  0.00  0.00    +0.141 C 
ATOM      8  C   UNL     1       6.015  -3.662  22.044  0.00  0.00    +0.001 C 
ATOM      9  C   UNL     1       6.335  -3.892  23.349  0.00  0.00    -0.013 C 
ATOM     10  C   UNL     1       5.647  -3.095  25.353  0.00  0.00    +0.091 C 
ATOM     11  C   UNL     1       6.671  -3.127  26.556  0.00  0.00    +0.351 C 
ATOM     12  N   UNL     1       7.544  -4.356  26.658  0.00  0.00    -0.234 N 
ATOM     13  C   UNL     1       7.051  -5.511  26.884  0.00  0.00    +0.311 C 
ATOM     14  C   UNL     1       5.667  -5.795  26.655  0.00  0.00    +0.046 A 
ATOM     15  C   UNL     1       4.987  -6.415  27.708  0.00  0.00    +0.018 A 
ATOM     16  O   UNL     1       3.284  -5.770  24.031  0.00  0.00    -0.484 OA
ATOM     17  C   UNL     1       3.659  -6.771  27.539  0.00  0.00    +0.050 A 
ENDROOT
BRANCH   1  19
ATOM     18  C   UNL     1       1.444  -8.317  25.807  0.00  0.00    +0.277 C 
ATOM     19  O   UNL     1       1.749  -7.026  26.307  0.00  0.00    -0.491 OA
ENDBRANCH   1  19
BRANCH   7  20
ATOM     20  O   UNL     1       7.483  -5.424  21.668  0.00  0.00    -0.388 OA
ATOM     21  H   UNL     1       7.465  -6.037  22.433  0.00  0.00    +0.210 HD
ENDBRANCH   7  20
BRANCH  12  22
ATOM     22  C   UNL     1       8.990  -4.321  26.310  0.00  0.00    +0.350 C 
BRANCH  22  23
ATOM     23  C   UNL     1       9.268  -4.059  24.841  0.00  0.00    +0.072 C 
BRANCH  23  24
ATOM     24  C   UNL     1       9.584  -2.566  24.622  0.00  0.00    +0.006 C 
BRANCH  24  25
ATOM     25  C   UNL     1       9.486  -2.104  23.160  0.00  0.00    +0.000 C 
BRANCH  25  26
ATOM     26  C   UNL     1       8.497  -0.954  22.999  0.00  0.00    +0.000 C 
BRANCH  26  27
ATOM     27  C   UNL     1       8.066  -0.362  24.335  0.00  0.00    +0.002 C 
BRANCH  27  28
ATOM     28  C   UNL     1       7.183   0.860  24.090  0.00  0.00    +0.019 C 
BRANCH  28  29
ATOM     29  C   UNL     1       7.591   1.601  22.817  0.00  0.00    +0.117 C 
BRANCH  29  30
ATOM     30  N   UNL     1       8.511   2.640  23.113  0.00  0.00    -0.234 N 
ATOM     31  C   UNL     1       9.871   2.552  22.858  0.00  0.00    +0.254 C 
ATOM     32  O   UNL     1      10.487   1.620  22.369  0.00  0.00    -0.270 OA
ATOM     33  C   UNL     1      10.491   3.788  23.326  0.00  0.00    +0.049 A 
ATOM     34  C   UNL     1       9.494   4.555  23.864  0.00  0.00    +0.049 A 
ATOM     35  C   UNL     1       9.739   5.813  24.401  0.00  0.00    +0.014 A 
ATOM     36  C   UNL     1      11.074   6.264  24.373  0.00  0.00    +0.001 A 
ATOM     37  C   UNL     1      12.093   5.459  23.829  0.00  0.00    +0.001 A 
ATOM     38  C   UNL     1      11.810   4.198  23.296  0.00  0.00    +0.014 A 
ATOM     39  C   UNL     1       8.252   3.822  23.762  0.00  0.00    +0.254 C 
ATOM     40  O   UNL     1       7.199   4.164  24.234  0.00  0.00    -0.270 OA
ENDBRANCH  29  30
ENDBRANCH  28  29
ENDBRANCH  27  28
ENDBRANCH  26  27
ENDBRANCH  25  26
ENDBRANCH  24  25
ENDBRANCH  23  24
ENDBRANCH  22  23
ENDBRANCH  12  22
TORSDOF 11
ENDMDL
MODEL 8
REMARK VINA RESULT:      -6.4      2.182      7.904
REMARK  Name = 
REMARK  12 active torsions:
REMARK  status: ('A' for Active; 'I' for Inactive)
REMARK    1  A    between atoms: C_1  and  O_2
REMARK    2  A    between atoms: O_2  and  C_3
REMARK    3  A    between atoms: N_8  and  C_9
REMARK    4  A    between atoms: C_9  and  C_10
REMARK    5  A    between atoms: C_10  and  C_11
REMARK    6  A    between atoms: C_11  and  C_12
REMARK    7  A    between atoms: C_12  and  C_13
REMARK    8  A    between atoms: C_13  and  C_14
REMARK    9  A    between atoms: C_14  and  C_15
REMARK   10  A    between atoms: C_15  and  C_16
REMARK   11  A    between atoms: C_16  and  N_17
REMARK   12  A    between atoms: C_33  and  O_35
REMARK                            x       y       z     vdW  Elec       q    Type
REMARK                         _______ _______ _______ _____ _____    ______ ____
ROOT
ATOM      1  C   UNL     1       2.200  -5.282  25.925  0.00  0.00    +0.162 A 
ATOM      2  C   UNL     1       3.193  -5.059  24.956  0.00  0.00    +0.167 A 
ATOM      3  C   UNL     1       4.511  -4.676  25.253  0.00  0.00    +0.024 A 
ATOM      4  C   UNL     1       5.137  -3.885  24.090  0.00  0.00    +0.061 C 
ATOM      5  C   UNL     1       4.164  -4.623  23.034  0.00  0.00    +0.191 C 
ATOM      6  C   UNL     1       4.999  -5.897  22.387  0.00  0.00    +0.081 C 
ATOM      7  C   UNL     1       6.268  -5.430  21.589  0.00  0.00    +0.141 C 
ATOM      8  C   UNL     1       6.295  -3.943  21.799  0.00  0.00    +0.001 C 
ATOM      9  C   UNL     1       6.345  -3.850  23.158  0.00  0.00    -0.013 C 
ATOM     10  C   UNL     1       5.463  -2.472  24.723  0.00  0.00    +0.091 C 
ATOM     11  C   UNL     1       6.247  -2.298  26.084  0.00  0.00    +0.351 C 
ATOM     12  N   UNL     1       6.876  -3.546  26.658  0.00  0.00    -0.234 N 
ATOM     13  C   UNL     1       6.169  -4.535  27.048  0.00  0.00    +0.311 C 
ATOM     14  C   UNL     1       4.818  -4.709  26.611  0.00  0.00    +0.046 A 
ATOM     15  C   UNL     1       3.874  -4.942  27.618  0.00  0.00    +0.018 A 
ATOM     16  O   UNL     1       2.956  -5.115  23.622  0.00  0.00    -0.484 OA
ATOM     17  C   UNL     1       2.555  -5.177  27.267  0.00  0.00    +0.050 A 
ENDROOT
BRANCH   1  19
ATOM     18  C   UNL     1       0.451  -6.859  25.491  0.00  0.00    +0.277 C 
ATOM     19  O   UNL     1       0.869  -5.533  25.763  0.00  0.00    -0.491 OA
ENDBRANCH   1  19
BRANCH   7  20
ATOM     20  O   UNL     1       7.496  -5.897  22.171  0.00  0.00    -0.388 OA
ATOM     21  H   UNL     1       8.210  -5.535  21.604  0.00  0.00    +0.210 HD
ENDBRANCH   7  20
BRANCH  12  22
ATOM     22  C   UNL     1       8.347  -3.771  26.620  0.00  0.00    +0.350 C 
BRANCH  22  23
ATOM     23  C   UNL     1       8.813  -4.625  25.455  0.00  0.00    +0.072 C 
BRANCH  23  24
ATOM     24  C   UNL     1       9.833  -3.843  24.603  0.00  0.00    +0.006 C 
BRANCH  24  25
ATOM     25  C   UNL     1       9.418  -2.398  24.285  0.00  0.00    +0.000 C 
BRANCH  25  26
ATOM     26  C   UNL     1       9.829  -1.993  22.873  0.00  0.00    +0.000 C 
BRANCH  26  27
ATOM     27  C   UNL     1       8.774  -1.143  22.177  0.00  0.00    +0.002 C 
BRANCH  27  28
ATOM     28  C   UNL     1       9.458  -0.067  21.338  0.00  0.00    +0.019 C 
BRANCH  28  29
ATOM     29  C   UNL     1       9.466   1.283  22.054  0.00  0.00    +0.117 C 
BRANCH  29  30
ATOM     30  N   UNL     1       8.575   1.272  23.158  0.00  0.00    -0.234 N 
ATOM     31  C   UNL     1       7.207   1.464  23.036  0.00  0.00    +0.254 C 
ATOM     32  O   UNL     1       6.562   1.669  22.022  0.00  0.00    -0.270 OA
ATOM     33  C   UNL     1       6.633   1.422  24.378  0.00  0.00    +0.049 A 
ATOM     34  C   UNL     1       7.671   1.235  25.250  0.00  0.00    +0.049 A 
ATOM     35  C   UNL     1       7.473   1.142  26.622  0.00  0.00    +0.014 A 
ATOM     36  C   UNL     1       6.146   1.255  27.081  0.00  0.00    +0.001 A 
ATOM     37  C   UNL     1       5.088   1.461  26.174  0.00  0.00    +0.001 A 
ATOM     38  C   UNL     1       5.323   1.550  24.799  0.00  0.00    +0.014 A 
ATOM     39  C   UNL     1       8.898   1.174  24.489  0.00  0.00    +0.254 C 
ATOM     40  O   UNL     1      10.006   1.122  24.954  0.00  0.00    -0.270 OA
ENDBRANCH  29  30
ENDBRANCH  28  29
ENDBRANCH  27  28
ENDBRANCH  26  27
ENDBRANCH  25  26
ENDBRANCH  24  25
ENDBRANCH  23  24
ENDBRANCH  22  23
ENDBRANCH  12  22
TORSDOF 11
ENDMDL
MODEL 9
REMARK VINA RESULT:      -6.4      2.171      7.437
REMARK  Name = 
REMARK  12 active torsions:
REMARK  status: ('A' for Active; 'I' for Inactive)
REMARK    1  A    between atoms: C_1  and  O_2
REMARK    2  A    between atoms: O_2  and  C_3
REMARK    3  A    between atoms: N_8  and  C_9
REMARK    4  A    between atoms: C_9  and  C_10
REMARK    5  A    between atoms: C_10  and  C_11
REMARK    6  A    between atoms: C_11  and  C_12
REMARK    7  A    between atoms: C_12  and  C_13
REMARK    8  A    between atoms: C_13  and  C_14
REMARK    9  A    between atoms: C_14  and  C_15
REMARK   10  A    between atoms: C_15  and  C_16
REMARK   11  A    between atoms: C_16  and  N_17
REMARK   12  A    between atoms: C_33  and  O_35
REMARK                            x       y       z     vdW  Elec       q    Type
REMARK                         _______ _______ _______ _____ _____    ______ ____
ROOT
ATOM      1  C   UNL     1       6.733  -4.337  22.502  0.00  0.00    +0.162 A 
ATOM      2  C   UNL     1       6.427  -4.618  23.845  0.00  0.00    +0.167 A 
ATOM      3  C   UNL     1       6.220  -3.637  24.828  0.00  0.00    +0.024 A 
ATOM      4  C   UNL     1       6.568  -4.170  26.230  0.00  0.00    +0.061 C 
ATOM      5  C   UNL     1       6.249  -5.681  25.760  0.00  0.00    +0.191 C 
ATOM      6  C   UNL     1       4.694  -6.028  26.206  0.00  0.00    +0.081 C 
ATOM      7  C   UNL     1       4.500  -5.983  27.763  0.00  0.00    +0.141 C 
ATOM      8  C   UNL     1       5.838  -5.536  28.278  0.00  0.00    +0.001 C 
ATOM      9  C   UNL     1       6.003  -4.344  27.636  0.00  0.00    -0.013 C 
ATOM     10  C   UNL     1       7.742  -3.225  26.714  0.00  0.00    +0.091 C 
ATOM     11  C   UNL     1       7.660  -1.649  26.652  0.00  0.00    +0.351 C 
ATOM     12  N   UNL     1       6.310  -1.061  26.312  0.00  0.00    -0.234 N 
ATOM     13  C   UNL     1       5.761  -1.258  25.176  0.00  0.00    +0.311 C 
ATOM     14  C   UNL     1       6.160  -2.339  24.327  0.00  0.00    +0.046 A 
ATOM     15  C   UNL     1       6.438  -2.002  22.998  0.00  0.00    +0.018 A 
ATOM     16  O   UNL     1       6.379  -5.877  24.348  0.00  0.00    -0.484 OA
ATOM     17  C   UNL     1       6.775  -3.004  22.103  0.00  0.00    +0.050 A 
ENDROOT
BRANCH   1  19
ATOM     18  C   UNL     1       6.072  -6.007  20.919  0.00  0.00    +0.277 C 
ATOM     19  O   UNL     1       7.075  -5.188  21.492  0.00  0.00    -0.491 OA
ENDBRANCH   1  19
BRANCH   7  20
ATOM     20  O   UNL     1       3.591  -4.953  28.183  0.00  0.00    -0.388 OA
ATOM     21  H   UNL     1       2.774  -5.095  27.660  0.00  0.00    +0.210 HD
ENDBRANCH   7  20
BRANCH  12  22
ATOM     22  C   UNL     1       5.466  -0.392  27.338  0.00  0.00    +0.350 C 
BRANCH  22  23
ATOM     23  C   UNL     1       3.978  -0.431  27.038  0.00  0.00    +0.072 C 
BRANCH  23  24
ATOM     24  C   UNL     1       3.425   1.004  26.930  0.00  0.00    +0.006 C 
BRANCH  24  25
ATOM     25  C   UNL     1       4.494   2.104  27.008  0.00  0.00    +0.000 C 
BRANCH  25  26
ATOM     26  C   UNL     1       4.419   3.045  25.809  0.00  0.00    +0.000 C 
BRANCH  26  27
ATOM     27  C   UNL     1       4.707   2.338  24.491  0.00  0.00    +0.002 C 
BRANCH  27  28
ATOM     28  C   UNL     1       5.359   3.317  23.518  0.00  0.00    +0.019 C 
BRANCH  28  29
ATOM     29  C   UNL     1       6.835   3.535  23.845  0.00  0.00    +0.117 C 
BRANCH  29  30
ATOM     30  N   UNL     1       7.597   2.380  23.528  0.00  0.00    -0.234 N 
ATOM     31  C   UNL     1       8.190   1.570  24.483  0.00  0.00    +0.254 C 
ATOM     32  O   UNL     1       8.172   1.698  25.696  0.00  0.00    -0.270 OA
ATOM     33  C   UNL     1       8.911   0.512  23.781  0.00  0.00    +0.049 A 
ATOM     34  C   UNL     1       8.748   0.739  22.442  0.00  0.00    +0.049 A 
ATOM     35  C   UNL     1       9.305  -0.094  21.480  0.00  0.00    +0.014 A 
ATOM     36  C   UNL     1      10.058  -1.189  21.948  0.00  0.00    +0.001 A 
ATOM     37  C   UNL     1      10.230  -1.404  23.329  0.00  0.00    +0.001 A 
ATOM     38  C   UNL     1       9.654  -0.545  24.271  0.00  0.00    +0.014 A 
ATOM     39  C   UNL     1       7.950   1.933  22.278  0.00  0.00    +0.254 C 
ATOM     40  O   UNL     1       7.707   2.472  21.230  0.00  0.00    -0.270 OA
ENDBRANCH  29  30
ENDBRANCH  28  29
ENDBRANCH  27  28
ENDBRANCH  26  27
ENDBRANCH  25  26
ENDBRANCH  24  25
ENDBRANCH  23  24
ENDBRANCH  22  23
ENDBRANCH  12  22
TORSDOF 11
ENDMDL
