MODEL 1
REMARK VINA RESULT:      -8.4      0.000      0.000
REMARK  Name = 
REMARK  11 active torsions:
REMARK  status: ('A' for Active; 'I' for Inactive)
REMARK    1  A    between atoms: C_8  and  C_9
REMARK    2  A    between atoms: C_9  and  N_10
REMARK    3  A    between atoms: N_10  and  C_11
REMARK    4  A    between atoms: C_14  and  C_17
REMARK    5  A    between atoms: N_19  and  CA_20
REMARK    6  A    between atoms: CA_20  and  CB_22
REMARK    7  A    between atoms: CA_20  and  C_27
REMARK    8  A    between atoms: CB_22  and  CG_23
REMARK    9  A    between atoms: CG_23  and  CD_24
REMARK   10  A    between atoms: CD_24  and  OE1_25
REMARK   11  A    between atoms: C_27  and  O_28
REMARK                            x       y       z     vdW  Elec       q    Type
REMARK                         _______ _______ _______ _____ _____    ______ ____
ROOT
ATOM      1  C   UNK A   0       9.979  -0.922  23.646  0.00  0.00    +0.027 A 
ATOM      2  C   UNK A   0      10.153  -0.113  24.774  0.00  0.00    +0.023 A 
ATOM      3  C   UNK A   0      10.213   1.287  24.660  0.00  0.00    +0.015 A 
ATOM      4  C   UNK A   0      10.072   1.898  23.410  0.00  0.00    +0.037 A 
ATOM      5  C   UNK A   0       9.777   1.106  22.297  0.00  0.00    +0.015 A 
ATOM      6  C   UNK A   0       9.715  -0.288  22.424  0.00  0.00    +0.023 A 
ENDROOT
BRANCH   4   7
ATOM      7  C   UNK A   0      10.257   3.375  23.292  0.00  0.00    +0.245 C 
ATOM      8  N   GLU A   1      11.563   3.826  23.295  0.00  0.00    -0.298 N 
ATOM      9  H   GLU A   1      12.324   3.161  23.340  0.00  0.00    +0.150 HD
ATOM     10  O   UNK A   0       9.307   4.150  23.236  0.00  0.00    -0.270 OA
BRANCH   8  11
ATOM     11  CA  GLU A   1      11.869   5.251  23.227  0.00  0.00    +0.182 C 
BRANCH  11  12
ATOM     12  C   GLU A   1      13.236   5.440  22.554  0.00  0.00    +0.325 C 
ATOM     13  OXT GLU A   1      13.392   5.947  21.450  0.00  0.00    -0.249 OA
BRANCH  12  14
ATOM     14  O   GLU A   1      14.271   4.993  23.301  0.00  0.00    -0.479 OA
ATOM     15  H   GLU A   1      14.146   5.168  24.263  0.00  0.00    +0.295 HD
ENDBRANCH  12  14
ENDBRANCH  11  12
BRANCH  11  16
ATOM     16  CB  GLU A   1      11.875   5.892  24.623  0.00  0.00    +0.045 C 
BRANCH  16  17
ATOM     17  CG  GLU A   1      10.717   6.874  24.809  0.00  0.00    +0.123 C 
BRANCH  17  18
ATOM     18  CD  GLU A   1       9.845   6.474  25.968  0.00  0.00    +0.305 C 
ATOM     19  OE2 GLU A   1      10.018   6.866  27.111  0.00  0.00    -0.251 OA
BRANCH  18  20
ATOM     20  OE1 GLU A   1       8.823   5.659  25.623  0.00  0.00    -0.481 OA
ATOM     21  HE1 GLU A   1       8.966   4.715  25.832  0.00  0.00    +0.295 HD
ENDBRANCH  18  20
ENDBRANCH  17  18
ENDBRANCH  16  17
ENDBRANCH  11  16
ENDBRANCH   8  11
ENDBRANCH   4   7
BRANCH   1  22
ATOM     22  N   UNK A   0       9.922  -2.321  23.685  0.00  0.00    -0.338 N 
ATOM     23  H   UNK A   0      10.656  -2.715  23.084  0.00  0.00    +0.146 HD
BRANCH  22  24
ATOM     24  C   UNK A   0       8.647  -2.984  23.383  0.00  0.00    +0.158 C 
BRANCH  24  34
ATOM     25  N   UNK A   0       5.354  -7.396  28.752  0.00  0.00    -0.329 N 
ATOM     26  H   UNK A   0       6.093  -7.814  29.299  0.00  0.00    +0.145 HD
ATOM     27  H   UNK A   0       4.605  -8.059  28.569  0.00  0.00    +0.145 HD
ATOM     28  C   UNK A   0       5.730  -6.762  27.616  0.00  0.00    +0.195 A 
ATOM     29  N   UNK A   0       6.866  -6.035  27.752  0.00  0.00    -0.311 N 
ATOM     30  H   UNK A   0       7.326  -5.888  28.633  0.00  0.00    +0.170 HD
ATOM     31  C   UNK A   0       7.314  -5.271  26.685  0.00  0.00    +0.164 A 
ATOM     32  C   UNK A   0       6.648  -5.319  25.463  0.00  0.00    +0.173 A 
ATOM     33  N   UNK A   0       7.031  -4.597  24.369  0.00  0.00    -0.240 NA
ATOM     34  C   UNK A   0       8.127  -3.813  24.544  0.00  0.00    +0.077 A 
ATOM     35  C   UNK A   0       8.800  -3.781  25.765  0.00  0.00    +0.138 A 
ATOM     36  C   UNK A   0       5.448  -6.206  25.395  0.00  0.00    +0.302 A 
ATOM     37  O   UNK A   0       4.858  -6.321  24.325  0.00  0.00    -0.263 OA
ATOM     38  N   UNK A   0       8.409  -4.496  26.852  0.00  0.00    -0.234 NA
ATOM     39  N   UNK A   0       5.032  -6.877  26.539  0.00  0.00    -0.176 NA
ENDBRANCH  24  34
ENDBRANCH  22  24
ENDBRANCH   1  22
TORSDOF 11
ENDMDL
MODEL 2
REMARK VINA RESULT:      -8.3      1.087      1.650
REMARK  Name = 
REMARK  11 active torsions:
REMARK  status: ('A' for Active; 'I' for Inactive)
REMARK    1  A    between atoms: C_8  and  C_9
REMARK    2  A    between atoms: C_9  and  N_10
REMARK    3  A    between atoms: N_10  and  C_11
REMARK    4  A    between atoms: C_14  and  C_17
REMARK    5  A    between atoms: N_19  and  CA_20
REMARK    6  A    between atoms: CA_20  and  CB_22
REMARK    7  A    between atoms: CA_20  and  C_27
REMARK    8  A    between atoms: CB_22  and  CG_23
REMARK    9  A    between atoms: CG_23  and  CD_24
REMARK   10  A    between atoms: CD_24  and  OE1_25
REMARK   11  A    between atoms: C_27  and  O_28
REMARK                            x       y       z     vdW  Elec       q    Type
REMARK                         _______ _______ _______ _____ _____    ______ ____
ROOT
ATOM      1  C   UNK A   0       9.996  -0.881  23.283  0.00  0.00    +0.027 A 
ATOM      2  C   UNK A   0      10.178  -0.158  24.467  0.00  0.00    +0.023 A 
ATOM      3  C   UNK A   0      10.247   1.245  24.456  0.00  0.00    +0.015 A 
ATOM      4  C   UNK A   0      10.108   1.948  23.255  0.00  0.00    +0.037 A 
ATOM      5  C   UNK A   0       9.804   1.242  22.087  0.00  0.00    +0.015 A 
ATOM      6  C   UNK A   0       9.734  -0.158  22.112  0.00  0.00    +0.023 A 
ENDROOT
BRANCH   4   7
ATOM      7  C   UNK A   0      10.301   3.429  23.246  0.00  0.00    +0.245 C 
ATOM      8  N   GLU A   1      11.610   3.869  23.206  0.00  0.00    -0.298 N 
ATOM      9  H   GLU A   1      12.366   3.198  23.150  0.00  0.00    +0.150 HD
ATOM     10  O   UNK A   0       9.359   4.211  23.310  0.00  0.00    -0.270 OA
BRANCH   8  11
ATOM     11  CA  GLU A   1      11.928   5.293  23.234  0.00  0.00    +0.182 C 
BRANCH  11  12
ATOM     12  C   GLU A   1      13.307   5.514  22.596  0.00  0.00    +0.325 C 
ATOM     13  OXT GLU A   1      13.487   6.109  21.542  0.00  0.00    -0.249 OA
BRANCH  12  14
ATOM     14  O   GLU A   1      14.324   4.987  23.316  0.00  0.00    -0.479 OA
ATOM     15  H   GLU A   1      15.157   5.507  23.230  0.00  0.00    +0.295 HD
ENDBRANCH  12  14
ENDBRANCH  11  12
BRANCH  11  16
ATOM     16  CB  GLU A   1      11.916   5.842  24.669  0.00  0.00    +0.045 C 
BRANCH  16  17
ATOM     17  CG  GLU A   1      10.815   6.884  24.877  0.00  0.00    +0.123 C 
BRANCH  17  18
ATOM     18  CD  GLU A   1       9.941   6.525  26.048  0.00  0.00    +0.305 C 
ATOM     19  OE2 GLU A   1      10.165   6.887  27.193  0.00  0.00    -0.251 OA
BRANCH  18  20
ATOM     20  OE1 GLU A   1       8.859   5.788  25.714  0.00  0.00    -0.481 OA
ATOM     21  HE1 GLU A   1       8.806   4.918  26.156  0.00  0.00    +0.295 HD
ENDBRANCH  18  20
ENDBRANCH  17  18
ENDBRANCH  16  17
ENDBRANCH  11  16
ENDBRANCH   8  11
ENDBRANCH   4   7
BRANCH   1  22
ATOM     22  N   UNK A   0       9.931  -2.279  23.219  0.00  0.00    -0.338 N 
ATOM     23  H   UNK A   0       9.163  -2.562  22.598  0.00  0.00    +0.146 HD
BRANCH  22  24
ATOM     24  C   UNK A   0       9.838  -3.038  24.473  0.00  0.00    +0.158 C 
BRANCH  24  34
ATOM     25  N   UNK A   0       3.706  -7.514  25.695  0.00  0.00    -0.329 N 
ATOM     26  H   UNK A   0       2.931  -7.115  25.186  0.00  0.00    +0.145 HD
ATOM     27  H   UNK A   0       3.416  -7.853  26.609  0.00  0.00    +0.145 HD
ATOM     28  C   UNK A   0       4.821  -6.751  25.791  0.00  0.00    +0.195 A 
ATOM     29  N   UNK A   0       5.125  -6.092  24.646  0.00  0.00    -0.311 N 
ATOM     30  H   UNK A   0       4.639  -6.237  23.779  0.00  0.00    +0.170 HD
ATOM     31  C   UNK A   0       6.289  -5.340  24.586  0.00  0.00    +0.164 A 
ATOM     32  C   UNK A   0       7.089  -5.200  25.716  0.00  0.00    +0.173 A 
ATOM     33  N   UNK A   0       8.247  -4.475  25.734  0.00  0.00    -0.240 NA
ATOM     34  C   UNK A   0       8.579  -3.882  24.557  0.00  0.00    +0.077 A 
ATOM     35  C   UNK A   0       7.765  -4.013  23.431  0.00  0.00    +0.138 A 
ATOM     36  C   UNK A   0       6.629  -5.908  26.949  0.00  0.00    +0.302 A 
ATOM     37  O   UNK A   0       7.273  -5.773  27.984  0.00  0.00    -0.263 OA
ATOM     38  N   UNK A   0       6.619  -4.741  23.419  0.00  0.00    -0.234 NA
ATOM     39  N   UNK A   0       5.487  -6.699  26.892  0.00  0.00    -0.176 NA
ENDBRANCH  24  34
ENDBRANCH  22  24
ENDBRANCH   1  22
TORSDOF 11
ENDMDL
MODEL 3
REMARK VINA RESULT:      -8.2      1.776      3.334
REMARK  Name = 
REMARK  11 active torsions:
REMARK  status: ('A' for Active; 'I' for Inactive)
REMARK    1  A    between atoms: C_8  and  C_9
REMARK    2  A    between atoms: C_9  and  N_10
REMARK    3  A    between atoms: N_10  and  C_11
REMARK    4  A    between atoms: C_14  and  C_17
REMARK    5  A    between atoms: N_19  and  CA_20
REMARK    6  A    between atoms: CA_20  and  CB_22
REMARK    7  A    between atoms: CA_20  and  C_27
REMARK    8  A    between atoms: CB_22  and  CG_23
REMARK    9  A    between atoms: CG_23  and  CD_24
REMARK   10  A    between atoms: CD_24  and  OE1_25
REMARK   11  A    between atoms: C_27  and  O_28
REMARK                            x       y       z     vdW  Elec       q    Type
REMARK                         _______ _______ _______ _____ _____    ______ ____
ROOT
ATOM      1  C   UNK A   0       8.730  -1.261  22.990  0.00  0.00    +0.027 A 
ATOM      2  C   UNK A   0       8.710  -0.198  22.081  0.00  0.00    +0.023 A 
ATOM      3  C   UNK A   0       8.797   1.134  22.523  0.00  0.00    +0.015 A 
ATOM      4  C   UNK A   0       8.931   1.417  23.885  0.00  0.00    +0.037 A 
ATOM      5  C   UNK A   0       9.074   0.358  24.787  0.00  0.00    +0.015 A 
ATOM      6  C   UNK A   0       8.990  -0.965  24.334  0.00  0.00    +0.023 A 
ENDROOT
BRANCH   4   7
ATOM      7  C   UNK A   0       8.903   2.837  24.345  0.00  0.00    +0.245 C 
ATOM      8  N   GLU A   1       9.539   3.753  23.529  0.00  0.00    -0.298 N 
ATOM      9  H   GLU A   1       9.957   3.446  22.660  0.00  0.00    +0.150 HD
ATOM     10  O   UNK A   0       8.381   3.170  25.405  0.00  0.00    -0.270 OA
BRANCH   8  11
ATOM     11  CA  GLU A   1       9.613   5.164  23.893  0.00  0.00    +0.182 C 
BRANCH  11  12
ATOM     12  C   GLU A   1       8.542   5.941  23.116  0.00  0.00    +0.325 C 
ATOM     13  OXT GLU A   1       8.147   7.058  23.423  0.00  0.00    -0.249 OA
BRANCH  12  14
ATOM     14  O   GLU A   1       8.066   5.273  22.039  0.00  0.00    -0.479 OA
ATOM     15  H   GLU A   1       8.203   4.300  22.107  0.00  0.00    +0.295 HD
ENDBRANCH  12  14
ENDBRANCH  11  12
BRANCH  11  16
ATOM     16  CB  GLU A   1      11.005   5.746  23.600  0.00  0.00    +0.045 C 
BRANCH  16  17
ATOM     17  CG  GLU A   1      12.044   4.652  23.349  0.00  0.00    +0.123 C 
BRANCH  17  18
ATOM     18  CD  GLU A   1      13.251   5.201  22.636  0.00  0.00    +0.305 C 
ATOM     19  OE2 GLU A   1      13.193   5.802  21.575  0.00  0.00    -0.251 OA
BRANCH  18  20
ATOM     20  OE1 GLU A   1      14.411   4.996  23.298  0.00  0.00    -0.481 OA
ATOM     21  HE1 GLU A   1      14.841   5.810  23.628  0.00  0.00    +0.295 HD
ENDBRANCH  18  20
ENDBRANCH  17  18
ENDBRANCH  16  17
ENDBRANCH  11  16
ENDBRANCH   8  11
ENDBRANCH   4   7
BRANCH   1  22
ATOM     22  N   UNK A   0       8.635  -2.610  22.620  0.00  0.00    -0.338 N 
ATOM     23  H   UNK A   0       9.258  -2.796  21.824  0.00  0.00    +0.146 HD
BRANCH  22  24
ATOM     24  C   UNK A   0       7.309  -3.171  22.333  0.00  0.00    +0.158 C 
BRANCH  24  34
ATOM     25  N   UNK A   0       5.368  -7.386  28.465  0.00  0.00    -0.329 N 
ATOM     26  H   UNK A   0       4.372  -7.287  28.600  0.00  0.00    +0.145 HD
ATOM     27  H   UNK A   0       5.867  -7.374  29.351  0.00  0.00    +0.145 HD
ATOM     28  C   UNK A   0       5.941  -6.544  27.572  0.00  0.00    +0.195 A 
ATOM     29  N   UNK A   0       5.196  -6.349  26.457  0.00  0.00    -0.311 N 
ATOM     30  H   UNK A   0       4.354  -6.860  26.258  0.00  0.00    +0.170 HD
ATOM     31  C   UNK A   0       5.707  -5.573  25.427  0.00  0.00    +0.164 A 
ATOM     32  C   UNK A   0       6.936  -4.936  25.577  0.00  0.00    +0.173 A 
ATOM     33  N   UNK A   0       7.502  -4.156  24.609  0.00  0.00    -0.240 NA
ATOM     34  C   UNK A   0       6.778  -4.032  23.465  0.00  0.00    +0.077 A 
ATOM     35  C   UNK A   0       5.540  -4.660  23.327  0.00  0.00    +0.138 A 
ATOM     36  C   UNK A   0       7.646  -5.157  26.872  0.00  0.00    +0.302 A 
ATOM     37  O   UNK A   0       8.708  -4.576  27.071  0.00  0.00    -0.263 OA
ATOM     38  N   UNK A   0       4.986  -5.440  24.291  0.00  0.00    -0.234 NA
ATOM     39  N   UNK A   0       7.088  -6.011  27.817  0.00  0.00    -0.176 NA
ENDBRANCH  24  34
ENDBRANCH  22  24
ENDBRANCH   1  22
TORSDOF 11
ENDMDL
MODEL 4
REMARK VINA RESULT:      -8.1      1.476      2.143
REMARK  Name = 
REMARK  11 active torsions:
REMARK  status: ('A' for Active; 'I' for Inactive)
REMARK    1  A    between atoms: C_8  and  C_9
REMARK    2  A    between atoms: C_9  and  N_10
REMARK    3  A    between atoms: N_10  and  C_11
REMARK    4  A    between atoms: C_14  and  C_17
REMARK    5  A    between atoms: N_19  and  CA_20
REMARK    6  A    between atoms: CA_20  and  CB_22
REMARK    7  A    between atoms: CA_20  and  C_27
REMARK    8  A    between atoms: CB_22  and  CG_23
REMARK    9  A    between atoms: CG_23  and  CD_24
REMARK   10  A    between atoms: CD_24  and  OE1_25
REMARK   11  A    between atoms: C_27  and  O_28
REMARK                            x       y       z     vdW  Elec       q    Type
REMARK                         _______ _______ _______ _____ _____    ______ ____
ROOT
ATOM      1  C   UNK A   0       9.839  -0.969  23.343  0.00  0.00    +0.027 A 
ATOM      2  C   UNK A   0       9.847  -0.261  22.136  0.00  0.00    +0.023 A 
ATOM      3  C   UNK A   0      10.061   1.127  22.111  0.00  0.00    +0.015 A 
ATOM      4  C   UNK A   0      10.296   1.825  23.300  0.00  0.00    +0.037 A 
ATOM      5  C   UNK A   0      10.411   1.109  24.495  0.00  0.00    +0.015 A 
ATOM      6  C   UNK A   0      10.200  -0.277  24.506  0.00  0.00    +0.023 A 
ENDROOT
BRANCH   4   7
ATOM      7  C   UNK A   0      10.403   3.314  23.268  0.00  0.00    +0.245 C 
ATOM      8  N   GLU A   1      11.683   3.830  23.208  0.00  0.00    -0.298 N 
ATOM      9  H   GLU A   1      12.476   3.203  23.154  0.00  0.00    +0.150 HD
ATOM     10  O   UNK A   0       9.416   4.041  23.331  0.00  0.00    -0.270 OA
BRANCH   8  11
ATOM     11  CA  GLU A   1      11.916   5.270  23.213  0.00  0.00    +0.182 C 
BRANCH  11  12
ATOM     12  C   GLU A   1      13.296   5.558  22.603  0.00  0.00    +0.325 C 
ATOM     13  OXT GLU A   1      13.472   6.225  21.591  0.00  0.00    -0.249 OA
BRANCH  12  14
ATOM     14  O   GLU A   1      14.318   5.005  23.295  0.00  0.00    -0.479 OA
ATOM     15  H   GLU A   1      14.015   4.314  23.929  0.00  0.00    +0.295 HD
ENDBRANCH  12  14
ENDBRANCH  11  12
BRANCH  11  16
ATOM     16  CB  GLU A   1      11.838   5.847  24.635  0.00  0.00    +0.045 C 
BRANCH  16  17
ATOM     17  CG  GLU A   1      10.701   6.861  24.782  0.00  0.00    +0.123 C 
BRANCH  17  18
ATOM     18  CD  GLU A   1       9.796   6.502  25.929  0.00  0.00    +0.305 C 
ATOM     19  OE2 GLU A   1       9.978   6.879  27.076  0.00  0.00    -0.251 OA
BRANCH  18  20
ATOM     20  OE1 GLU A   1       8.737   5.745  25.568  0.00  0.00    -0.481 OA
ATOM     21  HE1 GLU A   1       8.740   5.458  24.633  0.00  0.00    +0.295 HD
ENDBRANCH  18  20
ENDBRANCH  17  18
ENDBRANCH  16  17
ENDBRANCH  11  16
ENDBRANCH   8  11
ENDBRANCH   4   7
BRANCH   1  22
ATOM     22  N   UNK A   0       9.621  -2.349  23.441  0.00  0.00    -0.338 N 
ATOM     23  H   UNK A   0       8.905  -2.636  22.762  0.00  0.00    +0.146 HD
BRANCH  22  24
ATOM     24  C   UNK A   0       9.294  -2.920  24.754  0.00  0.00    +0.158 C 
BRANCH  24  34
ATOM     25  N   UNK A   0       3.017  -7.249  23.760  0.00  0.00    -0.329 N 
ATOM     26  H   UNK A   0       3.187  -8.140  24.205  0.00  0.00    +0.145 HD
ATOM     27  H   UNK A   0       2.533  -7.362  22.873  0.00  0.00    +0.145 HD
ATOM     28  C   UNK A   0       4.085  -6.427  23.629  0.00  0.00    +0.195 A 
ATOM     29  N   UNK A   0       4.895  -6.415  24.717  0.00  0.00    -0.311 N 
ATOM     30  H   UNK A   0       4.671  -6.882  25.578  0.00  0.00    +0.170 HD
ATOM     31  C   UNK A   0       5.980  -5.552  24.744  0.00  0.00    +0.164 A 
ATOM     32  C   UNK A   0       6.279  -4.770  23.631  0.00  0.00    +0.173 A 
ATOM     33  N   UNK A   0       7.330  -3.900  23.583  0.00  0.00    -0.240 NA
ATOM     34  C   UNK A   0       8.089  -3.842  24.710  0.00  0.00    +0.077 A 
ATOM     35  C   UNK A   0       7.794  -4.639  25.816  0.00  0.00    +0.138 A 
ATOM     36  C   UNK A   0       5.366  -4.909  22.456  0.00  0.00    +0.302 A 
ATOM     37  O   UNK A   0       5.618  -4.279  21.434  0.00  0.00    -0.263 OA
ATOM     38  N   UNK A   0       6.742  -5.498  25.859  0.00  0.00    -0.234 NA
ATOM     39  N   UNK A   0       4.261  -5.746  22.549  0.00  0.00    -0.176 NA
ENDBRANCH  24  34
ENDBRANCH  22  24
ENDBRANCH   1  22
TORSDOF 11
ENDMDL
MODEL 5
REMARK VINA RESULT:      -8.0      2.029      3.210
REMARK  Name = 
REMARK  11 active torsions:
REMARK  status: ('A' for Active; 'I' for Inactive)
REMARK    1  A    between atoms: C_8  and  C_9
REMARK    2  A    between atoms: C_9  and  N_10
REMARK    3  A    between atoms: N_10  and  C_11
REMARK    4  A    between atoms: C_14  and  C_17
REMARK    5  A    between atoms: N_19  and  CA_20
REMARK    6  A    between atoms: CA_20  and  CB_22
REMARK    7  A    between atoms: CA_20  and  C_27
REMARK    8  A    between atoms: CB_22  and  CG_23
REMARK    9  A    between atoms: CG_23  and  CD_24
REMARK   10  A    between atoms: CD_24  and  OE1_25
REMARK   11  A    between atoms: C_27  and  O_28
REMARK                            x       y       z     vdW  Elec       q    Type
REMARK                         _______ _______ _______ _____ _____    ______ ____
ROOT
ATOM      1  C   UNK A   0       9.862  -0.593  22.845  0.00  0.00    +0.027 A 
ATOM      2  C   UNK A   0       9.669   0.323  21.806  0.00  0.00    +0.023 A 
ATOM      3  C   UNK A   0       9.958   1.688  21.980  0.00  0.00    +0.015 A 
ATOM      4  C   UNK A   0      10.472   2.149  23.196  0.00  0.00    +0.037 A 
ATOM      5  C   UNK A   0      10.783   1.223  24.196  0.00  0.00    +0.015 A 
ATOM      6  C   UNK A   0      10.494  -0.135  24.008  0.00  0.00    +0.023 A 
ENDROOT
BRANCH   4   7
ATOM      7  C   UNK A   0      10.662   3.616  23.402  0.00  0.00    +0.245 C 
ATOM      8  N   GLU A   1       9.508   4.373  23.477  0.00  0.00    -0.298 N 
ATOM      9  H   GLU A   1       8.605   3.918  23.428  0.00  0.00    +0.150 HD
ATOM     10  O   UNK A   0      11.775   4.129  23.461  0.00  0.00    -0.270 OA
BRANCH   8  11
ATOM     11  CA  GLU A   1       9.566   5.822  23.636  0.00  0.00    +0.182 C 
BRANCH  11  12
ATOM     12  C   GLU A   1       9.556   6.164  25.133  0.00  0.00    +0.325 C 
ATOM     13  OXT GLU A   1      10.407   6.850  25.685  0.00  0.00    -0.249 OA
BRANCH  12  14
ATOM     14  O   GLU A   1       8.504   5.635  25.800  0.00  0.00    -0.479 OA
ATOM     15  H   GLU A   1       8.627   5.658  26.778  0.00  0.00    +0.295 HD
ENDBRANCH  12  14
ENDBRANCH  11  12
BRANCH  11  16
ATOM     16  CB  GLU A   1       8.388   6.511  22.930  0.00  0.00    +0.045 C 
BRANCH  16  17
ATOM     17  CG  GLU A   1       7.453   5.504  22.258  0.00  0.00    +0.123 C 
BRANCH  17  18
ATOM     18  CD  GLU A   1       6.153   5.383  23.008  0.00  0.00    +0.305 C 
ATOM     19  OE2 GLU A   1       6.014   5.715  24.174  0.00  0.00    -0.251 OA
BRANCH  18  20
ATOM     20  OE1 GLU A   1       5.137   4.902  22.259  0.00  0.00    -0.481 OA
ATOM     21  HE1 GLU A   1       5.126   3.928  22.165  0.00  0.00    +0.295 HD
ENDBRANCH  18  20
ENDBRANCH  17  18
ENDBRANCH  16  17
ENDBRANCH  11  16
ENDBRANCH   8  11
ENDBRANCH   4   7
BRANCH   1  22
ATOM     22  N   UNK A   0       9.584  -1.963  22.744  0.00  0.00    -0.338 N 
ATOM     23  H   UNK A   0       8.653  -2.097  22.329  0.00  0.00    +0.146 HD
BRANCH  22  24
ATOM     24  C   UNK A   0       9.697  -2.796  23.949  0.00  0.00    +0.158 C 
BRANCH  24  34
ATOM     25  N   UNK A   0       3.876  -7.465  25.801  0.00  0.00    -0.329 N 
ATOM     26  H   UNK A   0       3.063  -7.159  25.285  0.00  0.00    +0.145 HD
ATOM     27  H   UNK A   0       3.635  -7.732  26.752  0.00  0.00    +0.145 HD
ATOM     28  C   UNK A   0       4.947  -6.637  25.785  0.00  0.00    +0.195 A 
ATOM     29  N   UNK A   0       5.177  -6.073  24.574  0.00  0.00    -0.311 N 
ATOM     30  H   UNK A   0       4.673  -6.326  23.742  0.00  0.00    +0.170 HD
ATOM     31  C   UNK A   0       6.293  -5.268  24.402  0.00  0.00    +0.164 A 
ATOM     32  C   UNK A   0       7.118  -4.978  25.485  0.00  0.00    +0.173 A 
ATOM     33  N   UNK A   0       8.231  -4.192  25.394  0.00  0.00    -0.240 NA
ATOM     34  C   UNK A   0       8.493  -3.696  24.155  0.00  0.00    +0.077 A 
ATOM     35  C   UNK A   0       7.653  -3.977  23.077  0.00  0.00    +0.138 A 
ATOM     36  C   UNK A   0       6.738  -5.591  26.794  0.00  0.00    +0.302 A 
ATOM     37  O   UNK A   0       7.405  -5.323  27.788  0.00  0.00    -0.263 OA
ATOM     38  N   UNK A   0       6.551  -4.765  23.174  0.00  0.00    -0.234 NA
ATOM     39  N   UNK A   0       5.642  -6.444  26.852  0.00  0.00    -0.176 NA
ENDBRANCH  24  34
ENDBRANCH  22  24
ENDBRANCH   1  22
TORSDOF 11
ENDMDL
MODEL 6
REMARK VINA RESULT:      -7.9      2.220      3.488
REMARK  Name = 
REMARK  11 active torsions:
REMARK  status: ('A' for Active; 'I' for Inactive)
REMARK    1  A    between atoms: C_8  and  C_9
REMARK    2  A    between atoms: C_9  and  N_10
REMARK    3  A    between atoms: N_10  and  C_11
REMARK    4  A    between atoms: C_14  and  C_17
REMARK    5  A    between atoms: N_19  and  CA_20
REMARK    6  A    between atoms: CA_20  and  CB_22
REMARK    7  A    between atoms: CA_20  and  C_27
REMARK    8  A    between atoms: CB_22  and  CG_23
REMARK    9  A    between atoms: CG_23  and  CD_24
REMARK   10  A    between atoms: CD_24  and  OE1_25
REMARK   11  A    between atoms: C_27  and  O_28
REMARK                            x       y       z     vdW  Elec       q    Type
REMARK                         _______ _______ _______ _____ _____    ______ ____
ROOT
ATOM      1  C   UNK A   0       9.617  -0.953  23.507  0.00  0.00    +0.027 A 
ATOM      2  C   UNK A   0       9.808   0.063  22.564  0.00  0.00    +0.023 A 
ATOM      3  C   UNK A   0       9.498   1.400  22.867  0.00  0.00    +0.015 A 
ATOM      4  C   UNK A   0       9.015   1.742  24.134  0.00  0.00    +0.037 A 
ATOM      5  C   UNK A   0       8.936   0.753  25.119  0.00  0.00    +0.015 A 
ATOM      6  C   UNK A   0       9.252  -0.576  24.806  0.00  0.00    +0.023 A 
ENDROOT
BRANCH   4   7
ATOM      7  C   UNK A   0       8.580   3.146  24.399  0.00  0.00    +0.245 C 
ATOM      8  N   GLU A   1       8.703   4.029  23.343  0.00  0.00    -0.298 N 
ATOM      9  H   GLU A   1       9.038   3.698  22.447  0.00  0.00    +0.150 HD
ATOM     10  O   UNK A   0       8.175   3.508  25.499  0.00  0.00    -0.270 OA
BRANCH   8  11
ATOM     11  CA  GLU A   1       8.349   5.436  23.492  0.00  0.00    +0.182 C 
BRANCH  11  12
ATOM     12  C   GLU A   1       7.216   5.776  22.513  0.00  0.00    +0.325 C 
ATOM     13  OXT GLU A   1       6.027   5.635  22.765  0.00  0.00    -0.249 OA
BRANCH  12  14
ATOM     14  O   GLU A   1       7.655   6.259  21.327  0.00  0.00    -0.479 OA
ATOM     15  H   GLU A   1       7.637   7.243  21.290  0.00  0.00    +0.295 HD
ENDBRANCH  12  14
ENDBRANCH  11  12
BRANCH  11  16
ATOM     16  CB  GLU A   1       9.559   6.349  23.237  0.00  0.00    +0.045 C 
BRANCH  16  17
ATOM     17  CG  GLU A   1      10.622   6.210  24.328  0.00  0.00    +0.123 C 
BRANCH  17  18
ATOM     18  CD  GLU A   1      11.831   5.473  23.819  0.00  0.00    +0.305 C 
ATOM     19  OE2 GLU A   1      11.771   4.412  23.217  0.00  0.00    -0.251 OA
BRANCH  18  20
ATOM     20  OE1 GLU A   1      12.997   6.111  24.060  0.00  0.00    -0.481 OA
ATOM     21  HE1 GLU A   1      12.938   6.837  24.713  0.00  0.00    +0.295 HD
ENDBRANCH  18  20
ENDBRANCH  17  18
ENDBRANCH  16  17
ENDBRANCH  11  16
ENDBRANCH   8  11
ENDBRANCH   4   7
BRANCH   1  22
ATOM     22  N   UNK A   0       9.892  -2.306  23.268  0.00  0.00    -0.338 N 
ATOM     23  H   UNK A   0       9.300  -2.650  22.503  0.00  0.00    +0.146 HD
BRANCH  22  24
ATOM     24  C   UNK A   0       9.821  -3.249  24.392  0.00  0.00    +0.158 C 
BRANCH  24  34
ATOM     25  N   UNK A   0       3.108  -6.936  23.717  0.00  0.00    -0.329 N 
ATOM     26  H   UNK A   0       3.191  -7.814  24.210  0.00  0.00    +0.145 HD
ATOM     27  H   UNK A   0       2.599  -7.047  22.843  0.00  0.00    +0.145 HD
ATOM     28  C   UNK A   0       4.254  -6.241  23.528  0.00  0.00    +0.195 A 
ATOM     29  N   UNK A   0       5.078  -6.254  24.603  0.00  0.00    -0.311 N 
ATOM     30  H   UNK A   0       4.822  -6.646  25.492  0.00  0.00    +0.170 HD
ATOM     31  C   UNK A   0       6.249  -5.511  24.569  0.00  0.00    +0.164 A 
ATOM     32  C   UNK A   0       6.609  -4.828  23.410  0.00  0.00    +0.173 A 
ATOM     33  N   UNK A   0       7.746  -4.079  23.301  0.00  0.00    -0.240 NA
ATOM     34  C   UNK A   0       8.525  -4.039  24.414  0.00  0.00    +0.077 A 
ATOM     35  C   UNK A   0       8.167  -4.737  25.567  0.00  0.00    +0.138 A 
ATOM     36  C   UNK A   0       5.668  -4.935  22.255  0.00  0.00    +0.302 A 
ATOM     37  O   UNK A   0       5.967  -4.394  21.196  0.00  0.00    -0.263 OA
ATOM     38  N   UNK A   0       7.031  -5.476  25.671  0.00  0.00    -0.234 NA
ATOM     39  N   UNK A   0       4.482  -5.644  22.408  0.00  0.00    -0.176 NA
ENDBRANCH  24  34
ENDBRANCH  22  24
ENDBRANCH   1  22
TORSDOF 11
ENDMDL
MODEL 7
REMARK VINA RESULT:      -7.9      2.276      3.413
REMARK  Name = 
REMARK  11 active torsions:
REMARK  status: ('A' for Active; 'I' for Inactive)
REMARK    1  A    between atoms: C_8  and  C_9
REMARK    2  A    between atoms: C_9  and  N_10
REMARK    3  A    between atoms: N_10  and  C_11
REMARK    4  A    between atoms: C_14  and  C_17
REMARK    5  A    between atoms: N_19  and  CA_20
REMARK    6  A    between atoms: CA_20  and  CB_22
REMARK    7  A    between atoms: CA_20  and  C_27
REMARK    8  A    between atoms: CB_22  and  CG_23
REMARK    9  A    between atoms: CG_23  and  CD_24
REMARK   10  A    between atoms: CD_24  and  OE1_25
REMARK   11  A    between atoms: C_27  and  O_28
REMARK                            x       y       z     vdW  Elec       q    Type
REMARK                         _______ _______ _______ _____ _____    ______ ____
ROOT
ATOM      1  C   UNK A   0       9.961  -0.498  22.846  0.00  0.00    +0.027 A 
ATOM      2  C   UNK A   0       9.770   0.408  21.797  0.00  0.00    +0.023 A 
ATOM      3  C   UNK A   0      10.024   1.779  21.968  0.00  0.00    +0.015 A 
ATOM      4  C   UNK A   0      10.502   2.259  23.192  0.00  0.00    +0.037 A 
ATOM      5  C   UNK A   0      10.812   1.347  24.204  0.00  0.00    +0.015 A 
ATOM      6  C   UNK A   0      10.557  -0.019  24.019  0.00  0.00    +0.023 A 
ENDROOT
BRANCH   4   7
ATOM      7  C   UNK A   0      10.654   3.731  23.393  0.00  0.00    +0.245 C 
ATOM      8  N   GLU A   1       9.481   4.456  23.484  0.00  0.00    -0.298 N 
ATOM      9  H   GLU A   1       8.590   3.977  23.450  0.00  0.00    +0.150 HD
ATOM     10  O   UNK A   0      11.753   4.275  23.434  0.00  0.00    -0.270 OA
BRANCH   8  11
ATOM     11  CA  GLU A   1       9.501   5.906  23.640  0.00  0.00    +0.182 C 
BRANCH  11  12
ATOM     12  C   GLU A   1       9.531   6.251  25.136  0.00  0.00    +0.325 C 
ATOM     13  OXT GLU A   1      10.330   7.027  25.645  0.00  0.00    -0.249 OA
BRANCH  12  14
ATOM     14  O   GLU A   1       8.578   5.614  25.855  0.00  0.00    -0.479 OA
ATOM     15  H   GLU A   1       8.319   4.750  25.458  0.00  0.00    +0.295 HD
ENDBRANCH  12  14
ENDBRANCH  11  12
BRANCH  11  16
ATOM     16  CB  GLU A   1       8.281   6.559  22.972  0.00  0.00    +0.045 C 
BRANCH  16  17
ATOM     17  CG  GLU A   1       7.438   5.543  22.198  0.00  0.00    +0.123 C 
BRANCH  17  18
ATOM     18  CD  GLU A   1       6.229   5.123  22.990  0.00  0.00    +0.305 C 
ATOM     19  OE2 GLU A   1       6.263   4.852  24.180  0.00  0.00    -0.251 OA
BRANCH  18  20
ATOM     20  OE1 GLU A   1       5.088   5.104  22.268  0.00  0.00    -0.481 OA
ATOM     21  HE1 GLU A   1       5.211   4.924  21.315  0.00  0.00    +0.295 HD
ENDBRANCH  18  20
ENDBRANCH  17  18
ENDBRANCH  16  17
ENDBRANCH  11  16
ENDBRANCH   8  11
ENDBRANCH   4   7
BRANCH   1  22
ATOM     22  N   UNK A   0       9.716  -1.874  22.748  0.00  0.00    -0.338 N 
ATOM     23  H   UNK A   0       8.829  -2.034  22.254  0.00  0.00    +0.146 HD
BRANCH  22  24
ATOM     24  C   UNK A   0       9.735  -2.683  23.974  0.00  0.00    +0.158 C 
BRANCH  24  34
ATOM     25  N   UNK A   0       3.400  -7.038  23.795  0.00  0.00    -0.329 N 
ATOM     26  H   UNK A   0       3.610  -7.902  24.274  0.00  0.00    +0.145 HD
ATOM     27  H   UNK A   0       2.839  -7.200  22.962  0.00  0.00    +0.145 HD
ATOM     28  C   UNK A   0       4.451  -6.229  23.522  0.00  0.00    +0.195 A 
ATOM     29  N   UNK A   0       5.354  -6.157  24.530  0.00  0.00    -0.311 N 
ATOM     30  H   UNK A   0       5.208  -6.572  25.434  0.00  0.00    +0.170 HD
ATOM     31  C   UNK A   0       6.437  -5.298  24.411  0.00  0.00    +0.164 A 
ATOM     32  C   UNK A   0       6.635  -4.583  23.233  0.00  0.00    +0.173 A 
ATOM     33  N   UNK A   0       7.677  -3.722  23.041  0.00  0.00    -0.240 NA
ATOM     34  C   UNK A   0       8.532  -3.601  24.090  0.00  0.00    +0.077 A 
ATOM     35  C   UNK A   0       8.338  -4.332  25.263  0.00  0.00    +0.138 A 
ATOM     36  C   UNK A   0       5.622  -4.787  22.153  0.00  0.00    +0.302 A 
ATOM     37  O   UNK A   0       5.781  -4.219  21.078  0.00  0.00    -0.263 OA
ATOM     38  N   UNK A   0       7.295  -5.182  25.449  0.00  0.00    -0.234 NA
ATOM     39  N   UNK A   0       4.529  -5.613  22.393  0.00  0.00    -0.176 NA
ENDBRANCH  24  34
ENDBRANCH  22  24
ENDBRANCH   1  22
TORSDOF 11
ENDMDL
MODEL 8
REMARK VINA RESULT:      -7.8      1.774      2.835
REMARK  Name = 
REMARK  11 active torsions:
REMARK  status: ('A' for Active; 'I' for Inactive)
REMARK    1  A    between atoms: C_8  and  C_9
REMARK    2  A    between atoms: C_9  and  N_10
REMARK    3  A    between atoms: N_10  and  C_11
REMARK    4  A    between atoms: C_14  and  C_17
REMARK    5  A    between atoms: N_19  and  CA_20
REMARK    6  A    between atoms: CA_20  and  CB_22
REMARK    7  A    between atoms: CA_20  and  C_27
REMARK    8  A    between atoms: CB_22  and  CG_23
REMARK    9  A    between atoms: CG_23  and  CD_24
REMARK   10  A    between atoms: CD_24  and  OE1_25
REMARK   11  A    between atoms: C_27  and  O_28
REMARK                            x       y       z     vdW  Elec       q    Type
REMARK                         _______ _______ _______ _____ _____    ______ ____
ROOT
ATOM      1  C   UNK A   0       9.203  -0.787  23.263  0.00  0.00    +0.027 A 
ATOM      2  C   UNK A   0      10.169  -0.048  23.954  0.00  0.00    +0.023 A 
ATOM      3  C   UNK A   0       9.918   1.275  24.357  0.00  0.00    +0.015 A 
ATOM      4  C   UNK A   0       8.679   1.868  24.095  0.00  0.00    +0.037 A 
ATOM      5  C   UNK A   0       7.667   1.097  23.514  0.00  0.00    +0.015 A 
ATOM      6  C   UNK A   0       7.929  -0.222  23.121  0.00  0.00    +0.023 A 
ENDROOT
BRANCH   4   7
ATOM      7  C   UNK A   0       8.472   3.310  24.425  0.00  0.00    +0.245 C 
ATOM      8  N   GLU A   1       8.625   4.200  23.379  0.00  0.00    -0.298 N 
ATOM      9  H   GLU A   1       8.829   3.854  22.450  0.00  0.00    +0.150 HD
ATOM     10  O   UNK A   0       8.221   3.689  25.564  0.00  0.00    -0.270 OA
BRANCH   8  11
ATOM     11  CA  GLU A   1       8.488   5.637  23.586  0.00  0.00    +0.182 C 
BRANCH  11  12
ATOM     12  C   GLU A   1       7.350   6.167  22.701  0.00  0.00    +0.325 C 
ATOM     13  OXT GLU A   1       6.309   6.642  23.135  0.00  0.00    -0.249 OA
BRANCH  12  14
ATOM     14  O   GLU A   1       7.606   6.065  21.376  0.00  0.00    -0.479 OA
ATOM     15  H   GLU A   1       8.120   5.255  21.152  0.00  0.00    +0.295 HD
ENDBRANCH  12  14
ENDBRANCH  11  12
BRANCH  11  16
ATOM     16  CB  GLU A   1       9.795   6.378  23.265  0.00  0.00    +0.045 C 
BRANCH  16  17
ATOM     17  CG  GLU A   1      10.866   6.141  24.332  0.00  0.00    +0.123 C 
BRANCH  17  18
ATOM     18  CD  GLU A   1      12.002   5.316  23.790  0.00  0.00    +0.305 C 
ATOM     19  OE2 GLU A   1      11.851   4.227  23.258  0.00  0.00    -0.251 OA
BRANCH  18  20
ATOM     20  OE1 GLU A   1      13.210   5.906  23.917  0.00  0.00    -0.481 OA
ATOM     21  HE1 GLU A   1      13.281   6.533  24.664  0.00  0.00    +0.295 HD
ENDBRANCH  18  20
ENDBRANCH  17  18
ENDBRANCH  16  17
ENDBRANCH  11  16
ENDBRANCH   8  11
ENDBRANCH   4   7
BRANCH   1  22
ATOM     22  N   UNK A   0       9.391  -2.104  22.821  0.00  0.00    -0.338 N 
ATOM     23  H   UNK A   0       9.851  -2.098  21.902  0.00  0.00    +0.146 HD
BRANCH  22  24
ATOM     24  C   UNK A   0       8.231  -3.003  22.772  0.00  0.00    +0.158 C 
BRANCH  24  34
ATOM     25  N   UNK A   0       6.471  -7.115  29.026  0.00  0.00    -0.329 N 
ATOM     26  H   UNK A   0       7.298  -7.630  29.295  0.00  0.00    +0.145 HD
ATOM     27  H   UNK A   0       5.632  -7.682  29.123  0.00  0.00    +0.145 HD
ATOM     28  C   UNK A   0       6.509  -6.505  27.818  0.00  0.00    +0.195 A 
ATOM     29  N   UNK A   0       7.700  -5.920  27.544  0.00  0.00    -0.311 N 
ATOM     30  H   UNK A   0       8.448  -5.849  28.212  0.00  0.00    +0.170 HD
ATOM     31  C   UNK A   0       7.844  -5.190  26.374  0.00  0.00    +0.164 A 
ATOM     32  C   UNK A   0       6.800  -5.132  25.454  0.00  0.00    +0.173 A 
ATOM     33  N   UNK A   0       6.869  -4.436  24.281  0.00  0.00    -0.240 NA
ATOM     34  C   UNK A   0       8.044  -3.791  24.056  0.00  0.00    +0.077 A 
ATOM     35  C   UNK A   0       9.092  -3.866  24.973  0.00  0.00    +0.138 A 
ATOM     36  C   UNK A   0       5.553  -5.869  25.817  0.00  0.00    +0.302 A 
ATOM     37  O   UNK A   0       4.624  -5.890  25.016  0.00  0.00    -0.263 OA
ATOM     38  N   UNK A   0       9.015  -4.554  26.141  0.00  0.00    -0.234 NA
ATOM     39  N   UNK A   0       5.476  -6.513  27.047  0.00  0.00    -0.176 NA
ENDBRANCH  24  34
ENDBRANCH  22  24
ENDBRANCH   1  22
TORSDOF 11
ENDMDL
MODEL 9
REMARK VINA RESULT:      -7.7      4.171      9.449
REMARK  Name = 
REMARK  11 active torsions:
REMARK  status: ('A' for Active; 'I' for Inactive)
REMARK    1  A    between atoms: C_8  and  C_9
REMARK    2  A    between atoms: C_9  and  N_10
REMARK    3  A    between atoms: N_10  and  C_11
REMARK    4  A    between atoms: C_14  and  C_17
REMARK    5  A    between atoms: N_19  and  CA_20
REMARK    6  A    between atoms: CA_20  and  CB_22
REMARK    7  A    between atoms: CA_20  and  C_27
REMARK    8  A    between atoms: CB_22  and  CG_23
REMARK    9  A    between atoms: CG_23  and  CD_24
REMARK   10  A    between atoms: CD_24  and  OE1_25
REMARK   11  A    between atoms: C_27  and  O_28
REMARK                            x       y       z     vdW  Elec       q    Type
REMARK                         _______ _______ _______ _____ _____    ______ ____
ROOT
ATOM      1  C   UNK A   0      10.253   2.059  23.109  0.00  0.00    +0.027 A 
ATOM      2  C   UNK A   0      10.500   1.342  24.284  0.00  0.00    +0.023 A 
ATOM      3  C   UNK A   0      10.274  -0.043  24.350  0.00  0.00    +0.015 A 
ATOM      4  C   UNK A   0       9.820  -0.737  23.224  0.00  0.00    +0.037 A 
ATOM      5  C   UNK A   0       9.686  -0.051  22.013  0.00  0.00    +0.015 A 
ATOM      6  C   UNK A   0       9.919   1.330  21.960  0.00  0.00    +0.023 A 
ENDROOT
BRANCH   4   7
ATOM      7  C   UNK A   0       9.473  -2.184  23.345  0.00  0.00    +0.245 C 
ATOM      8  N   GLU A   1       8.174  -2.527  23.021  0.00  0.00    -0.298 N 
ATOM      9  H   GLU A   1       7.535  -1.816  22.689  0.00  0.00    +0.150 HD
ATOM     10  O   UNK A   0      10.279  -3.018  23.747  0.00  0.00    -0.270 OA
BRANCH   8  11
ATOM     11  CA  GLU A   1       7.705  -3.903  23.139  0.00  0.00    +0.182 C 
BRANCH  11  12
ATOM     12  C   GLU A   1       6.729  -4.202  21.992  0.00  0.00    +0.325 C 
ATOM     13  OXT GLU A   1       5.834  -3.445  21.639  0.00  0.00    -0.249 OA
BRANCH  12  14
ATOM     14  O   GLU A   1       6.950  -5.395  21.392  0.00  0.00    -0.479 OA
ATOM     15  H   GLU A   1       6.123  -5.805  21.049  0.00  0.00    +0.295 HD
ENDBRANCH  12  14
ENDBRANCH  11  12
BRANCH  11  16
ATOM     16  CB  GLU A   1       7.021  -4.149  24.492  0.00  0.00    +0.045 C 
BRANCH  16  17
ATOM     17  CG  GLU A   1       7.577  -5.385  25.201  0.00  0.00    +0.123 C 
BRANCH  17  18
ATOM     18  CD  GLU A   1       8.888  -5.082  25.876  0.00  0.00    +0.305 C 
ATOM     19  OE2 GLU A   1       8.985  -4.411  26.890  0.00  0.00    -0.251 OA
BRANCH  18  20
ATOM     20  OE1 GLU A   1       9.953  -5.652  25.272  0.00  0.00    -0.481 OA
ATOM     21  HE1 GLU A   1      10.730  -5.066  25.177  0.00  0.00    +0.295 HD
ENDBRANCH  18  20
ENDBRANCH  17  18
ENDBRANCH  16  17
ENDBRANCH  11  16
ENDBRANCH   8  11
ENDBRANCH   4   7
BRANCH   1  22
ATOM     22  N   UNK A   0      10.444   3.441  22.978  0.00  0.00    -0.338 N 
ATOM     23  H   UNK A   0      11.447   3.658  23.027  0.00  0.00    +0.146 HD
BRANCH  22  24
ATOM     24  C   UNK A   0       9.712   4.342  23.877  0.00  0.00    +0.158 C 
BRANCH  24  34
ATOM     25  N   UNK A   0       2.271   4.668  21.966  0.00  0.00    -0.329 N 
ATOM     26  H   UNK A   0       1.966   5.622  22.091  0.00  0.00    +0.145 HD
ATOM     27  H   UNK A   0       1.568   4.006  22.284  0.00  0.00    +0.145 HD
ATOM     28  C   UNK A   0       3.492   4.356  22.462  0.00  0.00    +0.195 A 
ATOM     29  N   UNK A   0       4.422   5.320  22.257  0.00  0.00    -0.311 N 
ATOM     30  H   UNK A   0       4.256   6.138  21.697  0.00  0.00    +0.170 HD
ATOM     31  C   UNK A   0       5.734   5.090  22.645  0.00  0.00    +0.164 A 
ATOM     32  C   UNK A   0       6.069   3.915  23.311  0.00  0.00    +0.173 A 
ATOM     33  N   UNK A   0       7.337   3.620  23.725  0.00  0.00    -0.240 NA
ATOM     34  C   UNK A   0       8.274   4.564  23.444  0.00  0.00    +0.077 A 
ATOM     35  C   UNK A   0       7.930   5.746  22.790  0.00  0.00    +0.138 A 
ATOM     36  C   UNK A   0       4.957   2.947  23.552  0.00  0.00    +0.302 A 
ATOM     37  O   UNK A   0       5.193   1.920  24.181  0.00  0.00    -0.263 OA
ATOM     38  N   UNK A   0       6.667   6.030  22.375  0.00  0.00    -0.234 NA
ATOM     39  N   UNK A   0       3.688   3.232  23.062  0.00  0.00    -0.176 NA
ENDBRANCH  24  34
ENDBRANCH  22  24
ENDBRANCH   1  22
TORSDOF 11
ENDMDL
