MODEL 1
REMARK VINA RESULT:      -4.5      0.000      0.000
REMARK  Name = 
REMARK  7 active torsions:
REMARK  status: ('A' for Active; 'I' for Inactive)
REMARK    1  A    between atoms: C_1  and  C_2
REMARK    2  A    between atoms: C_2  and  C_3
REMARK    3  A    between atoms: C_2  and  C_4
REMARK    4  A    between atoms: C_4  and  C_5
REMARK    5  A    between atoms: C_5  and  N_7
REMARK    6  A    between atoms: C_5  and  C_8
REMARK    7  A    between atoms: N_10  and  O_11
REMARK                            x       y       z     vdW  Elec       q    Type
REMARK                         _______ _______ _______ _____ _____    ______ ____
ROOT
ATOM      1  C   UNL     1       9.019  -4.292  25.061  0.00  0.00    +0.140 C 
ENDROOT
BRANCH   1   2
ATOM      2  C   UNL     1       8.179  -4.560  26.324  0.00  0.00    +0.252 C 
ATOM      3  N   UNL     1       8.310  -5.830  26.843  0.00  0.00    -0.196 N 
ATOM      4  H   UNL     1       8.493  -6.624  26.233  0.00  0.00    +0.182 HD
ATOM      5  O   UNL     1       7.454  -3.717  26.857  0.00  0.00    -0.272 OA
BRANCH   3   6
ATOM      6  O   UNL     1       7.471  -6.098  27.956  0.00  0.00    -0.295 OA
ATOM      7  H   UNL     1       6.659  -6.451  27.528  0.00  0.00    +0.241 HD
ENDBRANCH   3   6
ENDBRANCH   1   2
BRANCH   1   8
ATOM      8  N   UNL     1      10.134  -5.252  24.979  0.00  0.00    -0.320 NA
ATOM      9  H   UNL     1      10.734  -5.044  24.184  0.00  0.00    +0.119 HD
ATOM     10  H   UNL     1       9.743  -6.186  24.814  0.00  0.00    +0.119 HD
ENDBRANCH   1   8
BRANCH   1  11
ATOM     11  C   UNL     1       8.181  -4.188  23.773  0.00  0.00    +0.031 C 
BRANCH  11  13
ATOM     12  C   UNL     1       5.648  -4.654  23.589  0.00  0.00    +0.007 C 
ATOM     13  C   UNL     1       7.062  -5.229  23.534  0.00  0.00    -0.015 C 
ATOM     14  C   UNL     1       7.269  -5.872  22.153  0.00  0.00    +0.007 C 
ENDBRANCH  11  13
ENDBRANCH   1  11
TORSDOF 5
ENDMDL
MODEL 2
REMARK VINA RESULT:      -4.4      1.361      2.038
REMARK  Name = 
REMARK  7 active torsions:
REMARK  status: ('A' for Active; 'I' for Inactive)
REMARK    1  A    between atoms: C_1  and  C_2
REMARK    2  A    between atoms: C_2  and  C_3
REMARK    3  A    between atoms: C_2  and  C_4
REMARK    4  A    between atoms: C_4  and  C_5
REMARK    5  A    between atoms: C_5  and  N_7
REMARK    6  A    between atoms: C_5  and  C_8
REMARK    7  A    between atoms: N_10  and  O_11
REMARK                            x       y       z     vdW  Elec       q    Type
REMARK                         _______ _______ _______ _____ _____    ______ ____
ROOT
ATOM      1  C   UNL     1       9.071  -4.653  25.348  0.00  0.00    +0.140 C 
ENDROOT
BRANCH   1   2
ATOM      2  C   UNL     1       8.164  -4.747  26.589  0.00  0.00    +0.252 C 
ATOM      3  N   UNL     1       8.036  -6.016  27.114  0.00  0.00    -0.196 N 
ATOM      4  H   UNL     1       8.080  -6.833  26.510  0.00  0.00    +0.182 HD
ATOM      5  O   UNL     1       7.601  -3.778  27.102  0.00  0.00    -0.272 OA
BRANCH   3   6
ATOM      6  O   UNL     1       7.135  -6.111  28.205  0.00  0.00    -0.295 OA
ATOM      7  H   UNL     1       6.865  -7.056  28.174  0.00  0.00    +0.241 HD
ENDBRANCH   3   6
ENDBRANCH   1   2
BRANCH   1   8
ATOM      8  N   UNL     1       9.928  -5.848  25.253  0.00  0.00    -0.320 NA
ATOM      9  H   UNL     1       9.645  -6.553  25.929  0.00  0.00    +0.119 HD
ATOM     10  H   UNL     1      10.887  -5.576  25.498  0.00  0.00    +0.119 HD
ENDBRANCH   1   8
BRANCH   1  11
ATOM     11  C   UNL     1       8.309  -4.319  24.052  0.00  0.00    +0.031 C 
BRANCH  11  13
ATOM     12  C   UNL     1       7.478  -1.883  23.844  0.00  0.00    +0.007 C 
ATOM     13  C   UNL     1       8.511  -2.924  23.415  0.00  0.00    -0.015 C 
ATOM     14  C   UNL     1       9.907  -2.403  23.790  0.00  0.00    +0.007 C 
ENDBRANCH  11  13
ENDBRANCH   1  11
TORSDOF 5
ENDMDL
MODEL 3
REMARK VINA RESULT:      -4.2      8.007      8.921
REMARK  Name = 
REMARK  7 active torsions:
REMARK  status: ('A' for Active; 'I' for Inactive)
REMARK    1  A    between atoms: C_1  and  C_2
REMARK    2  A    between atoms: C_2  and  C_3
REMARK    3  A    between atoms: C_2  and  C_4
REMARK    4  A    between atoms: C_4  and  C_5
REMARK    5  A    between atoms: C_5  and  N_7
REMARK    6  A    between atoms: C_5  and  C_8
REMARK    7  A    between atoms: N_10  and  O_11
REMARK                            x       y       z     vdW  Elec       q    Type
REMARK                         _______ _______ _______ _____ _____    ______ ____
ROOT
ATOM      1  C   UNL     1      10.430   2.734  23.254  0.00  0.00    +0.140 C 
ENDROOT
BRANCH   1   2
ATOM      2  C   UNL     1      10.398   1.517  24.198  0.00  0.00    +0.252 C 
ATOM      3  N   UNL     1       9.299   1.463  25.030  0.00  0.00    -0.196 N 
ATOM      4  H   UNL     1       8.858   2.317  25.361  0.00  0.00    +0.182 HD
ATOM      5  O   UNL     1      11.263   0.639  24.214  0.00  0.00    -0.272 OA
BRANCH   3   6
ATOM      6  O   UNL     1       9.316   0.387  25.953  0.00  0.00    -0.295 OA
ATOM      7  H   UNL     1      10.199  -0.016  25.792  0.00  0.00    +0.241 HD
ENDBRANCH   3   6
ENDBRANCH   1   2
BRANCH   1   8
ATOM      8  N   UNL     1      10.177   2.308  21.866  0.00  0.00    -0.320 NA
ATOM      9  H   UNL     1      10.640   1.424  21.668  0.00  0.00    +0.119 HD
ATOM     10  H   UNL     1      10.592   3.003  21.236  0.00  0.00    +0.119 HD
ENDBRANCH   1   8
BRANCH   1  11
ATOM     11  C   UNL     1       9.545   3.903  23.725  0.00  0.00    +0.031 C 
BRANCH  11  13
ATOM     12  C   UNL     1      11.646   5.387  23.507  0.00  0.00    +0.007 C 
ATOM     13  C   UNL     1      10.217   5.262  24.032  0.00  0.00    -0.015 C 
ATOM     14  C   UNL     1       9.373   6.386  23.411  0.00  0.00    +0.007 C 
ENDBRANCH  11  13
ENDBRANCH   1  11
TORSDOF 5
ENDMDL
MODEL 4
REMARK VINA RESULT:      -4.1      6.105      7.135
REMARK  Name = 
REMARK  7 active torsions:
REMARK  status: ('A' for Active; 'I' for Inactive)
REMARK    1  A    between atoms: C_1  and  C_2
REMARK    2  A    between atoms: C_2  and  C_3
REMARK    3  A    between atoms: C_2  and  C_4
REMARK    4  A    between atoms: C_4  and  C_5
REMARK    5  A    between atoms: C_5  and  N_7
REMARK    6  A    between atoms: C_5  and  C_8
REMARK    7  A    between atoms: N_10  and  O_11
REMARK                            x       y       z     vdW  Elec       q    Type
REMARK                         _______ _______ _______ _____ _____    ______ ____
ROOT
ATOM      1  C   UNL     1       9.262   0.739  22.172  0.00  0.00    +0.140 C 
ENDROOT
BRANCH   1   2
ATOM      2  C   UNL     1      10.199   1.671  22.964  0.00  0.00    +0.252 C 
ATOM      3  N   UNL     1      10.397   2.909  22.391  0.00  0.00    -0.196 N 
ATOM      4  H   UNL     1      10.380   3.022  21.380  0.00  0.00    +0.182 HD
ATOM      5  O   UNL     1      10.726   1.365  24.035  0.00  0.00    -0.272 OA
BRANCH   3   6
ATOM      6  O   UNL     1      11.324   3.732  23.080  0.00  0.00    -0.295 OA
ATOM      7  H   UNL     1      11.010   4.637  22.857  0.00  0.00    +0.241 HD
ENDBRANCH   3   6
ENDBRANCH   1   2
BRANCH   1   8
ATOM      8  N   UNL     1       8.763   1.424  20.967  0.00  0.00    -0.320 NA
ATOM      9  H   UNL     1       8.015   0.890  20.529  0.00  0.00    +0.119 HD
ATOM     10  H   UNL     1       9.527   1.470  20.283  0.00  0.00    +0.119 HD
ENDBRANCH   1   8
BRANCH   1  11
ATOM     11  C   UNL     1       9.863  -0.654  21.903  0.00  0.00    +0.031 C 
BRANCH  11  13
ATOM     12  C   UNL     1       9.894  -2.418  23.787  0.00  0.00    +0.007 C 
ATOM     13  C   UNL     1       9.185  -1.887  22.543  0.00  0.00    -0.015 C 
ATOM     14  C   UNL     1       7.743  -1.519  22.929  0.00  0.00    +0.007 C 
ENDBRANCH  11  13
ENDBRANCH   1  11
TORSDOF 5
ENDMDL
MODEL 5
REMARK VINA RESULT:      -4.1      4.997      6.249
REMARK  Name = 
REMARK  7 active torsions:
REMARK  status: ('A' for Active; 'I' for Inactive)
REMARK    1  A    between atoms: C_1  and  C_2
REMARK    2  A    between atoms: C_2  and  C_3
REMARK    3  A    between atoms: C_2  and  C_4
REMARK    4  A    between atoms: C_4  and  C_5
REMARK    5  A    between atoms: C_5  and  N_7
REMARK    6  A    between atoms: C_5  and  C_8
REMARK    7  A    between atoms: N_10  and  O_11
REMARK                            x       y       z     vdW  Elec       q    Type
REMARK                         _______ _______ _______ _____ _____    ______ ____
ROOT
ATOM      1  C   UNL     1       9.559  -1.026  22.696  0.00  0.00    +0.140 C 
ENDROOT
BRANCH   1   2
ATOM      2  C   UNL     1      10.079   0.422  22.763  0.00  0.00    +0.252 C 
ATOM      3  N   UNL     1       9.816   1.180  21.642  0.00  0.00    -0.196 N 
ATOM      4  H   UNL     1       9.771   0.748  20.723  0.00  0.00    +0.182 HD
ATOM      5  O   UNL     1      10.670   0.893  23.737  0.00  0.00    -0.272 OA
BRANCH   3   6
ATOM      6  O   UNL     1      10.370   2.486  21.675  0.00  0.00    -0.295 OA
ATOM      7  H   UNL     1       9.842   2.921  22.382  0.00  0.00    +0.241 HD
ENDBRANCH   3   6
ENDBRANCH   1   2
BRANCH   1   8
ATOM      8  N   UNL     1       9.875  -1.621  21.385  0.00  0.00    -0.320 NA
ATOM      9  H   UNL     1       9.709  -0.954  20.635  0.00  0.00    +0.119 HD
ATOM     10  H   UNL     1       9.236  -2.407  21.226  0.00  0.00    +0.119 HD
ENDBRANCH   1   8
BRANCH   1  11
ATOM     11  C   UNL     1       9.983  -1.890  23.899  0.00  0.00    +0.031 C 
BRANCH  11  13
ATOM     12  C   UNL     1       9.381  -4.163  24.965  0.00  0.00    +0.007 C 
ATOM     13  C   UNL     1       8.911  -2.756  24.601  0.00  0.00    -0.015 C 
ATOM     14  C   UNL     1       8.464  -2.047  25.890  0.00  0.00    +0.007 C 
ENDBRANCH  11  13
ENDBRANCH   1  11
TORSDOF 5
ENDMDL
MODEL 6
REMARK VINA RESULT:      -4.0      4.702      5.723
REMARK  Name = 
REMARK  7 active torsions:
REMARK  status: ('A' for Active; 'I' for Inactive)
REMARK    1  A    between atoms: C_1  and  C_2
REMARK    2  A    between atoms: C_2  and  C_3
REMARK    3  A    between atoms: C_2  and  C_4
REMARK    4  A    between atoms: C_4  and  C_5
REMARK    5  A    between atoms: C_5  and  N_7
REMARK    6  A    between atoms: C_5  and  C_8
REMARK    7  A    between atoms: N_10  and  O_11
REMARK                            x       y       z     vdW  Elec       q    Type
REMARK                         _______ _______ _______ _____ _____    ______ ____
ROOT
ATOM      1  C   UNL     1       9.026  -1.423  21.930  0.00  0.00    +0.140 C 
ENDROOT
BRANCH   1   2
ATOM      2  C   UNL     1       8.667   0.062  22.126  0.00  0.00    +0.252 C 
ATOM      3  N   UNL     1       9.335   0.931  21.288  0.00  0.00    -0.196 N 
ATOM      4  H   UNL     1      10.277   0.721  20.969  0.00  0.00    +0.182 HD
ATOM      5  O   UNL     1       7.840   0.465  22.946  0.00  0.00    -0.272 OA
BRANCH   3   6
ATOM      6  O   UNL     1       9.063   2.302  21.529  0.00  0.00    -0.295 OA
ATOM      7  H   UNL     1       8.273   2.463  20.965  0.00  0.00    +0.241 HD
ENDBRANCH   3   6
ENDBRANCH   1   2
BRANCH   1   8
ATOM      8  N   UNL     1      10.487  -1.586  21.840  0.00  0.00    -0.320 NA
ATOM      9  H   UNL     1      10.870  -1.018  21.088  0.00  0.00    +0.119 HD
ATOM     10  H   UNL     1      10.688  -2.563  21.600  0.00  0.00    +0.119 HD
ENDBRANCH   1   8
BRANCH   1  11
ATOM     11  C   UNL     1       8.348  -2.360  22.947  0.00  0.00    +0.031 C 
BRANCH  11  13
ATOM     12  C   UNL     1       7.352  -4.716  23.303  0.00  0.00    +0.007 C 
ATOM     13  C   UNL     1       7.412  -3.472  22.418  0.00  0.00    -0.015 C 
ATOM     14  C   UNL     1       5.989  -2.903  22.287  0.00  0.00    +0.007 C 
ENDBRANCH  11  13
ENDBRANCH   1  11
TORSDOF 5
ENDMDL
MODEL 7
REMARK VINA RESULT:      -4.0      7.094      8.071
REMARK  Name = 
REMARK  7 active torsions:
REMARK  status: ('A' for Active; 'I' for Inactive)
REMARK    1  A    between atoms: C_1  and  C_2
REMARK    2  A    between atoms: C_2  and  C_3
REMARK    3  A    between atoms: C_2  and  C_4
REMARK    4  A    between atoms: C_4  and  C_5
REMARK    5  A    between atoms: C_5  and  N_7
REMARK    6  A    between atoms: C_5  and  C_8
REMARK    7  A    between atoms: N_10  and  O_11
REMARK                            x       y       z     vdW  Elec       q    Type
REMARK                         _______ _______ _______ _____ _____    ______ ____
ROOT
ATOM      1  C   UNL     1      10.076   1.785  22.588  0.00  0.00    +0.140 C 
ENDROOT
BRANCH   1   2
ATOM      2  C   UNL     1      10.151   0.247  22.621  0.00  0.00    +0.252 C 
ATOM      3  N   UNL     1       9.832  -0.371  21.430  0.00  0.00    -0.196 N 
ATOM      4  H   UNL     1       9.155   0.045  20.795  0.00  0.00    +0.182 HD
ATOM      5  O   UNL     1      10.484  -0.402  23.614  0.00  0.00    -0.272 OA
BRANCH   3   6
ATOM      6  O   UNL     1       9.822  -1.788  21.489  0.00  0.00    -0.295 OA
ATOM      7  H   UNL     1       9.223  -2.026  20.746  0.00  0.00    +0.241 HD
ENDBRANCH   3   6
ENDBRANCH   1   2
BRANCH   1   8
ATOM      8  N   UNL     1       9.152   2.226  21.527  0.00  0.00    -0.320 NA
ATOM      9  H   UNL     1       8.754   3.136  21.749  0.00  0.00    +0.119 HD
ATOM     10  H   UNL     1       8.368   1.566  21.488  0.00  0.00    +0.119 HD
ENDBRANCH   1   8
BRANCH   1  11
ATOM     11  C   UNL     1       9.803   2.419  23.965  0.00  0.00    +0.031 C 
BRANCH  11  13
ATOM     12  C   UNL     1       8.169   3.901  25.307  0.00  0.00    +0.007 C 
ATOM     13  C   UNL     1       8.984   3.729  24.026  0.00  0.00    -0.015 C 
ATOM     14  C   UNL     1       9.945   4.922  23.902  0.00  0.00    +0.007 C 
ENDBRANCH  11  13
ENDBRANCH   1  11
TORSDOF 5
ENDMDL
MODEL 8
REMARK VINA RESULT:      -4.0      5.178      6.108
REMARK  Name = 
REMARK  7 active torsions:
REMARK  status: ('A' for Active; 'I' for Inactive)
REMARK    1  A    between atoms: C_1  and  C_2
REMARK    2  A    between atoms: C_2  and  C_3
REMARK    3  A    between atoms: C_2  and  C_4
REMARK    4  A    between atoms: C_4  and  C_5
REMARK    5  A    between atoms: C_5  and  N_7
REMARK    6  A    between atoms: C_5  and  C_8
REMARK    7  A    between atoms: N_10  and  O_11
REMARK                            x       y       z     vdW  Elec       q    Type
REMARK                         _______ _______ _______ _____ _____    ______ ____
ROOT
ATOM      1  C   UNL     1       9.631  -0.141  24.711  0.00  0.00    +0.140 C 
ENDROOT
BRANCH   1   2
ATOM      2  C   UNL     1       9.817  -1.525  24.062  0.00  0.00    +0.252 C 
ATOM      3  N   UNL     1       9.286  -2.575  24.782  0.00  0.00    -0.196 N 
ATOM      4  H   UNL     1       9.251  -2.541  25.798  0.00  0.00    +0.182 HD
ATOM      5  O   UNL     1      10.377  -1.705  22.979  0.00  0.00    -0.272 OA
BRANCH   3   6
ATOM      6  O   UNL     1       9.533  -3.854  24.222  0.00  0.00    -0.295 OA
ATOM      7  H   UNL     1      10.515  -3.874  24.166  0.00  0.00    +0.241 HD
ENDBRANCH   3   6
ENDBRANCH   1   2
BRANCH   1   8
ATOM      8  N   UNL     1       9.343  -0.287  26.148  0.00  0.00    -0.320 NA
ATOM      9  H   UNL     1       9.150  -1.259  26.383  0.00  0.00    +0.119 HD
ATOM     10  H   UNL     1       8.489   0.240  26.361  0.00  0.00    +0.119 HD
ENDBRANCH   1   8
BRANCH   1  11
ATOM     11  C   UNL     1      10.769   0.847  24.393  0.00  0.00    +0.031 C 
BRANCH  11  13
ATOM     12  C   UNL     1      10.023   1.755  22.094  0.00  0.00    +0.007 C 
ATOM     13  C   UNL     1      10.451   2.085  23.523  0.00  0.00    -0.015 C 
ATOM     14  C   UNL     1       9.324   2.888  24.192  0.00  0.00    +0.007 C 
ENDBRANCH  11  13
ENDBRANCH   1  11
TORSDOF 5
ENDMDL
MODEL 9
REMARK VINA RESULT:      -4.0      4.675      5.452
REMARK  Name = 
REMARK  7 active torsions:
REMARK  status: ('A' for Active; 'I' for Inactive)
REMARK    1  A    between atoms: C_1  and  C_2
REMARK    2  A    between atoms: C_2  and  C_3
REMARK    3  A    between atoms: C_2  and  C_4
REMARK    4  A    between atoms: C_4  and  C_5
REMARK    5  A    between atoms: C_5  and  N_7
REMARK    6  A    between atoms: C_5  and  C_8
REMARK    7  A    between atoms: N_10  and  O_11
REMARK                            x       y       z     vdW  Elec       q    Type
REMARK                         _______ _______ _______ _____ _____    ______ ____
ROOT
ATOM      1  C   UNL     1       9.912  -1.026  22.916  0.00  0.00    +0.140 C 
ENDROOT
BRANCH   1   2
ATOM      2  C   UNL     1       9.660  -2.094  23.996  0.00  0.00    +0.252 C 
ATOM      3  N   UNL     1       8.807  -1.702  25.006  0.00  0.00    -0.196 N 
ATOM      4  H   UNL     1       8.764  -0.728  25.299  0.00  0.00    +0.182 HD
ATOM      5  O   UNL     1      10.155  -3.223  23.973  0.00  0.00    -0.272 OA
BRANCH   3   6
ATOM      6  O   UNL     1       8.645  -2.658  26.041  0.00  0.00    -0.295 OA
ATOM      7  H   UNL     1       9.127  -2.242  26.791  0.00  0.00    +0.241 HD
ENDBRANCH   3   6
ENDBRANCH   1   2
BRANCH   1   8
ATOM      8  N   UNL     1      10.263  -1.669  21.637  0.00  0.00    -0.320 NA
ATOM      9  H   UNL     1      10.691  -2.579  21.794  0.00  0.00    +0.119 HD
ATOM     10  H   UNL     1      10.969  -1.090  21.170  0.00  0.00    +0.119 HD
ENDBRANCH   1   8
BRANCH   1  11
ATOM     11  C   UNL     1       8.785   0.019  22.808  0.00  0.00    +0.031 C 
BRANCH  11  13
ATOM     12  C   UNL     1       7.714   2.079  21.678  0.00  0.00    +0.007 C 
ATOM     13  C   UNL     1       8.928   1.155  21.769  0.00  0.00    -0.015 C 
ATOM     14  C   UNL     1      10.157   2.006  22.128  0.00  0.00    +0.007 C 
ENDBRANCH  11  13
ENDBRANCH   1  11
TORSDOF 5
ENDMDL
