MODEL 1
REMARK VINA RESULT:      -4.2      0.000      0.000
REMARK  Name = 
REMARK  7 active torsions:
REMARK  status: ('A' for Active; 'I' for Inactive)
REMARK    1  A    between atoms: C_1  and  S_2
REMARK    2  A    between atoms: S_2  and  C_4
REMARK    3  A    between atoms: C_4  and  C_5
REMARK    4  A    between atoms: C_5  and  CA_6
REMARK    5  A    between atoms: CA_6  and  N_8
REMARK    6  A    between atoms: CA_6  and  C_9
REMARK    7  A    between atoms: C_9  and  O_10
REMARK                            x       y       z     vdW  Elec       q    Type
REMARK                         _______ _______ _______ _____ _____    ______ ____
ROOT
ATOM      1  CA  UNL     1       8.813  -5.515  25.273  0.00  0.00    +0.161 C 
ENDROOT
BRANCH   1   2
ATOM      2  N   UNL     1      10.259  -5.223  25.041  0.00  0.00    -0.318 NA
ATOM      3  H1  UNL     1      10.793  -5.746  25.746  0.00  0.00    +0.119 HD
ATOM      4  H2  UNL     1      10.540  -5.662  24.160  0.00  0.00    +0.119 HD
ENDBRANCH   1   2
BRANCH   1   5
ATOM      5  C   UNL     1       8.413  -4.906  26.628  0.00  0.00    +0.322 C 
ATOM      6  OXT UNL     1       8.528  -3.730  26.936  0.00  0.00    -0.249 OA
BRANCH   5   7
ATOM      7  O   UNL     1       7.924  -5.854  27.468  0.00  0.00    -0.480 OA
ATOM      8  H   UNL     1       8.399  -5.741  28.327  0.00  0.00    +0.295 HD
ENDBRANCH   5   7
ENDBRANCH   1   5
BRANCH   1   9
ATOM      9  C   UNL     1       7.931  -4.899  24.176  0.00  0.00    +0.043 C 
BRANCH   9  10
ATOM     10  C   UNL     1       6.427  -5.099  24.349  0.00  0.00    +0.105 C 
BRANCH  10  12
ATOM     11  C   UNL     1       7.149  -5.855  21.853  0.00  0.00    +0.121 C 
ATOM     12  S   UNL     1       5.625  -5.576  22.784  0.00  0.00    +0.019 S 
ATOM     13  O   UNL     1       4.967  -4.351  22.226  0.00  0.00    -0.257 OA
ENDBRANCH  10  12
ENDBRANCH   9  10
ENDBRANCH   1   9
TORSDOF 6
ENDMDL
MODEL 2
REMARK VINA RESULT:      -4.1      2.857      3.175
REMARK  Name = 
REMARK  7 active torsions:
REMARK  status: ('A' for Active; 'I' for Inactive)
REMARK    1  A    between atoms: C_1  and  S_2
REMARK    2  A    between atoms: S_2  and  C_4
REMARK    3  A    between atoms: C_4  and  C_5
REMARK    4  A    between atoms: C_5  and  CA_6
REMARK    5  A    between atoms: CA_6  and  N_8
REMARK    6  A    between atoms: CA_6  and  C_9
REMARK    7  A    between atoms: C_9  and  O_10
REMARK                            x       y       z     vdW  Elec       q    Type
REMARK                         _______ _______ _______ _____ _____    ______ ____
ROOT
ATOM      1  CA  UNL     1       8.589  -5.211  25.171  0.00  0.00    +0.161 C 
ENDROOT
BRANCH   1   2
ATOM      2  N   UNL     1      10.010  -5.619  25.382  0.00  0.00    -0.318 NA
ATOM      3  H1  UNL     1      10.414  -5.808  24.456  0.00  0.00    +0.119 HD
ATOM      4  H2  UNL     1      10.537  -4.804  25.705  0.00  0.00    +0.119 HD
ENDBRANCH   1   2
BRANCH   1   5
ATOM      5  C   UNL     1       7.984  -4.860  26.541  0.00  0.00    +0.322 C 
ATOM      6  OXT UNL     1       7.480  -3.789  26.838  0.00  0.00    -0.249 OA
BRANCH   5   7
ATOM      7  O   UNL     1       8.095  -5.900  27.408  0.00  0.00    -0.480 OA
ATOM      8  H   UNL     1       8.838  -6.462  27.078  0.00  0.00    +0.295 HD
ENDBRANCH   5   7
ENDBRANCH   1   5
BRANCH   1   9
ATOM      9  C   UNL     1       8.488  -3.981  24.257  0.00  0.00    +0.043 C 
BRANCH   9  10
ATOM     10  C   UNL     1       9.682  -3.028  24.298  0.00  0.00    +0.105 C 
BRANCH  10  12
ATOM     11  C   UNL     1       8.017  -2.300  22.293  0.00  0.00    +0.121 C 
ATOM     12  S   UNL     1       9.491  -1.656  23.116  0.00  0.00    +0.019 S 
ATOM     13  O   UNL     1      10.629  -1.739  22.145  0.00  0.00    -0.257 OA
ENDBRANCH  10  12
ENDBRANCH   9  10
ENDBRANCH   1   9
TORSDOF 6
ENDMDL
MODEL 3
REMARK VINA RESULT:      -4.1      2.089      2.211
REMARK  Name = 
REMARK  7 active torsions:
REMARK  status: ('A' for Active; 'I' for Inactive)
REMARK    1  A    between atoms: C_1  and  S_2
REMARK    2  A    between atoms: S_2  and  C_4
REMARK    3  A    between atoms: C_4  and  C_5
REMARK    4  A    between atoms: C_5  and  CA_6
REMARK    5  A    between atoms: CA_6  and  N_8
REMARK    6  A    between atoms: CA_6  and  C_9
REMARK    7  A    between atoms: C_9  and  O_10
REMARK                            x       y       z     vdW  Elec       q    Type
REMARK                         _______ _______ _______ _____ _____    ______ ____
ROOT
ATOM      1  CA  UNL     1       8.061  -4.749  26.011  0.00  0.00    +0.161 C 
ENDROOT
BRANCH   1   2
ATOM      2  N   UNL     1       8.027  -5.627  27.219  0.00  0.00    -0.318 NA
ATOM      3  H1  UNL     1       8.438  -6.530  26.951  0.00  0.00    +0.119 HD
ATOM      4  H2  UNL     1       8.693  -5.261  27.904  0.00  0.00    +0.119 HD
ENDBRANCH   1   2
BRANCH   1   5
ATOM      5  C   UNL     1       9.407  -4.966  25.299  0.00  0.00    +0.322 C 
ATOM      6  OXT UNL     1       9.958  -4.159  24.567  0.00  0.00    -0.249 OA
BRANCH   5   7
ATOM      7  O   UNL     1       9.915  -6.195  25.572  0.00  0.00    -0.480 OA
ATOM      8  H   UNL     1      10.885  -6.074  25.710  0.00  0.00    +0.295 HD
ENDBRANCH   5   7
ENDBRANCH   1   5
BRANCH   1   9
ATOM      9  C   UNL     1       6.926  -5.093  25.034  0.00  0.00    +0.043 C 
BRANCH   9  10
ATOM     10  C   UNL     1       6.348  -3.914  24.253  0.00  0.00    +0.105 C 
BRANCH  10  12
ATOM     11  C   UNL     1       7.729  -2.563  22.358  0.00  0.00    +0.121 C 
ATOM     12  S   UNL     1       6.704  -4.047  22.471  0.00  0.00    +0.019 S 
ATOM     13  O   UNL     1       5.426  -3.776  21.737  0.00  0.00    -0.257 OA
ENDBRANCH  10  12
ENDBRANCH   9  10
ENDBRANCH   1   9
TORSDOF 6
ENDMDL
MODEL 4
REMARK VINA RESULT:      -4.1      2.616      3.047
REMARK  Name = 
REMARK  7 active torsions:
REMARK  status: ('A' for Active; 'I' for Inactive)
REMARK    1  A    between atoms: C_1  and  S_2
REMARK    2  A    between atoms: S_2  and  C_4
REMARK    3  A    between atoms: C_4  and  C_5
REMARK    4  A    between atoms: C_5  and  CA_6
REMARK    5  A    between atoms: CA_6  and  N_8
REMARK    6  A    between atoms: CA_6  and  C_9
REMARK    7  A    between atoms: C_9  and  O_10
REMARK                            x       y       z     vdW  Elec       q    Type
REMARK                         _______ _______ _______ _____ _____    ______ ____
ROOT
ATOM      1  CA  UNL     1       8.424  -4.470  26.322  0.00  0.00    +0.161 C 
ENDROOT
BRANCH   1   2
ATOM      2  N   UNL     1       8.291  -5.705  27.150  0.00  0.00    -0.318 NA
ATOM      3  H1  UNL     1       7.655  -6.340  26.652  0.00  0.00    +0.119 HD
ATOM      4  H2  UNL     1       9.183  -6.205  27.131  0.00  0.00    +0.119 HD
ENDBRANCH   1   2
BRANCH   1   5
ATOM      5  C   UNL     1       9.500  -4.724  25.253  0.00  0.00    +0.322 C 
ATOM      6  OXT UNL     1       9.894  -3.906  24.437  0.00  0.00    -0.249 OA
BRANCH   5   7
ATOM      7  O   UNL     1       9.958  -6.001  25.311  0.00  0.00    -0.480 OA
ATOM      8  H   UNL     1       9.213  -6.580  25.020  0.00  0.00    +0.295 HD
ENDBRANCH   5   7
ENDBRANCH   1   5
BRANCH   1   9
ATOM      9  C   UNL     1       7.103  -4.121  25.619  0.00  0.00    +0.043 C 
BRANCH   9  10
ATOM     10  C   UNL     1       6.565  -5.181  24.660  0.00  0.00    +0.105 C 
BRANCH  10  12
ATOM     11  C   UNL     1       4.200  -4.559  25.819  0.00  0.00    +0.121 C 
ATOM     12  S   UNL     1       5.118  -6.044  25.352  0.00  0.00    +0.019 S 
ATOM     13  O   UNL     1       5.560  -6.723  26.612  0.00  0.00    -0.257 OA
ENDBRANCH  10  12
ENDBRANCH   9  10
ENDBRANCH   1   9
TORSDOF 6
ENDMDL
MODEL 5
REMARK VINA RESULT:      -4.1      5.683      6.517
REMARK  Name = 
REMARK  7 active torsions:
REMARK  status: ('A' for Active; 'I' for Inactive)
REMARK    1  A    between atoms: C_1  and  S_2
REMARK    2  A    between atoms: S_2  and  C_4
REMARK    3  A    between atoms: C_4  and  C_5
REMARK    4  A    between atoms: C_5  and  CA_6
REMARK    5  A    between atoms: CA_6  and  N_8
REMARK    6  A    between atoms: CA_6  and  C_9
REMARK    7  A    between atoms: C_9  and  O_10
REMARK                            x       y       z     vdW  Elec       q    Type
REMARK                         _______ _______ _______ _____ _____    ______ ____
ROOT
ATOM      1  CA  UNL     1      10.153  -1.780  23.345  0.00  0.00    +0.161 C 
ENDROOT
BRANCH   1   2
ATOM      2  N   UNL     1       9.995  -3.125  23.975  0.00  0.00    -0.318 NA
ATOM      3  H1  UNL     1       9.140  -3.545  23.587  0.00  0.00    +0.119 HD
ATOM      4  H2  UNL     1      10.736  -3.736  23.623  0.00  0.00    +0.119 HD
ENDBRANCH   1   2
BRANCH   1   5
ATOM      5  C   UNL     1       9.178  -1.690  22.158  0.00  0.00    +0.322 C 
ATOM      6  OXT UNL     1       8.058  -2.173  22.125  0.00  0.00    -0.249 OA
BRANCH   5   7
ATOM      7  O   UNL     1       9.731  -1.012  21.120  0.00  0.00    -0.480 OA
ATOM      8  H   UNL     1      10.334  -0.336  21.515  0.00  0.00    +0.295 HD
ENDBRANCH   5   7
ENDBRANCH   1   5
BRANCH   1   9
ATOM      9  C   UNL     1       9.826  -0.653  24.337  0.00  0.00    +0.043 C 
BRANCH   9  10
ATOM     10  C   UNL     1      10.788   0.534  24.327  0.00  0.00    +0.105 C 
BRANCH  10  12
ATOM     11  C   UNL     1       8.362   1.653  23.894  0.00  0.00    +0.121 C 
ATOM     12  S   UNL     1      10.085   1.964  23.445  0.00  0.00    +0.019 S 
ATOM     13  O   UNL     1      10.229   1.701  21.977  0.00  0.00    -0.257 OA
ENDBRANCH  10  12
ENDBRANCH   9  10
ENDBRANCH   1   9
TORSDOF 6
ENDMDL
MODEL 6
REMARK VINA RESULT:      -4.0      5.656      6.349
REMARK  Name = 
REMARK  7 active torsions:
REMARK  status: ('A' for Active; 'I' for Inactive)
REMARK    1  A    between atoms: C_1  and  S_2
REMARK    2  A    between atoms: S_2  and  C_4
REMARK    3  A    between atoms: C_4  and  C_5
REMARK    4  A    between atoms: C_5  and  CA_6
REMARK    5  A    between atoms: CA_6  and  N_8
REMARK    6  A    between atoms: CA_6  and  C_9
REMARK    7  A    between atoms: C_9  and  O_10
REMARK                            x       y       z     vdW  Elec       q    Type
REMARK                         _______ _______ _______ _____ _____    ______ ____
ROOT
ATOM      1  CA  UNL     1      10.214   1.097  22.720  0.00  0.00    +0.161 C 
ENDROOT
BRANCH   1   2
ATOM      2  N   UNL     1       9.922   2.144  21.696  0.00  0.00    -0.318 NA
ATOM      3  H1  UNL     1      10.304   1.810  20.802  0.00  0.00    +0.119 HD
ATOM      4  H2  UNL     1       8.913   2.159  21.528  0.00  0.00    +0.119 HD
ENDBRANCH   1   2
BRANCH   1   5
ATOM      5  C   UNL     1       9.977   1.709  24.111  0.00  0.00    +0.322 C 
ATOM      6  OXT UNL     1       9.440   2.784  24.329  0.00  0.00    -0.249 OA
BRANCH   5   7
ATOM      7  O   UNL     1      10.463   0.905  25.091  0.00  0.00    -0.480 OA
ATOM      8  H   UNL     1       9.705   0.704  25.692  0.00  0.00    +0.295 HD
ENDBRANCH   5   7
ENDBRANCH   1   5
BRANCH   1   9
ATOM      9  C   UNL     1       9.296  -0.123  22.555  0.00  0.00    +0.043 C 
BRANCH   9  10
ATOM     10  C   UNL     1      10.002  -1.475  22.477  0.00  0.00    +0.105 C 
BRANCH  10  12
ATOM     11  C   UNL     1       8.092  -3.260  23.175  0.00  0.00    +0.121 C 
ATOM     12  S   UNL     1       9.584  -2.539  23.895  0.00  0.00    +0.019 S 
ATOM     13  O   UNL     1       9.160  -1.642  25.019  0.00  0.00    -0.257 OA
ENDBRANCH  10  12
ENDBRANCH   9  10
ENDBRANCH   1   9
TORSDOF 6
ENDMDL
MODEL 7
REMARK VINA RESULT:      -4.0      4.953      5.740
REMARK  Name = 
REMARK  7 active torsions:
REMARK  status: ('A' for Active; 'I' for Inactive)
REMARK    1  A    between atoms: C_1  and  S_2
REMARK    2  A    between atoms: S_2  and  C_4
REMARK    3  A    between atoms: C_4  and  C_5
REMARK    4  A    between atoms: C_5  and  CA_6
REMARK    5  A    between atoms: CA_6  and  N_8
REMARK    6  A    between atoms: CA_6  and  C_9
REMARK    7  A    between atoms: C_9  and  O_10
REMARK                            x       y       z     vdW  Elec       q    Type
REMARK                         _______ _______ _______ _____ _____    ______ ____
ROOT
ATOM      1  CA  UNL     1      10.140  -0.283  22.460  0.00  0.00    +0.161 C 
ENDROOT
BRANCH   1   2
ATOM      2  N   UNL     1      10.092  -1.363  21.431  0.00  0.00    -0.318 NA
ATOM      3  H1  UNL     1       9.103  -1.606  21.289  0.00  0.00    +0.119 HD
ATOM      4  H2  UNL     1      10.367  -0.964  20.529  0.00  0.00    +0.119 HD
ENDBRANCH   1   2
BRANCH   1   5
ATOM      5  C   UNL     1       9.138   0.812  22.053  0.00  0.00    +0.322 C 
ATOM      6  OXT UNL     1       7.930   0.763  22.224  0.00  0.00    -0.249 OA
BRANCH   5   7
ATOM      7  O   UNL     1       9.766   1.853  21.450  0.00  0.00    -0.480 OA
ATOM      8  H   UNL     1       9.278   2.027  20.609  0.00  0.00    +0.295 HD
ENDBRANCH   5   7
ENDBRANCH   1   5
BRANCH   1   9
ATOM      9  C   UNL     1       9.753  -0.813  23.849  0.00  0.00    +0.043 C 
BRANCH   9  10
ATOM     10  C   UNL     1       9.641  -2.332  23.968  0.00  0.00    +0.105 C 
BRANCH  10  12
ATOM     11  C   UNL     1       8.249  -4.650  24.083  0.00  0.00    +0.121 C 
ATOM     12  S   UNL     1       7.917  -2.896  23.799  0.00  0.00    +0.019 S 
ATOM     13  O   UNL     1       7.530  -2.732  22.361  0.00  0.00    -0.257 OA
ENDBRANCH  10  12
ENDBRANCH   9  10
ENDBRANCH   1   9
TORSDOF 6
ENDMDL
MODEL 8
REMARK VINA RESULT:      -3.9      6.085      6.909
REMARK  Name = 
REMARK  7 active torsions:
REMARK  status: ('A' for Active; 'I' for Inactive)
REMARK    1  A    between atoms: C_1  and  S_2
REMARK    2  A    between atoms: S_2  and  C_4
REMARK    3  A    between atoms: C_4  and  C_5
REMARK    4  A    between atoms: C_5  and  CA_6
REMARK    5  A    between atoms: CA_6  and  N_8
REMARK    6  A    between atoms: CA_6  and  C_9
REMARK    7  A    between atoms: C_9  and  O_10
REMARK                            x       y       z     vdW  Elec       q    Type
REMARK                         _______ _______ _______ _____ _____    ______ ____
ROOT
ATOM      1  CA  UNL     1       9.380   1.438  23.511  0.00  0.00    +0.161 C 
ENDROOT
BRANCH   1   2
ATOM      2  N   UNL     1       9.669   2.814  24.013  0.00  0.00    -0.318 NA
ATOM      3  H1  UNL     1       8.949   3.042  24.711  0.00  0.00    +0.119 HD
ATOM      4  H2  UNL     1      10.529   2.782  24.566  0.00  0.00    +0.119 HD
ENDBRANCH   1   2
BRANCH   1   5
ATOM      5  C   UNL     1       9.666   1.410  21.999  0.00  0.00    +0.322 C 
ATOM      6  OXT UNL     1       9.268   0.560  21.220  0.00  0.00    -0.249 OA
BRANCH   5   7
ATOM      7  O   UNL     1      10.449   2.456  21.629  0.00  0.00    -0.480 OA
ATOM      8  H   UNL     1       9.837   3.183  21.358  0.00  0.00    +0.295 HD
ENDBRANCH   5   7
ENDBRANCH   1   5
BRANCH   1   9
ATOM      9  C   UNL     1      10.266   0.390  24.200  0.00  0.00    +0.043 C 
BRANCH   9  10
ATOM     10  C   UNL     1       9.559  -0.894  24.628  0.00  0.00    +0.105 C 
BRANCH  10  12
ATOM     11  C   UNL     1       8.190  -2.277  22.747  0.00  0.00    +0.121 C 
ATOM     12  S   UNL     1       9.855  -2.252  23.450  0.00  0.00    +0.019 S 
ATOM     13  O   UNL     1      10.031  -3.508  24.249  0.00  0.00    -0.257 OA
ENDBRANCH  10  12
ENDBRANCH   9  10
ENDBRANCH   1   9
TORSDOF 6
ENDMDL
MODEL 9
REMARK VINA RESULT:      -3.8      2.064      2.212
REMARK  Name = 
REMARK  7 active torsions:
REMARK  status: ('A' for Active; 'I' for Inactive)
REMARK    1  A    between atoms: C_1  and  S_2
REMARK    2  A    between atoms: S_2  and  C_4
REMARK    3  A    between atoms: C_4  and  C_5
REMARK    4  A    between atoms: C_5  and  CA_6
REMARK    5  A    between atoms: CA_6  and  N_8
REMARK    6  A    between atoms: CA_6  and  C_9
REMARK    7  A    between atoms: C_9  and  O_10
REMARK                            x       y       z     vdW  Elec       q    Type
REMARK                         _______ _______ _______ _____ _____    ______ ____
ROOT
ATOM      1  CA  UNL     1       7.994  -4.773  25.981  0.00  0.00    +0.161 C 
ENDROOT
BRANCH   1   2
ATOM      2  N   UNL     1       7.985  -5.657  27.185  0.00  0.00    -0.318 NA
ATOM      3  H1  UNL     1       8.645  -5.255  27.863  0.00  0.00    +0.119 HD
ATOM      4  H2  UNL     1       7.080  -5.557  27.652  0.00  0.00    +0.119 HD
ENDBRANCH   1   2
BRANCH   1   5
ATOM      5  C   UNL     1       9.359  -4.923  25.288  0.00  0.00    +0.322 C 
ATOM      6  OXT UNL     1       9.873  -4.097  24.551  0.00  0.00    -0.249 OA
BRANCH   5   7
ATOM      7  O   UNL     1       9.931  -6.119  25.582  0.00  0.00    -0.480 OA
ATOM      8  H   UNL     1      10.458  -5.983  26.407  0.00  0.00    +0.295 HD
ENDBRANCH   5   7
ENDBRANCH   1   5
BRANCH   1   9
ATOM      9  C   UNL     1       6.890  -5.165  24.987  0.00  0.00    +0.043 C 
BRANCH   9  10
ATOM     10  C   UNL     1       5.658  -4.263  24.979  0.00  0.00    +0.105 C 
BRANCH  10  12
ATOM     11  C   UNL     1       4.621  -6.636  24.194  0.00  0.00    +0.121 C 
ATOM     12  S   UNL     1       4.376  -4.880  23.842  0.00  0.00    +0.019 S 
ATOM     13  O   UNL     1       4.855  -4.624  22.445  0.00  0.00    -0.257 OA
ENDBRANCH  10  12
ENDBRANCH   9  10
ENDBRANCH   1   9
TORSDOF 6
ENDMDL
