MODEL 1
REMARK VINA RESULT:      -7.6      0.000      0.000
REMARK  Name = 
REMARK  5 active torsions:
REMARK  status: ('A' for Active; 'I' for Inactive)
REMARK    1  A    between atoms: C_1  and  C_2
REMARK    2  A    between atoms: C_9  and  C_10
REMARK    3  A    between atoms: C_10  and  O_11
REMARK    4  A    between atoms: C_19  and  N_20
REMARK    5  A    between atoms: N_23  and  C_24
REMARK                            x       y       z     vdW  Elec       q    Type
REMARK                         _______ _______ _______ _____ _____    ______ ____
ROOT
ATOM      1  C   UNL     1       6.117  -6.371  22.185  0.00  0.00    +0.034 C 
ATOM      2  C   UNL     1       5.681  -5.003  22.734  0.00  0.00    +0.122 C 
ATOM      3  N   UNL     1       5.905  -4.943  24.184  0.00  0.00    -0.337 N 
ATOM      4  C   UNL     1       5.285  -5.819  25.067  0.00  0.00    +0.105 A 
ATOM      5  C   UNL     1       5.456  -5.866  26.394  0.00  0.00    +0.122 A 
ATOM      6  C   UNL     1       6.379  -4.876  26.977  0.00  0.00    +0.204 A 
ATOM      7  C   UNL     1       7.000  -3.880  26.075  0.00  0.00    +0.052 A 
ATOM      8  C   UNL     1       7.812  -2.902  26.634  0.00  0.00    +0.054 A 
ATOM      9  C   UNL     1       8.353  -1.927  25.814  0.00  0.00    +0.149 A 
ATOM     10  C   UNL     1       8.108  -1.875  24.424  0.00  0.00    +0.110 A 
ATOM     11  C   UNL     1       7.270  -2.901  23.889  0.00  0.00    +0.168 A 
ATOM     12  O   UNL     1       6.982  -2.815  22.558  0.00  0.00    -0.486 OA
ATOM     13  F   UNL     1       9.070  -0.964  26.417  0.00  0.00    -0.203 F 
ATOM     14  O   UNL     1       6.595  -4.878  28.188  0.00  0.00    -0.286 OA
ATOM     15  C   UNL     1       6.727  -3.920  24.693  0.00  0.00    +0.097 A 
ATOM     16  C   UNL     1       6.382  -3.918  21.908  0.00  0.00    +0.254 C 
ENDROOT
BRANCH  10  17
ATOM     17  N   UNL     1       8.626  -0.819  23.675  0.00  0.00    -0.322 N 
ATOM     18  C   UNL     1       7.980   0.507  23.703  0.00  0.00    +0.120 C 
ATOM     19  C   UNL     1       8.062   1.159  22.302  0.00  0.00    +0.103 C 
ATOM     20  N   UNL     1       9.425   1.240  21.722  0.00  0.00    -0.302 NA
ATOM     21  C   UNL     1      10.243   2.238  22.405  0.00  0.00    +0.105 C 
ATOM     22  C   UNL     1      10.048  -0.101  21.782  0.00  0.00    +0.103 C 
ATOM     23  C   UNL     1      10.002  -0.808  23.159  0.00  0.00    +0.120 C 
ENDBRANCH  10  17
BRANCH   5  24
ATOM     24  C   UNL     1       4.742  -6.886  27.191  0.00  0.00    +0.342 C 
ATOM     25  O   UNL     1       3.554  -7.135  27.044  0.00  0.00    -0.245 OA
BRANCH  24  26
ATOM     26  O   UNL     1       5.506  -7.531  28.096  0.00  0.00    -0.477 OA
ATOM     27  H   UNL     1       4.991  -8.008  28.793  0.00  0.00    +0.295 HD
ENDBRANCH  24  26
ENDBRANCH   5  24
TORSDOF 3
ENDMDL
MODEL 2
REMARK VINA RESULT:      -7.2      3.662      7.890
REMARK  Name = 
REMARK  5 active torsions:
REMARK  status: ('A' for Active; 'I' for Inactive)
REMARK    1  A    between atoms: C_1  and  C_2
REMARK    2  A    between atoms: C_9  and  C_10
REMARK    3  A    between atoms: C_10  and  O_11
REMARK    4  A    between atoms: C_19  and  N_20
REMARK    5  A    between atoms: N_23  and  C_24
REMARK                            x       y       z     vdW  Elec       q    Type
REMARK                         _______ _______ _______ _____ _____    ______ ____
ROOT
ATOM      1  C   UNL     1       5.954   2.487  26.466  0.00  0.00    +0.034 C 
ATOM      2  C   UNL     1       6.126   2.019  25.011  0.00  0.00    +0.122 C 
ATOM      3  N   UNL     1       7.499   2.277  24.554  0.00  0.00    -0.337 N 
ATOM      4  C   UNL     1       8.037   3.558  24.512  0.00  0.00    +0.105 A 
ATOM      5  C   UNL     1       9.284   3.886  24.149  0.00  0.00    +0.122 A 
ATOM      6  C   UNL     1      10.164   2.778  23.733  0.00  0.00    +0.204 A 
ATOM      7  C   UNL     1       9.599   1.411  23.696  0.00  0.00    +0.052 A 
ATOM      8  C   UNL     1      10.407   0.378  23.235  0.00  0.00    +0.054 A 
ATOM      9  C   UNL     1       9.877  -0.897  23.137  0.00  0.00    +0.149 A 
ATOM     10  C   UNL     1       8.540  -1.198  23.477  0.00  0.00    +0.110 A 
ATOM     11  C   UNL     1       7.745  -0.109  23.949  0.00  0.00    +0.168 A 
ATOM     12  O   UNL     1       6.436  -0.385  24.219  0.00  0.00    -0.486 OA
ATOM     13  F   UNL     1      10.678  -1.842  22.616  0.00  0.00    -0.203 F 
ATOM     14  O   UNL     1      11.327   3.009  23.406  0.00  0.00    -0.286 OA
ATOM     15  C   UNL     1       8.263   1.193  24.085  0.00  0.00    +0.097 A 
ATOM     16  C   UNL     1       5.661   0.561  24.926  0.00  0.00    +0.254 C 
ENDROOT
BRANCH  10  17
ATOM     17  N   UNL     1       8.057  -2.491  23.280  0.00  0.00    -0.322 N 
ATOM     18  C   UNL     1       7.407  -2.861  22.008  0.00  0.00    +0.120 C 
ATOM     19  C   UNL     1       6.244  -3.845  22.281  0.00  0.00    +0.103 C 
ATOM     20  N   UNL     1       6.607  -5.049  23.068  0.00  0.00    -0.302 NA
ATOM     21  C   UNL     1       7.416  -5.980  22.286  0.00  0.00    +0.105 C 
ATOM     22  C   UNL     1       7.313  -4.620  24.295  0.00  0.00    +0.103 C 
ATOM     23  C   UNL     1       8.491  -3.636  24.091  0.00  0.00    +0.120 C 
ENDBRANCH  10  17
BRANCH   5  24
ATOM     24  C   UNL     1       9.713   5.299  24.190  0.00  0.00    +0.342 C 
ATOM     25  O   UNL     1       9.580   6.007  25.178  0.00  0.00    -0.245 OA
BRANCH  24  26
ATOM     26  O   UNL     1      10.270   5.754  23.048  0.00  0.00    -0.477 OA
ATOM     27  H   UNL     1      10.774   6.598  23.153  0.00  0.00    +0.295 HD
ENDBRANCH  24  26
ENDBRANCH   5  24
TORSDOF 3
ENDMDL
MODEL 3
REMARK VINA RESULT:      -7.1      3.167      4.853
REMARK  Name = 
REMARK  5 active torsions:
REMARK  status: ('A' for Active; 'I' for Inactive)
REMARK    1  A    between atoms: C_1  and  C_2
REMARK    2  A    between atoms: C_9  and  C_10
REMARK    3  A    between atoms: C_10  and  O_11
REMARK    4  A    between atoms: C_19  and  N_20
REMARK    5  A    between atoms: N_23  and  C_24
REMARK                            x       y       z     vdW  Elec       q    Type
REMARK                         _______ _______ _______ _____ _____    ______ ____
ROOT
ATOM      1  C   UNL     1       4.843  -1.964  25.606  0.00  0.00    +0.034 C 
ATOM      2  C   UNL     1       6.048  -1.089  25.991  0.00  0.00    +0.122 C 
ATOM      3  N   UNL     1       7.264  -1.579  25.325  0.00  0.00    -0.337 N 
ATOM      4  C   UNL     1       7.758  -2.861  25.534  0.00  0.00    +0.105 A 
ATOM      5  C   UNL     1       8.830  -3.406  24.947  0.00  0.00    +0.122 A 
ATOM      6  C   UNL     1       9.570  -2.553  24.000  0.00  0.00    +0.204 A 
ATOM      7  C   UNL     1       9.114  -1.158  23.810  0.00  0.00    +0.052 A 
ATOM      8  C   UNL     1       9.855  -0.332  22.972  0.00  0.00    +0.054 A 
ATOM      9  C   UNL     1       9.477   0.992  22.829  0.00  0.00    +0.149 A 
ATOM     10  C   UNL     1       8.371   1.550  23.507  0.00  0.00    +0.110 A 
ATOM     11  C   UNL     1       7.636   0.666  24.355  0.00  0.00    +0.168 A 
ATOM     12  O   UNL     1       6.605   1.219  25.058  0.00  0.00    -0.486 OA
ATOM     13  F   UNL     1      10.270   1.764  22.067  0.00  0.00    -0.203 F 
ATOM     14  O   UNL     1      10.554  -3.000  23.411  0.00  0.00    -0.286 OA
ATOM     15  C   UNL     1       7.979  -0.691  24.500  0.00  0.00    +0.097 A 
ATOM     16  C   UNL     1       5.680   0.372  25.710  0.00  0.00    +0.254 C 
ENDROOT
BRANCH  10  17
ATOM     17  N   UNL     1       8.099   2.910  23.371  0.00  0.00    -0.322 N 
ATOM     18  C   UNL     1       8.852   3.908  24.156  0.00  0.00    +0.120 C 
ATOM     19  C   UNL     1       7.914   5.069  24.565  0.00  0.00    +0.103 C 
ATOM     20  N   UNL     1       7.179   5.711  23.447  0.00  0.00    -0.302 NA
ATOM     21  C   UNL     1       8.066   6.515  22.611  0.00  0.00    +0.105 C 
ATOM     22  C   UNL     1       6.501   4.659  22.658  0.00  0.00    +0.103 C 
ATOM     23  C   UNL     1       7.385   3.468  22.214  0.00  0.00    +0.120 C 
ENDBRANCH  10  17
BRANCH   5  24
ATOM     24  C   UNL     1       9.206  -4.801  25.256  0.00  0.00    +0.342 C 
ATOM     25  O   UNL     1       8.410  -5.629  25.677  0.00  0.00    -0.245 OA
BRANCH  24  26
ATOM     26  O   UNL     1      10.503  -5.099  25.033  0.00  0.00    -0.477 OA
ATOM     27  H   UNL     1      10.737  -5.202  24.078  0.00  0.00    +0.295 HD
ENDBRANCH  24  26
ENDBRANCH   5  24
TORSDOF 3
ENDMDL
MODEL 4
REMARK VINA RESULT:      -6.9      3.953      8.323
REMARK  Name = 
REMARK  5 active torsions:
REMARK  status: ('A' for Active; 'I' for Inactive)
REMARK    1  A    between atoms: C_1  and  C_2
REMARK    2  A    between atoms: C_9  and  C_10
REMARK    3  A    between atoms: C_10  and  O_11
REMARK    4  A    between atoms: C_19  and  N_20
REMARK    5  A    between atoms: N_23  and  C_24
REMARK                            x       y       z     vdW  Elec       q    Type
REMARK                         _______ _______ _______ _____ _____    ______ ____
ROOT
ATOM      1  C   UNL     1       6.810   3.466  27.367  0.00  0.00    +0.034 C 
ATOM      2  C   UNL     1       6.669   2.706  26.038  0.00  0.00    +0.122 C 
ATOM      3  N   UNL     1       7.889   2.858  25.233  0.00  0.00    -0.337 N 
ATOM      4  C   UNL     1       8.347   4.100  24.809  0.00  0.00    +0.105 A 
ATOM      5  C   UNL     1       9.463   4.340  24.109  0.00  0.00    +0.122 A 
ATOM      6  C   UNL     1      10.274   3.167  23.735  0.00  0.00    +0.204 A 
ATOM      7  C   UNL     1       9.777   1.824  24.108  0.00  0.00    +0.052 A 
ATOM      8  C   UNL     1      10.504   0.715  23.692  0.00  0.00    +0.054 A 
ATOM      9  C   UNL     1      10.023  -0.550  23.980  0.00  0.00    +0.149 A 
ATOM     10  C   UNL     1       8.813  -0.769  24.674  0.00  0.00    +0.110 A 
ATOM     11  C   UNL     1       8.098   0.397  25.086  0.00  0.00    +0.168 A 
ATOM     12  O   UNL     1       6.898   0.188  25.701  0.00  0.00    -0.486 OA
ATOM     13  F   UNL     1      10.726  -1.586  23.492  0.00  0.00    -0.203 F 
ATOM     14  O   UNL     1      11.321   3.321  23.109  0.00  0.00    -0.286 OA
ATOM     15  C   UNL     1       8.575   1.697  24.831  0.00  0.00    +0.097 A 
ATOM     16  C   UNL     1       6.261   1.263  26.360  0.00  0.00    +0.254 C 
ENDROOT
BRANCH  10  17
ATOM     17  N   UNL     1       8.355  -2.073  24.861  0.00  0.00    -0.322 N 
ATOM     18  C   UNL     1       8.335  -2.674  26.208  0.00  0.00    +0.120 C 
ATOM     19  C   UNL     1       8.690  -4.177  26.116  0.00  0.00    +0.103 C 
ATOM     20  N   UNL     1       7.865  -4.964  25.166  0.00  0.00    -0.302 NA
ATOM     21  C   UNL     1       6.506  -5.156  25.664  0.00  0.00    +0.105 C 
ATOM     22  C   UNL     1       7.867  -4.279  23.854  0.00  0.00    +0.103 C 
ATOM     23  C   UNL     1       7.517  -2.771  23.877  0.00  0.00    +0.120 C 
ENDBRANCH  10  17
BRANCH   5  24
ATOM     24  C   UNL     1       9.826   5.730  23.762  0.00  0.00    +0.342 C 
ATOM     25  O   UNL     1       9.014   6.552  23.362  0.00  0.00    -0.245 OA
BRANCH  24  26
ATOM     26  O   UNL     1      11.132   6.029  23.925  0.00  0.00    -0.477 OA
ATOM     27  H   UNL     1      11.430   6.825  23.421  0.00  0.00    +0.295 HD
ENDBRANCH  24  26
ENDBRANCH   5  24
TORSDOF 3
ENDMDL
MODEL 5
REMARK VINA RESULT:      -6.9      2.866      7.537
REMARK  Name = 
REMARK  5 active torsions:
REMARK  status: ('A' for Active; 'I' for Inactive)
REMARK    1  A    between atoms: C_1  and  C_2
REMARK    2  A    between atoms: C_9  and  C_10
REMARK    3  A    between atoms: C_10  and  O_11
REMARK    4  A    between atoms: C_19  and  N_20
REMARK    5  A    between atoms: N_23  and  C_24
REMARK                            x       y       z     vdW  Elec       q    Type
REMARK                         _______ _______ _______ _____ _____    ______ ____
ROOT
ATOM      1  C   UNL     1       6.919   0.903  26.856  0.00  0.00    +0.034 C 
ATOM      2  C   UNL     1       6.246   0.413  25.563  0.00  0.00    +0.122 C 
ATOM      3  N   UNL     1       7.263   0.076  24.557  0.00  0.00    -0.337 N 
ATOM      4  C   UNL     1       8.168   1.015  24.075  0.00  0.00    +0.105 A 
ATOM      5  C   UNL     1       9.150   0.794  23.192  0.00  0.00    +0.122 A 
ATOM      6  C   UNL     1       9.268  -0.578  22.665  0.00  0.00    +0.204 A 
ATOM      7  C   UNL     1       8.275  -1.584  23.102  0.00  0.00    +0.052 A 
ATOM      8  C   UNL     1       8.342  -2.858  22.550  0.00  0.00    +0.054 A 
ATOM      9  C   UNL     1       7.386  -3.794  22.901  0.00  0.00    +0.149 A 
ATOM     10  C   UNL     1       6.330  -3.511  23.795  0.00  0.00    +0.110 A 
ATOM     11  C   UNL     1       6.299  -2.192  24.342  0.00  0.00    +0.168 A 
ATOM     12  O   UNL     1       5.244  -1.897  25.157  0.00  0.00    -0.486 OA
ATOM     13  F   UNL     1       7.455  -4.985  22.283  0.00  0.00    -0.203 F 
ATOM     14  O   UNL     1      10.161  -0.852  21.865  0.00  0.00    -0.286 OA
ATOM     15  C   UNL     1       7.273  -1.226  24.024  0.00  0.00    +0.097 A 
ATOM     16  C   UNL     1       5.278  -0.717  25.933  0.00  0.00    +0.254 C 
ENDROOT
BRANCH  10  17
ATOM     17  N   UNL     1       5.361  -4.482  24.042  0.00  0.00    -0.322 N 
ATOM     18  C   UNL     1       5.410  -5.293  25.274  0.00  0.00    +0.120 C 
ATOM     19  C   UNL     1       4.943  -6.737  24.970  0.00  0.00    +0.103 C 
ATOM     20  N   UNL     1       3.619  -6.846  24.310  0.00  0.00    -0.302 NA
ATOM     21  C   UNL     1       2.530  -6.521  25.227  0.00  0.00    +0.105 C 
ATOM     22  C   UNL     1       3.605  -5.962  23.123  0.00  0.00    +0.103 C 
ATOM     23  C   UNL     1       4.060  -4.502  23.360  0.00  0.00    +0.120 C 
ENDBRANCH  10  17
BRANCH   5  24
ATOM     24  C   UNL     1      10.052   1.899  22.805  0.00  0.00    +0.342 C 
ATOM     25  O   UNL     1      10.735   2.515  23.610  0.00  0.00    -0.245 OA
BRANCH  24  26
ATOM     26  O   UNL     1      10.069   2.177  21.485  0.00  0.00    -0.477 OA
ATOM     27  H   UNL     1       9.738   1.442  20.912  0.00  0.00    +0.295 HD
ENDBRANCH  24  26
ENDBRANCH   5  24
TORSDOF 3
ENDMDL
MODEL 6
REMARK VINA RESULT:      -6.9      2.216      3.276
REMARK  Name = 
REMARK  5 active torsions:
REMARK  status: ('A' for Active; 'I' for Inactive)
REMARK    1  A    between atoms: C_1  and  C_2
REMARK    2  A    between atoms: C_9  and  C_10
REMARK    3  A    between atoms: C_10  and  O_11
REMARK    4  A    between atoms: C_19  and  N_20
REMARK    5  A    between atoms: N_23  and  C_24
REMARK                            x       y       z     vdW  Elec       q    Type
REMARK                         _______ _______ _______ _____ _____    ______ ____
ROOT
ATOM      1  C   UNL     1       3.708  -1.942  26.662  0.00  0.00    +0.034 C 
ATOM      2  C   UNL     1       5.232  -2.152  26.655  0.00  0.00    +0.122 C 
ATOM      3  N   UNL     1       5.602  -3.154  25.647  0.00  0.00    -0.337 N 
ATOM      4  C   UNL     1       5.130  -4.460  25.692  0.00  0.00    +0.105 A 
ATOM      5  C   UNL     1       5.380  -5.429  24.802  0.00  0.00    +0.122 A 
ATOM      6  C   UNL     1       6.259  -5.077  23.672  0.00  0.00    +0.204 A 
ATOM      7  C   UNL     1       6.838  -3.715  23.633  0.00  0.00    +0.052 A 
ATOM      8  C   UNL     1       7.724  -3.407  22.608  0.00  0.00    +0.054 A 
ATOM      9  C   UNL     1       8.321  -2.158  22.588  0.00  0.00    +0.149 A 
ATOM     10  C   UNL     1       8.077  -1.178  23.575  0.00  0.00    +0.110 A 
ATOM     11  C   UNL     1       7.157  -1.535  24.609  0.00  0.00    +0.168 A 
ATOM     12  O   UNL     1       6.969  -0.612  25.597  0.00  0.00    -0.486 OA
ATOM     13  F   UNL     1       9.225  -1.939  21.618  0.00  0.00    -0.203 F 
ATOM     14  O   UNL     1       6.512  -5.915  22.808  0.00  0.00    -0.286 OA
ATOM     15  C   UNL     1       6.515  -2.786  24.641  0.00  0.00    +0.097 A 
ATOM     16  C   UNL     1       5.897  -0.778  26.502  0.00  0.00    +0.254 C 
ENDROOT
BRANCH  10  17
ATOM     17  N   UNL     1       8.774   0.029  23.531  0.00  0.00    -0.322 N 
ATOM     18  C   UNL     1       8.385   1.083  22.574  0.00  0.00    +0.120 C 
ATOM     19  C   UNL     1       9.648   1.809  22.054  0.00  0.00    +0.103 C 
ATOM     20  N   UNL     1      10.547   2.346  23.106  0.00  0.00    -0.302 NA
ATOM     21  C   UNL     1       9.964   3.507  23.772  0.00  0.00    +0.105 C 
ATOM     22  C   UNL     1      10.847   1.265  24.071  0.00  0.00    +0.103 C 
ATOM     23  C   UNL     1       9.624   0.499  24.632  0.00  0.00    +0.120 C 
ENDBRANCH  10  17
BRANCH   5  24
ATOM     24  C   UNL     1       4.772  -6.764  24.979  0.00  0.00    +0.342 C 
ATOM     25  O   UNL     1       4.516  -7.239  26.076  0.00  0.00    -0.245 OA
BRANCH  24  26
ATOM     26  O   UNL     1       4.513  -7.423  23.831  0.00  0.00    -0.477 OA
ATOM     27  H   UNL     1       5.160  -7.241  23.105  0.00  0.00    +0.295 HD
ENDBRANCH  24  26
ENDBRANCH   5  24
TORSDOF 3
ENDMDL
MODEL 7
REMARK VINA RESULT:      -6.8      2.358      2.852
REMARK  Name = 
REMARK  5 active torsions:
REMARK  status: ('A' for Active; 'I' for Inactive)
REMARK    1  A    between atoms: C_1  and  C_2
REMARK    2  A    between atoms: C_9  and  C_10
REMARK    3  A    between atoms: C_10  and  O_11
REMARK    4  A    between atoms: C_19  and  N_20
REMARK    5  A    between atoms: N_23  and  C_24
REMARK                            x       y       z     vdW  Elec       q    Type
REMARK                         _______ _______ _______ _____ _____    ______ ____
ROOT
ATOM      1  C   UNL     1       3.333  -2.439  26.616  0.00  0.00    +0.034 C 
ATOM      2  C   UNL     1       4.727  -1.922  27.009  0.00  0.00    +0.122 C 
ATOM      3  N   UNL     1       5.692  -3.030  27.030  0.00  0.00    -0.337 N 
ATOM      4  C   UNL     1       5.543  -4.127  27.870  0.00  0.00    +0.105 A 
ATOM      5  C   UNL     1       6.345  -5.198  27.932  0.00  0.00    +0.122 A 
ATOM      6  C   UNL     1       7.513  -5.201  27.033  0.00  0.00    +0.204 A 
ATOM      7  C   UNL     1       7.742  -4.015  26.178  0.00  0.00    +0.052 A 
ATOM      8  C   UNL     1       8.883  -3.987  25.385  0.00  0.00    +0.054 A 
ATOM      9  C   UNL     1       9.145  -2.861  24.623  0.00  0.00    +0.149 A 
ATOM     10  C   UNL     1       8.305  -1.725  24.623  0.00  0.00    +0.110 A 
ATOM     11  C   UNL     1       7.142  -1.797  25.450  0.00  0.00    +0.168 A 
ATOM     12  O   UNL     1       6.363  -0.677  25.499  0.00  0.00    -0.486 OA
ATOM     13  F   UNL     1      10.297  -2.857  23.932  0.00  0.00    -0.203 F 
ATOM     14  O   UNL     1       8.279  -6.163  27.027  0.00  0.00    -0.286 OA
ATOM     15  C   UNL     1       6.835  -2.938  26.215  0.00  0.00    +0.097 A 
ATOM     16  C   UNL     1       5.077  -0.754  26.079  0.00  0.00    +0.254 C 
ENDROOT
BRANCH  10  17
ATOM     17  N   UNL     1       8.674  -0.599  23.889  0.00  0.00    -0.322 N 
ATOM     18  C   UNL     1       8.117  -0.367  22.542  0.00  0.00    +0.120 C 
ATOM     19  C   UNL     1       9.196   0.266  21.631  0.00  0.00    +0.103 C 
ATOM     20  N   UNL     1       9.833   1.494  22.167  0.00  0.00    -0.302 NA
ATOM     21  C   UNL     1       8.918   2.633  22.137  0.00  0.00    +0.105 C 
ATOM     22  C   UNL     1      10.311   1.223  23.540  0.00  0.00    +0.103 C 
ATOM     23  C   UNL     1       9.277   0.590  24.505  0.00  0.00    +0.120 C 
ENDBRANCH  10  17
BRANCH   5  24
ATOM     24  C   UNL     1       6.027  -6.300  28.863  0.00  0.00    +0.342 C 
ATOM     25  O   UNL     1       6.162  -6.209  30.075  0.00  0.00    -0.245 OA
BRANCH  24  26
ATOM     26  O   UNL     1       5.568  -7.423  28.272  0.00  0.00    -0.477 OA
ATOM     27  H   UNL     1       6.275  -7.989  27.875  0.00  0.00    +0.295 HD
ENDBRANCH  24  26
ENDBRANCH   5  24
TORSDOF 3
ENDMDL
MODEL 8
REMARK VINA RESULT:      -6.6      2.173      2.682
REMARK  Name = 
REMARK  5 active torsions:
REMARK  status: ('A' for Active; 'I' for Inactive)
REMARK    1  A    between atoms: C_1  and  C_2
REMARK    2  A    between atoms: C_9  and  C_10
REMARK    3  A    between atoms: C_10  and  O_11
REMARK    4  A    between atoms: C_19  and  N_20
REMARK    5  A    between atoms: N_23  and  C_24
REMARK                            x       y       z     vdW  Elec       q    Type
REMARK                         _______ _______ _______ _____ _____    ______ ____
ROOT
ATOM      1  C   UNL     1       9.818  -5.059  25.555  0.00  0.00    +0.034 C 
ATOM      2  C   UNL     1       8.937  -4.374  24.498  0.00  0.00    +0.122 C 
ATOM      3  N   UNL     1       7.545  -4.303  24.966  0.00  0.00    -0.337 N 
ATOM      4  C   UNL     1       6.806  -5.440  25.267  0.00  0.00    +0.105 A 
ATOM      5  C   UNL     1       5.551  -5.474  25.734  0.00  0.00    +0.122 A 
ATOM      6  C   UNL     1       4.884  -4.174  25.929  0.00  0.00    +0.204 A 
ATOM      7  C   UNL     1       5.617  -2.946  25.548  0.00  0.00    +0.052 A 
ATOM      8  C   UNL     1       4.961  -1.726  25.663  0.00  0.00    +0.054 A 
ATOM      9  C   UNL     1       5.610  -0.573  25.256  0.00  0.00    +0.149 A 
ATOM     10  C   UNL     1       6.915  -0.579  24.716  0.00  0.00    +0.110 A 
ATOM     11  C   UNL     1       7.554  -1.853  24.618  0.00  0.00    +0.168 A 
ATOM     12  O   UNL     1       8.790  -1.869  24.039  0.00  0.00    -0.486 OA
ATOM     13  F   UNL     1       4.904   0.568  25.320  0.00  0.00    -0.203 F 
ATOM     14  O   UNL     1       3.738  -4.134  26.374  0.00  0.00    -0.286 OA
ATOM     15  C   UNL     1       6.930  -3.040  25.048  0.00  0.00    +0.097 A 
ATOM     16  C   UNL     1       9.586  -3.032  24.139  0.00  0.00    +0.254 C 
ENDROOT
BRANCH  10  17
ATOM     17  N   UNL     1       7.473   0.612  24.258  0.00  0.00    -0.322 N 
ATOM     18  C   UNL     1       7.094   1.160  22.941  0.00  0.00    +0.120 C 
ATOM     19  C   UNL     1       8.325   1.820  22.274  0.00  0.00    +0.103 C 
ATOM     20  N   UNL     1       9.019   2.840  23.098  0.00  0.00    -0.302 NA
ATOM     21  C   UNL     1       8.232   4.064  23.216  0.00  0.00    +0.105 C 
ATOM     22  C   UNL     1       9.314   2.258  24.426  0.00  0.00    +0.103 C 
ATOM     23  C   UNL     1       8.122   1.583  25.150  0.00  0.00    +0.120 C 
ENDBRANCH  10  17
BRANCH   5  24
ATOM     24  C   UNL     1       4.915  -6.773  26.036  0.00  0.00    +0.342 C 
ATOM     25  O   UNL     1       4.277  -7.410  25.211  0.00  0.00    -0.245 OA
BRANCH  24  26
ATOM     26  O   UNL     1       5.095  -7.209  27.300  0.00  0.00    -0.477 OA
ATOM     27  H   UNL     1       5.902  -7.767  27.424  0.00  0.00    +0.295 HD
ENDBRANCH  24  26
ENDBRANCH   5  24
TORSDOF 3
ENDMDL
MODEL 9
REMARK VINA RESULT:      -6.5      2.828      7.545
REMARK  Name = 
REMARK  5 active torsions:
REMARK  status: ('A' for Active; 'I' for Inactive)
REMARK    1  A    between atoms: C_1  and  C_2
REMARK    2  A    between atoms: C_9  and  C_10
REMARK    3  A    between atoms: C_10  and  O_11
REMARK    4  A    between atoms: C_19  and  N_20
REMARK    5  A    between atoms: N_23  and  C_24
REMARK                            x       y       z     vdW  Elec       q    Type
REMARK                         _______ _______ _______ _____ _____    ______ ____
ROOT
ATOM      1  C   UNL     1       6.278   2.016  26.505  0.00  0.00    +0.034 C 
ATOM      2  C   UNL     1       6.005   0.917  25.465  0.00  0.00    +0.122 C 
ATOM      3  N   UNL     1       7.256   0.520  24.805  0.00  0.00    -0.337 N 
ATOM      4  C   UNL     1       8.028   1.419  24.079  0.00  0.00    +0.105 A 
ATOM      5  C   UNL     1       9.196   1.161  23.478  0.00  0.00    +0.122 A 
ATOM      6  C   UNL     1       9.701  -0.220  23.580  0.00  0.00    +0.204 A 
ATOM      7  C   UNL     1       8.867  -1.221  24.283  0.00  0.00    +0.052 A 
ATOM      8  C   UNL     1       9.309  -2.538  24.317  0.00  0.00    +0.054 A 
ATOM      9  C   UNL     1       8.514  -3.498  24.918  0.00  0.00    +0.149 A 
ATOM     10  C   UNL     1       7.260  -3.201  25.496  0.00  0.00    +0.110 A 
ATOM     11  C   UNL     1       6.845  -1.835  25.443  0.00  0.00    +0.168 A 
ATOM     12  O   UNL     1       5.607  -1.557  25.944  0.00  0.00    -0.486 OA
ATOM     13  F   UNL     1       8.954  -4.767  24.857  0.00  0.00    -0.203 F 
ATOM     14  O   UNL     1      10.778  -0.519  23.067  0.00  0.00    -0.286 OA
ATOM     15  C   UNL     1       7.644  -0.832  24.861  0.00  0.00    +0.097 A 
ATOM     16  C   UNL     1       5.235  -0.212  26.162  0.00  0.00    +0.254 C 
ENDROOT
BRANCH  10  17
ATOM     17  N   UNL     1       6.482  -4.234  26.015  0.00  0.00    -0.322 N 
ATOM     18  C   UNL     1       6.404  -4.453  27.473  0.00  0.00    +0.120 C 
ATOM     19  C   UNL     1       6.330  -5.970  27.771  0.00  0.00    +0.103 C 
ATOM     20  N   UNL     1       5.252  -6.701  27.061  0.00  0.00    -0.302 NA
ATOM     21  C   UNL     1       3.934  -6.374  27.598  0.00  0.00    +0.105 C 
ATOM     22  C   UNL     1       5.338  -6.391  25.617  0.00  0.00    +0.103 C 
ATOM     23  C   UNL     1       5.412  -4.889  25.250  0.00  0.00    +0.120 C 
ENDBRANCH  10  17
BRANCH   5  24
ATOM     24  C   UNL     1       9.912   2.242  22.769  0.00  0.00    +0.342 C 
ATOM     25  O   UNL     1      10.320   3.250  23.329  0.00  0.00    -0.245 OA
BRANCH  24  26
ATOM     26  O   UNL     1      10.087   2.032  21.448  0.00  0.00    -0.477 OA
ATOM     27  H   UNL     1       9.958   1.093  21.167  0.00  0.00    +0.295 HD
ENDBRANCH  24  26
ENDBRANCH   5  24
TORSDOF 3
ENDMDL
