MODEL 1
REMARK VINA RESULT:      32.2      0.000      0.000
REMARK  Name = 
REMARK  55 active torsions:
REMARK  status: ('A' for Active; 'I' for Inactive)
REMARK    1  A    between atoms: CA_9  and  CB_11
REMARK    2  A    between atoms: CB_11  and  CG_12
REMARK    3  A    between atoms: CG_12  and  CD_13
REMARK    4  A    between atoms: CD_13  and  CE_14
REMARK    5  A    between atoms: CE_14  and  NZ_15
REMARK    6  A    between atoms: CA_19  and  CB_21
REMARK    7  A    between atoms: CB_21  and  CG_22
REMARK    8  A    between atoms: CG_22  and  CD_23
REMARK    9  A    between atoms: CD_23  and  CE_24
REMARK   10  A    between atoms: CE_24  and  NZ_25
REMARK   11  A    between atoms: CA_29  and  CB_31
REMARK   12  A    between atoms: CB_31  and  CG_32
REMARK   13  A    between atoms: CG_32  and  CD_33
REMARK   14  A    between atoms: CD_33  and  NE_34
REMARK   15  A    between atoms: CA_41  and  CB_43
REMARK   16  A    between atoms: CB_43  and  CG_44
REMARK   17  A    between atoms: CZ_47  and  OH_48
REMARK   18  A    between atoms: CA_54  and  N_115
REMARK   19  A    between atoms: CA_60  and  C_100
REMARK   20  A    between atoms: CA_65  and  CB_67
REMARK   21  A    between atoms: CB_67  and  CG_68
REMARK   22  A    between atoms: CG_68  and  CD_69
REMARK   23  A    between atoms: CD_69  and  CE_70
REMARK   24  A    between atoms: CE_70  and  NZ_71
REMARK   25  A    between atoms: CA_75  and  CB_77
REMARK   26  A    between atoms: CB_77  and  CG_78
REMARK   27  A    between atoms: CG_78  and  CD_79
REMARK   28  A    between atoms: CD_79  and  NE_80
REMARK   29  A    between atoms: CA_87  and  CB_89
REMARK   30  A    between atoms: CB_89  and  CG_90
REMARK   31  A    between atoms: CZ_93  and  OH_94
REMARK   32  A    between atoms: N_102  and  CA_103
REMARK   33  A    between atoms: CA_103  and  CB_105
REMARK   34  A    between atoms: CA_103  and  C_112
REMARK   35  A    between atoms: CB_105  and  CG_106
REMARK   36  A    between atoms: CG_106  and  CD_107
REMARK   37  A    between atoms: CD_107  and  NE_108
REMARK   38  A    between atoms: C_112  and  O_113
REMARK   39  A    between atoms: C_116  and  CA_118
REMARK   40  A    between atoms: CA_118  and  CB_120
REMARK   41  A    between atoms: CA_118  and  N_128
REMARK   42  A    between atoms: CB_120  and  CG_121
REMARK   43  A    between atoms: CZ_124  and  OH_125
REMARK   44  A    between atoms: C_129  and  CA_131
REMARK   45  A    between atoms: CA_131  and  CB_133
REMARK   46  A    between atoms: CA_131  and  N_140
REMARK   47  A    between atoms: CB_133  and  CG_134
REMARK   48  A    between atoms: CG_134  and  CD_135
REMARK   49  A    between atoms: CD_135  and  NE_136
REMARK   50  A    between atoms: C_141  and  CA_143
REMARK   51  A    between atoms: CA_143  and  N_145
REMARK   52  A    between atoms: CA_143  and  CB_146
REMARK   53  A    between atoms: CB_146  and  CG_147
REMARK   54  A    between atoms: CG_147  and  CD_148
REMARK   55  A    between atoms: CD_148  and  NE_149
REMARK                            x       y       z     vdW  Elec       q    Type
REMARK                         _______ _______ _______ _____ _____    ______ ____
ROOT
ATOM      1  CA  PRO A   9       8.336  -2.527  25.811  0.00  0.00    +0.162 C 
ATOM      2  C   PRO A   9       8.581  -3.446  27.371  0.00  0.00    +0.234 C 
ATOM      3  O   PRO A   9       9.724  -3.366  27.866  0.00  0.00    -0.274 OA
ATOM      4  N   TYR A  10       7.830  -4.590  27.901  0.00  0.00    -0.302 N 
ATOM      5  H   TYR A  10       8.413  -5.243  28.410  0.00  0.00    +0.150 HD
ATOM      6  CA  TYR A  10       6.347  -4.901  28.053  0.00  0.00    +0.163 C 
ATOM      7  C   TYR A  10       5.827  -3.549  27.966  0.00  0.00    +0.234 C 
ATOM      8  O   TYR A  10       5.681  -2.813  28.935  0.00  0.00    -0.274 OA
ATOM      9  N   ARG A  11       5.869  -3.085  26.668  0.00  0.00    -0.302 N 
ATOM     10  H   ARG A  11       5.448  -2.161  26.729  0.00  0.00    +0.150 HD
ATOM     11  CA  ARG A  11       5.736  -3.727  25.320  0.00  0.00    +0.159 C 
ATOM     12  C   ARG A  11       6.465  -4.920  24.757  0.00  0.00    +0.234 C 
ATOM     13  O   ARG A  11       6.933  -4.994  23.632  0.00  0.00    -0.274 OA
ATOM     14  N   LYS A  12       6.204  -6.133  25.242  0.00  0.00    -0.302 N 
ATOM     15  H   LYS A  12       6.954  -6.691  24.850  0.00  0.00    +0.150 HD
ATOM     16  CA  LYS A  12       4.892  -6.589  24.762  0.00  0.00    +0.159 C 
ATOM     17  C   LYS A  12       3.910  -6.408  25.963  0.00  0.00    +0.234 C 
ATOM     18  O   LYS A  12       3.993  -7.201  26.909  0.00  0.00    -0.274 OA
ATOM     19  N   CYS A  13       3.170  -5.260  26.212  0.00  0.00    -0.302 N 
ATOM     20  H   CYS A  13       2.907  -5.233  27.188  0.00  0.00    +0.150 HD
ATOM     21  CA  CYS A  13       2.290  -4.365  25.370  0.00  0.00    +0.169 C 
ATOM     22  CB  CYS A  13       2.774  -2.893  25.142  0.00  0.00    +0.112 C 
ATOM     23  SG  CYS A  13       3.423  -1.904  26.749  0.00  0.00    -0.091 S 
ATOM     24  SG  CYS A   4       4.950  -0.322  26.464  0.00  0.00    -0.091 S 
ATOM     25  CB  CYS A   4       6.948  -0.343  27.342  0.00  0.00    +0.112 C 
ATOM     26  CA  CYS A   4       8.257   0.741  26.869  0.00  0.00    +0.169 C 
ATOM     27  C   CYS A   4       9.729   0.784  25.531  0.00  0.00    +0.235 C 
ATOM     28  O   CYS A   4      10.860   1.100  25.955  0.00  0.00    -0.274 OA
ATOM     29  N   TYR A   5       9.734   0.481  23.760  0.00  0.00    -0.302 N 
ATOM     30  H   TYR A   5      10.663   0.671  23.388  0.00  0.00    +0.150 HD
ATOM     31  CA  TYR A   5       8.447   0.055  22.377  0.00  0.00    +0.163 C 
ATOM     32  C   TYR A   5       6.591   0.560  22.405  0.00  0.00    +0.234 C 
ATOM     33  O   TYR A   5       5.790   0.113  21.577  0.00  0.00    -0.274 OA
ATOM     34  N   ARG A   6       5.930   1.401  23.350  0.00  0.00    -0.302 N 
ATOM     35  H   ARG A   6       5.017   0.998  23.566  0.00  0.00    +0.150 HD
ATOM     36  CA  ARG A   6       6.127   2.760  24.271  0.00  0.00    +0.159 C 
ATOM     37  C   ARG A   6       7.729   3.306  25.261  0.00  0.00    +0.234 C 
ATOM     38  O   ARG A   6       7.803   4.113  26.225  0.00  0.00    -0.274 OA
ATOM     39  N   LYS A   7       9.116   3.232  25.193  0.00  0.00    -0.302 N 
ATOM     40  H   LYS A   7       9.445   3.505  26.115  0.00  0.00    +0.150 HD
ATOM     41  CA  LYS A   7      10.034   4.124  24.421  0.00  0.00    +0.159 C 
ATOM     42  C   LYS A   7      10.721   3.210  23.428  0.00  0.00    +0.234 C 
ATOM     43  O   LYS A   7      11.913   3.101  23.176  0.00  0.00    -0.274 OA
ATOM     44  N   LYS A   8       9.861   2.463  22.726  0.00  0.00    -0.302 N 
ATOM     45  H   LYS A   8      10.286   1.960  21.963  0.00  0.00    +0.150 HD
ATOM     46  CA  LYS A   8       8.467   2.204  23.252  0.00  0.00    +0.159 C 
ATOM     47  C   LYS A   8       7.910   0.518  24.451  0.00  0.00    +0.237 C 
ATOM     48  O   LYS A   8       6.895   0.626  25.128  0.00  0.00    -0.274 OA
ATOM     49  N   PRO A   9       8.735  -1.085  24.866  0.00  0.00    -0.288 N 
ATOM     50  CD  PRO A   9      10.302  -1.559  24.733  0.00  0.00    +0.109 C 
ATOM     51  CG  PRO A   9      10.483  -3.079  24.719  0.00  0.00    +0.021 C 
ATOM     52  CB  PRO A   9       9.183  -3.689  25.111  0.00  0.00    +0.033 C 
ENDROOT
BRANCH  21  53
ATOM     53  C   CYS A  13       1.788  -5.203  24.150  0.00  0.00    +0.235 C 
ATOM     54  N   ARG A  14       1.295  -6.476  24.315  0.00  0.00    -0.301 N 
ATOM     55  H   ARG A  14       1.000  -6.849  25.211  0.00  0.00    +0.150 HD
ATOM     56  O   CYS A  13       1.937  -4.764  23.003  0.00  0.00    -0.274 OA
BRANCH  54  57
ATOM     57  CA  ARG A  14       1.404  -7.417  23.172  0.00  0.00    +0.182 C 
BRANCH  57  58
ATOM     58  C   ARG A  14       0.875  -8.844  23.408  0.00  0.00    +0.325 C 
ATOM     59  OXT ARG A  14       0.864  -9.443  24.471  0.00  0.00    -0.249 OA
BRANCH  58  60
ATOM     60  O   ARG A  14       0.567  -9.470  22.250  0.00  0.00    -0.479 OA
ATOM     61  H   ARG A  14       1.346  -9.399  21.658  0.00  0.00    +0.295 HD
ENDBRANCH  58  60
ENDBRANCH  57  58
BRANCH  57  62
ATOM     62  CB  ARG A  14       2.892  -7.474  22.723  0.00  0.00    +0.037 C 
BRANCH  62  63
ATOM     63  CG  ARG A  14       3.137  -7.284  21.218  0.00  0.00    +0.039 C 
BRANCH  63  64
ATOM     64  CD  ARG A  14       4.543  -7.685  20.733  0.00  0.00    +0.196 C 
BRANCH  64  65
ATOM     65  NE  ARG A  14       5.193  -6.833  19.855  0.00  0.00    -0.276 N 
ATOM     66  HE  ARG A  14       4.625  -6.551  19.075  0.00  0.00    +0.258 HD
ATOM     67  CZ  ARG A  14       6.041  -5.910  20.325  0.00  0.00    +0.376 C 
ATOM     68  NH2 ARG A  14       6.376  -5.643  21.536  0.00  0.00    -0.130 NA
ATOM     69  HH2 ARG A  14       5.830  -6.200  22.221  0.00  0.00    +0.306 HD
ATOM     70  NH1 ARG A  14       6.640  -5.204  19.349  0.00  0.00    -0.289 N 
ATOM     71 HH11 ARG A  14       7.480  -4.761  19.717  0.00  0.00    +0.255 HD
ATOM     72 HH12 ARG A  14       6.833  -5.758  18.535  0.00  0.00    +0.255 HD
ENDBRANCH  64  65
ENDBRANCH  63  64
ENDBRANCH  62  63
ENDBRANCH  57  62
ENDBRANCH  54  57
ENDBRANCH  21  53
BRANCH  26  73
ATOM     73  N   CYS A   4       7.619   2.200  27.365  0.00  0.00    -0.302 N 
ATOM     74  H   CYS A   4       6.887   1.941  27.983  0.00  0.00    +0.150 HD
ATOM     75  C   TYR A   3       8.040   3.585  27.577  0.00  0.00    +0.234 C 
ATOM     76  O   TYR A   3       8.597   4.195  26.650  0.00  0.00    -0.274 OA
BRANCH  75  77
ATOM     77  CA  TYR A   3       7.819   4.603  29.163  0.00  0.00    +0.163 C 
BRANCH  77  78
ATOM     78  N   TYR A   3       6.556   4.332  29.900  0.00  0.00    -0.302 N 
ATOM     79  H   TYR A   3       6.709   4.220  30.897  0.00  0.00    +0.150 HD
ATOM     80  C   ARG A   2       5.453   3.683  29.343  0.00  0.00    +0.234 C 
ATOM     81  O   ARG A   2       5.049   3.805  28.193  0.00  0.00    -0.274 OA
BRANCH  80  82
ATOM     82  CA  ARG A   2       4.611   2.852  30.399  0.00  0.00    +0.159 C 
BRANCH  82  83
ATOM     83  N   ARG A   2       3.389   3.646  30.477  0.00  0.00    -0.303 N 
ATOM     84  H   ARG A   2       2.516   3.198  30.192  0.00  0.00    +0.149 HD
ATOM     85  C   ARG A   1       3.454   5.006  30.305  0.00  0.00    +0.230 C 
ATOM     86  O   ARG A   1       4.492   5.639  30.383  0.00  0.00    -0.274 OA
BRANCH  85  87
ATOM     87  CA  ARG A   1       2.086   5.682  30.140  0.00  0.00    +0.138 C 
BRANCH  87  88
ATOM     88  N   ARG A   1       2.246   7.079  29.699  0.00  0.00    -0.320 NA
ATOM     89  H1  ARG A   1       2.388   7.078  28.687  0.00  0.00    +0.119 HD
ATOM     90  H2  ARG A   1       1.360   7.572  29.837  0.00  0.00    +0.119 HD
ENDBRANCH  87  88
BRANCH  87  91
ATOM     91  CB  ARG A   1       1.224   4.895  29.144  0.00  0.00    +0.031 C 
BRANCH  91  92
ATOM     92  CG  ARG A   1       1.958   4.605  27.826  0.00  0.00    +0.039 C 
BRANCH  92  93
ATOM     93  CD  ARG A   1       1.004   4.589  26.630  0.00  0.00    +0.196 C 
BRANCH  93  94
ATOM     94  NE  ARG A   1       0.446   3.275  26.456  0.00  0.00    -0.276 N 
ATOM     95  HE  ARG A   1      -0.529   3.257  26.189  0.00  0.00    +0.258 HD
ATOM     96  CZ  ARG A   1       1.082   2.091  26.565  0.00  0.00    +0.376 C 
ATOM     97  NH2 ARG A   1       0.484   0.971  26.359  0.00  0.00    -0.130 NA
ATOM     98  HH2 ARG A   1      -0.493   1.158  26.129  0.00  0.00    +0.306 HD
ATOM     99  NH1 ARG A   1       2.369   2.084  26.950  0.00  0.00    -0.289 N 
ATOM    100 HH11 ARG A   1       2.809   1.180  26.828  0.00  0.00    +0.255 HD
ATOM    101 HH12 ARG A   1       2.985   2.858  26.713  0.00  0.00    +0.255 HD
ENDBRANCH  93  94
ENDBRANCH  92  93
ENDBRANCH  91  92
ENDBRANCH  87  91
ENDBRANCH  85  87
ENDBRANCH  82  83
BRANCH  82 102
ATOM    102  CB  ARG A   2       4.198   1.381  30.159  0.00  0.00    +0.035 C 
BRANCH 102 103
ATOM    103  CG  ARG A   2       2.767   1.019  29.715  0.00  0.00    +0.039 C 
BRANCH 103 104
ATOM    104  CD  ARG A   2       2.673  -0.104  28.677  0.00  0.00    +0.196 C 
BRANCH 104 105
ATOM    105  NE  ARG A   2       1.733  -1.153  29.031  0.00  0.00    -0.276 N 
ATOM    106  HE  ARG A   2       0.767  -0.851  28.998  0.00  0.00    +0.258 HD
ATOM    107  CZ  ARG A   2       1.892  -2.141  29.916  0.00  0.00    +0.376 C 
ATOM    108  NH2 ARG A   2       0.930  -2.774  30.485  0.00  0.00    -0.130 NA
ATOM    109  HH2 ARG A   2       0.027  -2.400  30.215  0.00  0.00    +0.306 HD
ATOM    110  NH1 ARG A   2       3.167  -2.455  30.239  0.00  0.00    -0.289 N 
ATOM    111 HH11 ARG A   2       3.127  -3.007  31.106  0.00  0.00    +0.255 HD
ATOM    112 HH12 ARG A   2       3.690  -1.628  30.479  0.00  0.00    +0.255 HD
ENDBRANCH 104 105
ENDBRANCH 103 104
ENDBRANCH 102 103
ENDBRANCH  82 102
ENDBRANCH  80  82
ENDBRANCH  77  78
BRANCH  77 113
ATOM    113  CB  TYR A   3       8.815   5.933  29.907  0.00  0.00    +0.067 C 
BRANCH 113 114
ATOM    114  CG  TYR A   3      10.047   6.659  29.515  0.00  0.00    -0.045 A 
ATOM    115  CD2 TYR A   3      10.311   6.955  28.138  0.00  0.00    +0.007 A 
ATOM    116  CE2 TYR A   3      11.612   7.096  27.719  0.00  0.00    +0.045 A 
ATOM    117  CZ  TYR A   3      12.593   7.052  28.696  0.00  0.00    +0.117 A 
ATOM    118  CE1 TYR A   3      12.301   6.881  30.050  0.00  0.00    +0.045 A 
ATOM    119  CD1 TYR A   3      11.011   6.675  30.475  0.00  0.00    +0.007 A 
BRANCH 117 120
ATOM    120  OH  TYR A   3      13.892   7.080  28.312  0.00  0.00    -0.507 OA
ATOM    121  HH  TYR A   3      13.915   7.564  27.471  0.00  0.00    +0.292 HD
ENDBRANCH 117 120
ENDBRANCH 113 114
ENDBRANCH  77 113
ENDBRANCH  75  77
ENDBRANCH  26  73
BRANCH  46 122
ATOM    122  CB  LYS A   8       8.012   3.747  22.168  0.00  0.00    +0.032 C 
BRANCH 122 123
ATOM    123  CG  LYS A   8       6.392   4.465  21.853  0.00  0.00    +0.003 C 
BRANCH 123 124
ATOM    124  CD  LYS A   8       5.270   4.053  20.693  0.00  0.00    +0.015 C 
BRANCH 124 125
ATOM    125  CE  LYS A   8       3.844   4.801  20.693  0.00  0.00    +0.077 C 
BRANCH 125 126
ATOM    126  NZ  LYS A   8       2.945   4.514  21.823  0.00  0.00    -0.330 NA
ATOM    127  HZ1 LYS A   8       3.499   4.425  22.684  0.00  0.00    +0.118 HD
ATOM    128  HZ2 LYS A   8       2.365   5.338  22.010  0.00  0.00    +0.118 HD
ENDBRANCH 125 126
ENDBRANCH 124 125
ENDBRANCH 123 124
ENDBRANCH 122 123
ENDBRANCH  46 122
BRANCH  31 129
ATOM    129  CB  TYR A   5       8.867   0.013  20.734  0.00  0.00    +0.067 C 
BRANCH 129 130
ATOM    130  CG  TYR A   5       8.537  -0.985  19.651  0.00  0.00    -0.045 A 
ATOM    131  CD2 TYR A   5       8.261  -2.319  20.000  0.00  0.00    +0.007 A 
ATOM    132  CE2 TYR A   5       7.595  -3.169  19.112  0.00  0.00    +0.045 A 
ATOM    133  CZ  TYR A   5       7.113  -2.650  17.926  0.00  0.00    +0.117 A 
ATOM    134  CE1 TYR A   5       7.522  -1.404  17.509  0.00  0.00    +0.045 A 
ATOM    135  CD1 TYR A   5       8.360  -0.661  18.329  0.00  0.00    +0.007 A 
BRANCH 133 136
ATOM    136  OH  TYR A   5       6.225  -3.366  17.189  0.00  0.00    -0.507 OA
ATOM    137  HH  TYR A   5       6.078  -4.201  17.672  0.00  0.00    +0.292 HD
ENDBRANCH 133 136
ENDBRANCH 129 130
ENDBRANCH  31 129
BRANCH  36 138
ATOM    138  CB  ARG A   6       4.346   3.133  24.555  0.00  0.00    +0.035 C 
BRANCH 138 139
ATOM    139  CG  ARG A   6       3.457   4.105  23.599  0.00  0.00    +0.039 C 
BRANCH 139 140
ATOM    140  CD  ARG A   6       3.706   5.570  23.927  0.00  0.00    +0.196 C 
BRANCH 140 141
ATOM    141  NE  ARG A   6       2.559   6.307  24.435  0.00  0.00    -0.276 N 
ATOM    142  HE  ARG A   6       2.729   6.959  25.201  0.00  0.00    +0.258 HD
ATOM    143  CZ  ARG A   6       1.561   6.688  23.600  0.00  0.00    +0.376 C 
ATOM    144  NH2 ARG A   6       1.582   6.645  22.318  0.00  0.00    -0.130 NA
ATOM    145  HH2 ARG A   6       2.489   6.318  21.990  0.00  0.00    +0.306 HD
ATOM    146  NH1 ARG A   6       0.443   7.103  24.215  0.00  0.00    -0.289 N 
ATOM    147 HH11 ARG A   6      -0.226   7.465  23.544  0.00  0.00    +0.255 HD
ATOM    148 HH12 ARG A   6       0.562   7.706  25.016  0.00  0.00    +0.255 HD
ENDBRANCH 140 141
ENDBRANCH 139 140
ENDBRANCH 138 139
ENDBRANCH  36 138
BRANCH  41 149
ATOM    149  CB  LYS A   7      11.229   4.867  25.005  0.00  0.00    +0.032 C 
BRANCH 149 150
ATOM    150  CG  LYS A   7      12.438   5.133  24.147  0.00  0.00    +0.003 C 
BRANCH 150 151
ATOM    151  CD  LYS A   7      12.214   6.313  23.231  0.00  0.00    +0.015 C 
BRANCH 151 152
ATOM    152  CE  LYS A   7      13.113   6.327  22.009  0.00  0.00    +0.077 C 
BRANCH 152 153
ATOM    153  NZ  LYS A   7      14.423   5.764  22.281  0.00  0.00    -0.330 NA
ATOM    154  HZ1 LYS A   7      14.637   5.051  21.588  0.00  0.00    +0.118 HD
ATOM    155  HZ2 LYS A   7      15.135   6.488  22.185  0.00  0.00    +0.118 HD
ENDBRANCH 152 153
ENDBRANCH 151 152
ENDBRANCH 150 151
ENDBRANCH 149 150
ENDBRANCH  41 149
BRANCH   6 156
ATOM    156  CB  TYR A  10       5.450  -5.762  29.053  0.00  0.00    +0.067 C 
BRANCH 156 157
ATOM    157  CG  TYR A  10       4.097  -6.425  28.900  0.00  0.00    -0.045 A 
ATOM    158  CD2 TYR A  10       4.011  -7.698  28.380  0.00  0.00    +0.007 A 
ATOM    159  CE2 TYR A  10       2.782  -8.237  27.980  0.00  0.00    +0.045 A 
ATOM    160  CZ  TYR A  10       1.607  -7.500  28.116  0.00  0.00    +0.117 A 
ATOM    161  CE1 TYR A  10       1.640  -6.213  28.631  0.00  0.00    +0.045 A 
ATOM    162  CD1 TYR A  10       2.883  -5.666  29.003  0.00  0.00    +0.007 A 
BRANCH 160 163
ATOM    163  OH  TYR A  10       0.445  -8.084  27.703  0.00  0.00    -0.507 OA
ATOM    164  HH  TYR A  10       0.323  -8.920  28.182  0.00  0.00    +0.292 HD
ENDBRANCH 160 163
ENDBRANCH 156 157
ENDBRANCH   6 156
BRANCH  11 165
ATOM    165  CB  ARG A  11       5.543  -2.802  24.093  0.00  0.00    +0.035 C 
BRANCH 165 166
ATOM    166  CG  ARG A  11       6.325  -2.660  22.833  0.00  0.00    +0.039 C 
BRANCH 166 167
ATOM    167  CD  ARG A  11       5.958  -1.884  21.598  0.00  0.00    +0.196 C 
BRANCH 167 168
ATOM    168  NE  ARG A  11       5.330  -2.718  20.634  0.00  0.00    -0.276 N 
ATOM    169  HE  ARG A  11       5.938  -3.490  20.398  0.00  0.00    +0.258 HD
ATOM    170  CZ  ARG A  11       4.696  -2.251  19.545  0.00  0.00    +0.376 C 
ATOM    171  NH2 ARG A  11       4.575  -2.977  18.492  0.00  0.00    -0.130 NA
ATOM    172  HH2 ARG A  11       5.037  -3.870  18.694  0.00  0.00    +0.306 HD
ATOM    173  NH1 ARG A  11       4.194  -1.009  19.593  0.00  0.00    -0.289 N 
ATOM    174 HH11 ARG A  11       3.862  -0.751  18.671  0.00  0.00    +0.255 HD
ATOM    175 HH12 ARG A  11       4.827  -0.309  19.945  0.00  0.00    +0.255 HD
ENDBRANCH 167 168
ENDBRANCH 166 167
ENDBRANCH 165 166
ENDBRANCH  11 165
BRANCH  16 176
ATOM    176  CB  LYS A  12       5.107  -8.039  24.346  0.00  0.00    +0.032 C 
BRANCH 176 177
ATOM    177  CG  LYS A  12       6.400  -8.287  23.526  0.00  0.00    +0.003 C 
BRANCH 177 178
ATOM    178  CD  LYS A  12       7.064  -6.971  23.119  0.00  0.00    +0.015 C 
BRANCH 178 179
ATOM    179  CE  LYS A  12       8.588  -6.998  23.219  0.00  0.00    +0.077 C 
BRANCH 179 180
ATOM    180  NZ  LYS A  12       9.200  -6.182  22.178  0.00  0.00    -0.330 NA
ATOM    181  HZ1 LYS A  12       9.515  -6.784  21.420  0.00  0.00    +0.118 HD
ATOM    182  HZ2 LYS A  12       8.509  -5.555  21.770  0.00  0.00    +0.118 HD
ENDBRANCH 179 180
ENDBRANCH 178 179
ENDBRANCH 177 178
ENDBRANCH 176 177
ENDBRANCH  16 176
TORSDOF 55
ENDMDL
MODEL 2
REMARK VINA RESULT:      33.2      2.591     10.803
REMARK  Name = 
REMARK  55 active torsions:
REMARK  status: ('A' for Active; 'I' for Inactive)
REMARK    1  A    between atoms: CA_9  and  CB_11
REMARK    2  A    between atoms: CB_11  and  CG_12
REMARK    3  A    between atoms: CG_12  and  CD_13
REMARK    4  A    between atoms: CD_13  and  CE_14
REMARK    5  A    between atoms: CE_14  and  NZ_15
REMARK    6  A    between atoms: CA_19  and  CB_21
REMARK    7  A    between atoms: CB_21  and  CG_22
REMARK    8  A    between atoms: CG_22  and  CD_23
REMARK    9  A    between atoms: CD_23  and  CE_24
REMARK   10  A    between atoms: CE_24  and  NZ_25
REMARK   11  A    between atoms: CA_29  and  CB_31
REMARK   12  A    between atoms: CB_31  and  CG_32
REMARK   13  A    between atoms: CG_32  and  CD_33
REMARK   14  A    between atoms: CD_33  and  NE_34
REMARK   15  A    between atoms: CA_41  and  CB_43
REMARK   16  A    between atoms: CB_43  and  CG_44
REMARK   17  A    between atoms: CZ_47  and  OH_48
REMARK   18  A    between atoms: CA_54  and  N_115
REMARK   19  A    between atoms: CA_60  and  C_100
REMARK   20  A    between atoms: CA_65  and  CB_67
REMARK   21  A    between atoms: CB_67  and  CG_68
REMARK   22  A    between atoms: CG_68  and  CD_69
REMARK   23  A    between atoms: CD_69  and  CE_70
REMARK   24  A    between atoms: CE_70  and  NZ_71
REMARK   25  A    between atoms: CA_75  and  CB_77
REMARK   26  A    between atoms: CB_77  and  CG_78
REMARK   27  A    between atoms: CG_78  and  CD_79
REMARK   28  A    between atoms: CD_79  and  NE_80
REMARK   29  A    between atoms: CA_87  and  CB_89
REMARK   30  A    between atoms: CB_89  and  CG_90
REMARK   31  A    between atoms: CZ_93  and  OH_94
REMARK   32  A    between atoms: N_102  and  CA_103
REMARK   33  A    between atoms: CA_103  and  CB_105
REMARK   34  A    between atoms: CA_103  and  C_112
REMARK   35  A    between atoms: CB_105  and  CG_106
REMARK   36  A    between atoms: CG_106  and  CD_107
REMARK   37  A    between atoms: CD_107  and  NE_108
REMARK   38  A    between atoms: C_112  and  O_113
REMARK   39  A    between atoms: C_116  and  CA_118
REMARK   40  A    between atoms: CA_118  and  CB_120
REMARK   41  A    between atoms: CA_118  and  N_128
REMARK   42  A    between atoms: CB_120  and  CG_121
REMARK   43  A    between atoms: CZ_124  and  OH_125
REMARK   44  A    between atoms: C_129  and  CA_131
REMARK   45  A    between atoms: CA_131  and  CB_133
REMARK   46  A    between atoms: CA_131  and  N_140
REMARK   47  A    between atoms: CB_133  and  CG_134
REMARK   48  A    between atoms: CG_134  and  CD_135
REMARK   49  A    between atoms: CD_135  and  NE_136
REMARK   50  A    between atoms: C_141  and  CA_143
REMARK   51  A    between atoms: CA_143  and  N_145
REMARK   52  A    between atoms: CA_143  and  CB_146
REMARK   53  A    between atoms: CB_146  and  CG_147
REMARK   54  A    between atoms: CG_147  and  CD_148
REMARK   55  A    between atoms: CD_148  and  NE_149
REMARK                            x       y       z     vdW  Elec       q    Type
REMARK                         _______ _______ _______ _____ _____    ______ ____
ROOT
ATOM      1  CA  PRO A   9       7.161   1.012  22.069  0.00  0.00    +0.162 C 
ATOM      2  C   PRO A   9       6.058   2.147  21.155  0.00  0.00    +0.234 C 
ATOM      3  O   PRO A   9       5.753   1.784  20.002  0.00  0.00    -0.274 OA
ATOM      4  N   TYR A  10       5.832   3.582  21.359  0.00  0.00    -0.302 N 
ATOM      5  H   TYR A  10       5.669   4.083  20.494  0.00  0.00    +0.150 HD
ATOM      6  CA  TYR A  10       5.560   4.446  22.584  0.00  0.00    +0.163 C 
ATOM      7  C   TYR A  10       5.106   3.407  23.491  0.00  0.00    +0.234 C 
ATOM      8  O   TYR A  10       3.936   3.056  23.589  0.00  0.00    -0.274 OA
ATOM      9  N   ARG A  11       6.162   2.641  23.935  0.00  0.00    -0.302 N 
ATOM     10  H   ARG A  11       5.730   1.987  24.582  0.00  0.00    +0.150 HD
ATOM     11  CA  ARG A  11       7.609   2.913  24.220  0.00  0.00    +0.159 C 
ATOM     12  C   ARG A  11       8.647   3.564  23.342  0.00  0.00    +0.234 C 
ATOM     13  O   ARG A  11       9.790   3.166  23.187  0.00  0.00    -0.274 OA
ATOM     14  N   LYS A  12       8.561   4.869  23.088  0.00  0.00    -0.302 N 
ATOM     15  H   LYS A  12       9.231   4.990  22.336  0.00  0.00    +0.150 HD
ATOM     16  CA  LYS A  12       8.953   5.635  24.280  0.00  0.00    +0.159 C 
ATOM     17  C   LYS A  12       7.621   6.147  24.916  0.00  0.00    +0.234 C 
ATOM     18  O   LYS A  12       7.021   7.070  24.351  0.00  0.00    -0.274 OA
ATOM     19  N   CYS A  13       6.888   5.458  25.874  0.00  0.00    -0.302 N 
ATOM     20  H   CYS A  13       5.931   5.784  25.865  0.00  0.00    +0.150 HD
ATOM     21  CA  CYS A  13       7.232   4.765  27.172  0.00  0.00    +0.169 C 
ATOM     22  CB  CYS A  13       7.027   3.213  27.231  0.00  0.00    +0.112 C 
ATOM     23  SG  CYS A  13       5.306   2.507  26.510  0.00  0.00    -0.091 S 
ATOM     24  SG  CYS A   4       5.282   0.459  25.662  0.00  0.00    -0.091 S 
ATOM     25  CB  CYS A   4       4.789  -0.029  23.594  0.00  0.00    +0.112 C 
ATOM     26  CA  CYS A   4       5.071  -1.602  22.845  0.00  0.00    +0.169 C 
ATOM     27  C   CYS A   4       6.533  -2.529  21.863  0.00  0.00    +0.235 C 
ATOM     28  O   CYS A   4       6.211  -3.118  20.810  0.00  0.00    -0.274 OA
ATOM     29  N   TYR A   5       8.279  -2.720  22.236  0.00  0.00    -0.302 N 
ATOM     30  H   TYR A   5       8.708  -3.328  21.539  0.00  0.00    +0.150 HD
ATOM     31  CA  TYR A   5       9.503  -2.225  23.652  0.00  0.00    +0.163 C 
ATOM     32  C   TYR A   5       9.015  -1.985  25.498  0.00  0.00    +0.234 C 
ATOM     33  O   TYR A   5       9.808  -1.506  26.315  0.00  0.00    -0.274 OA
ATOM     34  N   ARG A   6       7.751  -2.248  26.106  0.00  0.00    -0.302 N 
ATOM     35  H   ARG A   6       7.541  -1.496  26.765  0.00  0.00    +0.150 HD
ATOM     36  CA  ARG A   6       6.471  -3.295  26.091  0.00  0.00    +0.159 C 
ATOM     37  C   ARG A   6       5.622  -4.115  24.526  0.00  0.00    +0.234 C 
ATOM     38  O   ARG A   6       4.468  -4.613  24.447  0.00  0.00    -0.274 OA
ATOM     39  N   LYS A   7       5.930  -4.577  23.251  0.00  0.00    -0.302 N 
ATOM     40  H   LYS A   7       5.034  -4.703  22.788  0.00  0.00    +0.150 HD
ATOM     41  CA  LYS A   7       6.493  -5.912  22.883  0.00  0.00    +0.159 C 
ATOM     42  C   LYS A   7       7.830  -5.607  22.240  0.00  0.00    +0.234 C 
ATOM     43  O   LYS A   7       8.289  -6.013  21.181  0.00  0.00    -0.274 OA
ATOM     44  N   LYS A   8       8.596  -4.805  22.990  0.00  0.00    -0.302 N 
ATOM     45  H   LYS A   8       9.541  -4.710  22.650  0.00  0.00    +0.150 HD
ATOM     46  CA  LYS A   8       7.974  -3.924  24.049  0.00  0.00    +0.159 C 
ATOM     47  C   LYS A   8       7.338  -1.902  23.735  0.00  0.00    +0.237 C 
ATOM     48  O   LYS A   8       6.512  -1.449  24.519  0.00  0.00    -0.274 OA
ATOM     49  N   PRO A   9       7.619  -0.667  22.387  0.00  0.00    -0.288 N 
ATOM     50  CD  PRO A   9       8.149  -0.855  20.844  0.00  0.00    +0.109 C 
ATOM     51  CG  PRO A   9       8.699   0.432  20.224  0.00  0.00    +0.021 C 
ATOM     52  CB  PRO A   9       8.335   1.556  21.128  0.00  0.00    +0.033 C 
ENDROOT
BRANCH  21  53
ATOM     53  C   CYS A  13       8.567   5.381  27.702  0.00  0.00    +0.235 C 
ATOM     54  N   ARG A  14       9.785   4.831  27.375  0.00  0.00    -0.301 N 
ATOM     55  H   ARG A  14       9.915   4.181  26.607  0.00  0.00    +0.150 HD
ATOM     56  O   CYS A  13       8.531   6.308  28.520  0.00  0.00    -0.274 OA
BRANCH  54  57
ATOM     57  CA  ARG A  14      10.912   5.028  28.319  0.00  0.00    +0.182 C 
BRANCH  57  58
ATOM     58  C   ARG A  14      10.737   4.432  29.728  0.00  0.00    +0.325 C 
ATOM     59  OXT ARG A  14      11.197   3.375  30.127  0.00  0.00    -0.249 OA
BRANCH  58  60
ATOM     60  O   ARG A  14       9.844   5.129  30.468  0.00  0.00    -0.479 OA
ATOM     61  H   ARG A  14       9.767   6.025  30.073  0.00  0.00    +0.295 HD
ENDBRANCH  58  60
ENDBRANCH  57  58
BRANCH  57  62
ATOM     62  CB  ARG A  14      11.206   6.551  28.423  0.00  0.00    +0.037 C 
BRANCH  62  63
ATOM     63  CG  ARG A  14      11.540   7.068  29.831  0.00  0.00    +0.039 C 
BRANCH  63  64
ATOM     64  CD  ARG A  14      12.791   6.441  30.474  0.00  0.00    +0.196 C 
BRANCH  64  65
ATOM     65  NE  ARG A  14      14.028   6.952  30.118  0.00  0.00    -0.276 N 
ATOM     66  HE  ARG A  14      14.195   7.879  30.471  0.00  0.00    +0.258 HD
ATOM     67  CZ  ARG A  14      15.095   6.146  30.065  0.00  0.00    +0.376 C 
ATOM     68  NH2 ARG A  14      15.188   4.889  30.315  0.00  0.00    -0.130 NA
ATOM     69  HH2 ARG A  14      14.297   4.499  30.680  0.00  0.00    +0.306 HD
ATOM     70  NH1 ARG A  14      16.207   6.775  29.644  0.00  0.00    -0.289 N 
ATOM     71 HH11 ARG A  14      16.883   6.087  29.318  0.00  0.00    +0.255 HD
ATOM     72 HH12 ARG A  14      16.016   7.473  28.950  0.00  0.00    +0.255 HD
ENDBRANCH  64  65
ENDBRANCH  63  64
ENDBRANCH  62  63
ENDBRANCH  57  62
ENDBRANCH  54  57
ENDBRANCH  21  53
BRANCH  26  73
ATOM     73  N   CYS A   4       4.021  -2.541  23.738  0.00  0.00    -0.302 N 
ATOM     74  H   CYS A   4       4.592  -3.278  24.077  0.00  0.00    +0.150 HD
ATOM     75  C   TYR A   3       2.797  -2.399  24.528  0.00  0.00    +0.234 C 
ATOM     76  O   TYR A   3       1.805  -1.862  24.011  0.00  0.00    -0.274 OA
BRANCH  75  77
ATOM     77  CA  TYR A   3       2.536  -2.972  26.318  0.00  0.00    +0.163 C 
BRANCH  77  78
ATOM     78  N   TYR A   3       1.558  -2.160  27.090  0.00  0.00    -0.302 N 
ATOM     79  H   TYR A   3       0.710  -1.975  26.564  0.00  0.00    +0.150 HD
ATOM     80  C   ARG A   2       1.917  -1.236  28.073  0.00  0.00    +0.234 C 
ATOM     81  O   ARG A   2       2.830  -1.360  28.880  0.00  0.00    -0.274 OA
BRANCH  80  82
ATOM     82  CA  ARG A   2       0.909  -0.019  28.192  0.00  0.00    +0.159 C 
BRANCH  82  83
ATOM     83  N   ARG A   2       1.482   0.719  29.313  0.00  0.00    -0.303 N 
ATOM     84  H   ARG A   2       1.039   0.610  30.227  0.00  0.00    +0.149 HD
ATOM     85  C   ARG A   1       2.104   1.921  29.084  0.00  0.00    +0.230 C 
ATOM     86  O   ARG A   1       2.473   2.281  27.980  0.00  0.00    -0.274 OA
BRANCH  85  87
ATOM     87  CA  ARG A   1       2.418   2.716  30.358  0.00  0.00    +0.138 C 
BRANCH  87  88
ATOM     88  N   ARG A   1       3.866   2.967  30.473  0.00  0.00    -0.320 NA
ATOM     89  H1  ARG A   1       4.003   3.745  31.121  0.00  0.00    +0.119 HD
ATOM     90  H2  ARG A   1       4.304   2.165  30.933  0.00  0.00    +0.119 HD
ENDBRANCH  87  88
BRANCH  87  91
ATOM     91  CB  ARG A   1       1.638   4.037  30.363  0.00  0.00    +0.031 C 
BRANCH  91  92
ATOM     92  CG  ARG A   1       0.748   4.204  29.122  0.00  0.00    +0.039 C 
BRANCH  92  93
ATOM     93  CD  ARG A   1       0.468   5.676  28.811  0.00  0.00    +0.196 C 
BRANCH  93  94
ATOM     94  NE  ARG A   1       1.702   6.394  28.641  0.00  0.00    -0.276 N 
ATOM     95  HE  ARG A   1       1.729   7.017  27.846  0.00  0.00    +0.258 HD
ATOM     96  CZ  ARG A   1       2.790   6.357  29.438  0.00  0.00    +0.376 C 
ATOM     97  NH2 ARG A   1       3.836   7.067  29.202  0.00  0.00    -0.130 NA
ATOM     98  HH2 ARG A   1       3.681   7.606  28.348  0.00  0.00    +0.306 HD
ATOM     99  NH1 ARG A   1       2.796   5.513  30.483  0.00  0.00    -0.289 N 
ATOM    100 HH11 ARG A   1       3.563   5.684  31.120  0.00  0.00    +0.255 HD
ATOM    101 HH12 ARG A   1       1.931   5.276  30.962  0.00  0.00    +0.255 HD
ENDBRANCH  93  94
ENDBRANCH  92  93
ENDBRANCH  91  92
ENDBRANCH  87  91
ENDBRANCH  85  87
ENDBRANCH  82  83
BRANCH  82 102
ATOM    102  CB  ARG A   2       0.681   0.988  27.039  0.00  0.00    +0.035 C 
BRANCH 102 103
ATOM    103  CG  ARG A   2       1.096   0.649  25.594  0.00  0.00    +0.039 C 
BRANCH 103 104
ATOM    104  CD  ARG A   2       0.793   1.738  24.559  0.00  0.00    +0.196 C 
BRANCH 104 105
ATOM    105  NE  ARG A   2       1.718   1.757  23.439  0.00  0.00    -0.276 N 
ATOM    106  HE  ARG A   2       2.676   1.577  23.711  0.00  0.00    +0.258 HD
ATOM    107  CZ  ARG A   2       1.668   2.513  22.341  0.00  0.00    +0.376 C 
ATOM    108  NH2 ARG A   2       2.679   2.793  21.599  0.00  0.00    -0.130 NA
ATOM    109  HH2 ARG A   2       3.537   2.405  21.978  0.00  0.00    +0.306 HD
ATOM    110  NH1 ARG A   2       0.460   3.033  22.025  0.00  0.00    -0.289 N 
ATOM    111 HH11 ARG A   2       0.629   3.793  21.353  0.00  0.00    +0.255 HD
ATOM    112 HH12 ARG A   2       0.043   3.481  22.827  0.00  0.00    +0.255 HD
ENDBRANCH 104 105
ENDBRANCH 103 104
ENDBRANCH 102 103
ENDBRANCH  82 102
ENDBRANCH  80  82
ENDBRANCH  77  78
BRANCH  77 113
ATOM    113  CB  TYR A   3       3.336  -4.271  27.311  0.00  0.00    +0.067 C 
BRANCH 113 114
ATOM    114  CG  TYR A   3       2.940  -5.621  27.779  0.00  0.00    -0.045 A 
ATOM    115  CD2 TYR A   3       3.011  -6.747  26.897  0.00  0.00    +0.007 A 
ATOM    116  CE2 TYR A   3       2.170  -7.815  27.101  0.00  0.00    +0.045 A 
ATOM    117  CZ  TYR A   3       1.373  -7.776  28.234  0.00  0.00    +0.117 A 
ATOM    118  CE1 TYR A   3       1.409  -6.720  29.144  0.00  0.00    +0.045 A 
ATOM    119  CD1 TYR A   3       2.197  -5.618  28.919  0.00  0.00    +0.007 A 
BRANCH 117 120
ATOM    120  OH  TYR A   3       0.456  -8.757  28.415  0.00  0.00    -0.507 OA
ATOM    121  HH  TYR A   3       0.959  -9.572  28.571  0.00  0.00    +0.292 HD
ENDBRANCH 117 120
ENDBRANCH 113 114
ENDBRANCH  77 113
ENDBRANCH  75  77
ENDBRANCH  26  73
BRANCH  46 122
ATOM    122  CB  LYS A   8       8.392  -5.414  25.217  0.00  0.00    +0.032 C 
BRANCH 122 123
ATOM    123  CG  LYS A   8       8.136  -5.563  26.993  0.00  0.00    +0.003 C 
BRANCH 123 124
ATOM    124  CD  LYS A   8       7.871  -4.364  28.118  0.00  0.00    +0.015 C 
BRANCH 124 125
ATOM    125  CE  LYS A   8       8.815  -3.060  28.098  0.00  0.00    +0.077 C 
BRANCH 125 126
ATOM    126  NZ  LYS A   8       8.463  -1.972  29.025  0.00  0.00    -0.330 NA
ATOM    127  HZ1 LYS A   8       7.881  -2.347  29.785  0.00  0.00    +0.118 HD
ATOM    128  HZ2 LYS A   8       9.307  -1.663  29.517  0.00  0.00    +0.118 HD
ENDBRANCH 125 126
ENDBRANCH 124 125
ENDBRANCH 123 124
ENDBRANCH 122 123
ENDBRANCH  46 122
BRANCH  31 129
ATOM    129  CB  TYR A   5      11.111  -2.768  23.689  0.00  0.00    +0.067 C 
BRANCH 129 130
ATOM    130  CG  TYR A   5      12.136  -2.905  22.590  0.00  0.00    -0.045 A 
ATOM    131  CD2 TYR A   5      11.950  -2.215  21.379  0.00  0.00    +0.007 A 
ATOM    132  CE2 TYR A   5      13.018  -2.004  20.502  0.00  0.00    +0.045 A 
ATOM    133  CZ  TYR A   5      14.288  -2.388  20.893  0.00  0.00    +0.117 A 
ATOM    134  CE1 TYR A   5      14.448  -3.205  21.988  0.00  0.00    +0.045 A 
ATOM    135  CD1 TYR A   5      13.330  -3.570  22.725  0.00  0.00    +0.007 A 
BRANCH 133 136
ATOM    136  OH  TYR A   5      15.368  -1.941  20.202  0.00  0.00    -0.507 OA
ATOM    137  HH  TYR A   5      15.510  -2.576  19.475  0.00  0.00    +0.292 HD
ENDBRANCH 133 136
ENDBRANCH 129 130
ENDBRANCH  31 129
BRANCH  36 138
ATOM    138  CB  ARG A   6       5.802  -2.898  27.760  0.00  0.00    +0.035 C 
BRANCH 138 139
ATOM    139  CG  ARG A   6       5.305  -1.417  28.213  0.00  0.00    +0.039 C 
BRANCH 139 140
ATOM    140  CD  ARG A   6       5.788  -1.083  29.617  0.00  0.00    +0.196 C 
BRANCH 140 141
ATOM    141  NE  ARG A   6       5.636   0.306  30.023  0.00  0.00    -0.276 N 
ATOM    142  HE  ARG A   6       4.849   0.528  30.633  0.00  0.00    +0.258 HD
ATOM    143  CZ  ARG A   6       6.727   1.086  30.227  0.00  0.00    +0.376 C 
ATOM    144  NH2 ARG A   6       7.945   0.690  30.293  0.00  0.00    -0.130 NA
ATOM    145  HH2 ARG A   6       7.992  -0.324  30.214  0.00  0.00    +0.306 HD
ATOM    146  NH1 ARG A   6       6.467   2.399  30.319  0.00  0.00    -0.289 N 
ATOM    147 HH11 ARG A   6       7.303   2.917  30.568  0.00  0.00    +0.255 HD
ATOM    148 HH12 ARG A   6       5.662   2.666  30.867  0.00  0.00    +0.255 HD
ENDBRANCH 140 141
ENDBRANCH 139 140
ENDBRANCH 138 139
ENDBRANCH  36 138
BRANCH  41 149
ATOM    149  CB  LYS A   7       5.890  -6.863  21.857  0.00  0.00    +0.032 C 
BRANCH 149 150
ATOM    150  CG  LYS A   7       4.395  -7.041  21.787  0.00  0.00    +0.003 C 
BRANCH 150 151
ATOM    151  CD  LYS A   7       3.796  -7.210  23.163  0.00  0.00    +0.015 C 
BRANCH 151 152
ATOM    152  CE  LYS A   7       2.293  -7.010  23.212  0.00  0.00    +0.077 C 
BRANCH 152 153
ATOM    153  NZ  LYS A   7       1.753  -6.570  21.938  0.00  0.00    -0.330 NA
ATOM    154  HZ1 LYS A   7       1.433  -5.608  22.019  0.00  0.00    +0.118 HD
ATOM    155  HZ2 LYS A   7       2.490  -6.574  21.233  0.00  0.00    +0.118 HD
ENDBRANCH 152 153
ENDBRANCH 151 152
ENDBRANCH 150 151
ENDBRANCH 149 150
ENDBRANCH  41 149
BRANCH   6 156
ATOM    156  CB  TYR A  10       4.778   5.804  22.883  0.00  0.00    +0.067 C 
BRANCH 156 157
ATOM    157  CG  TYR A  10       3.571   6.122  23.741  0.00  0.00    -0.045 A 
ATOM    158  CD2 TYR A  10       3.743   6.681  24.988  0.00  0.00    +0.007 A 
ATOM    159  CE2 TYR A  10       2.688   6.745  25.907  0.00  0.00    +0.045 A 
ATOM    160  CZ  TYR A  10       1.426   6.256  25.572  0.00  0.00    +0.117 A 
ATOM    161  CE1 TYR A  10       1.202   5.680  24.330  0.00  0.00    +0.045 A 
ATOM    162  CD1 TYR A  10       2.275   5.593  23.422  0.00  0.00    +0.007 A 
BRANCH 160 163
ATOM    163  OH  TYR A  10       0.445   6.346  26.515  0.00  0.00    -0.507 OA
ATOM    164  HH  TYR A  10       0.535   7.188  26.988  0.00  0.00    +0.292 HD
ENDBRANCH 160 163
ENDBRANCH 156 157
ENDBRANCH   6 156
BRANCH  11 165
ATOM    165  CB  ARG A  11       8.408   1.840  24.999  0.00  0.00    +0.035 C 
BRANCH 165 166
ATOM    166  CG  ARG A  11       9.584   1.953  25.908  0.00  0.00    +0.039 C 
BRANCH 166 167
ATOM    167  CD  ARG A  11      11.034   2.081  25.533  0.00  0.00    +0.196 C 
BRANCH 167 168
ATOM    168  NE  ARG A  11      11.669   0.810  25.492  0.00  0.00    -0.276 N 
ATOM    169  HE  ARG A  11      12.219   0.672  26.328  0.00  0.00    +0.258 HD
ATOM    170  CZ  ARG A  11      12.305   0.330  24.410  0.00  0.00    +0.376 C 
ATOM    171  NH2 ARG A  11      13.242  -0.542  24.530  0.00  0.00    -0.130 NA
ATOM    172  HH2 ARG A  11      13.346  -0.726  25.533  0.00  0.00    +0.306 HD
ATOM    173  NH1 ARG A  11      11.933   0.787  23.206  0.00  0.00    -0.289 N 
ATOM    174 HH11 ARG A  11      12.576   0.437  22.506  0.00  0.00    +0.255 HD
ATOM    175 HH12 ARG A  11      11.853   1.789  23.138  0.00  0.00    +0.255 HD
ENDBRANCH 167 168
ENDBRANCH 166 167
ENDBRANCH 165 166
ENDBRANCH  11 165
BRANCH  16 176
ATOM    176  CB  LYS A  12       9.858   6.743  23.756  0.00  0.00    +0.032 C 
BRANCH 176 177
ATOM    177  CG  LYS A  12      11.375   6.435  23.859  0.00  0.00    +0.003 C 
BRANCH 177 178
ATOM    178  CD  LYS A  12      11.793   5.346  22.869  0.00  0.00    +0.015 C 
BRANCH 178 179
ATOM    179  CE  LYS A  12      12.113   4.008  23.532  0.00  0.00    +0.077 C 
BRANCH 179 180
ATOM    180  NZ  LYS A  12      13.547   3.849  23.736  0.00  0.00    -0.330 NA
ATOM    181  HZ1 LYS A  12      13.958   4.753  23.961  0.00  0.00    +0.118 HD
ATOM    182  HZ2 LYS A  12      13.725   3.252  24.541  0.00  0.00    +0.118 HD
ENDBRANCH 179 180
ENDBRANCH 178 179
ENDBRANCH 177 178
ENDBRANCH 176 177
ENDBRANCH  16 176
TORSDOF 55
ENDMDL
MODEL 3
REMARK VINA RESULT:      33.9      2.735     11.596
REMARK  Name = 
REMARK  55 active torsions:
REMARK  status: ('A' for Active; 'I' for Inactive)
REMARK    1  A    between atoms: CA_9  and  CB_11
REMARK    2  A    between atoms: CB_11  and  CG_12
REMARK    3  A    between atoms: CG_12  and  CD_13
REMARK    4  A    between atoms: CD_13  and  CE_14
REMARK    5  A    between atoms: CE_14  and  NZ_15
REMARK    6  A    between atoms: CA_19  and  CB_21
REMARK    7  A    between atoms: CB_21  and  CG_22
REMARK    8  A    between atoms: CG_22  and  CD_23
REMARK    9  A    between atoms: CD_23  and  CE_24
REMARK   10  A    between atoms: CE_24  and  NZ_25
REMARK   11  A    between atoms: CA_29  and  CB_31
REMARK   12  A    between atoms: CB_31  and  CG_32
REMARK   13  A    between atoms: CG_32  and  CD_33
REMARK   14  A    between atoms: CD_33  and  NE_34
REMARK   15  A    between atoms: CA_41  and  CB_43
REMARK   16  A    between atoms: CB_43  and  CG_44
REMARK   17  A    between atoms: CZ_47  and  OH_48
REMARK   18  A    between atoms: CA_54  and  N_115
REMARK   19  A    between atoms: CA_60  and  C_100
REMARK   20  A    between atoms: CA_65  and  CB_67
REMARK   21  A    between atoms: CB_67  and  CG_68
REMARK   22  A    between atoms: CG_68  and  CD_69
REMARK   23  A    between atoms: CD_69  and  CE_70
REMARK   24  A    between atoms: CE_70  and  NZ_71
REMARK   25  A    between atoms: CA_75  and  CB_77
REMARK   26  A    between atoms: CB_77  and  CG_78
REMARK   27  A    between atoms: CG_78  and  CD_79
REMARK   28  A    between atoms: CD_79  and  NE_80
REMARK   29  A    between atoms: CA_87  and  CB_89
REMARK   30  A    between atoms: CB_89  and  CG_90
REMARK   31  A    between atoms: CZ_93  and  OH_94
REMARK   32  A    between atoms: N_102  and  CA_103
REMARK   33  A    between atoms: CA_103  and  CB_105
REMARK   34  A    between atoms: CA_103  and  C_112
REMARK   35  A    between atoms: CB_105  and  CG_106
REMARK   36  A    between atoms: CG_106  and  CD_107
REMARK   37  A    between atoms: CD_107  and  NE_108
REMARK   38  A    between atoms: C_112  and  O_113
REMARK   39  A    between atoms: C_116  and  CA_118
REMARK   40  A    between atoms: CA_118  and  CB_120
REMARK   41  A    between atoms: CA_118  and  N_128
REMARK   42  A    between atoms: CB_120  and  CG_121
REMARK   43  A    between atoms: CZ_124  and  OH_125
REMARK   44  A    between atoms: C_129  and  CA_131
REMARK   45  A    between atoms: CA_131  and  CB_133
REMARK   46  A    between atoms: CA_131  and  N_140
REMARK   47  A    between atoms: CB_133  and  CG_134
REMARK   48  A    between atoms: CG_134  and  CD_135
REMARK   49  A    between atoms: CD_135  and  NE_136
REMARK   50  A    between atoms: C_141  and  CA_143
REMARK   51  A    between atoms: CA_143  and  N_145
REMARK   52  A    between atoms: CA_143  and  CB_146
REMARK   53  A    between atoms: CB_146  and  CG_147
REMARK   54  A    between atoms: CG_147  and  CD_148
REMARK   55  A    between atoms: CD_148  and  NE_149
REMARK                            x       y       z     vdW  Elec       q    Type
REMARK                         _______ _______ _______ _____ _____    ______ ____
ROOT
ATOM      1  CA  PRO A   9       4.952   1.429  28.341  0.00  0.00    +0.162 C 
ATOM      2  C   PRO A   9       5.875   2.719  29.248  0.00  0.00    +0.234 C 
ATOM      3  O   PRO A   9       5.985   2.536  30.477  0.00  0.00    -0.274 OA
ATOM      4  N   TYR A  10       6.122   4.117  28.875  0.00  0.00    -0.302 N 
ATOM      5  H   TYR A  10       6.133   4.742  29.672  0.00  0.00    +0.150 HD
ATOM      6  CA  TYR A  10       6.590   4.804  27.598  0.00  0.00    +0.163 C 
ATOM      7  C   TYR A  10       7.199   3.661  26.942  0.00  0.00    +0.234 C 
ATOM      8  O   TYR A  10       8.371   3.337  27.092  0.00  0.00    -0.274 OA
ATOM      9  N   ARG A  11       6.238   2.805  26.447  0.00  0.00    -0.302 N 
ATOM     10  H   ARG A  11       6.778   2.079  25.984  0.00  0.00    +0.150 HD
ATOM     11  CA  ARG A  11       4.858   2.986  25.889  0.00  0.00    +0.159 C 
ATOM     12  C   ARG A  11       3.682   3.722  26.478  0.00  0.00    +0.234 C 
ATOM     13  O   ARG A  11       2.532   3.314  26.498  0.00  0.00    -0.274 OA
ATOM     14  N   LYS A  12       3.713   5.052  26.548  0.00  0.00    -0.302 N 
ATOM     15  H   LYS A  12       2.925   5.258  27.152  0.00  0.00    +0.150 HD
ATOM     16  CA  LYS A  12       3.522   5.626  25.208  0.00  0.00    +0.159 C 
ATOM     17  C   LYS A  12       4.938   6.083  24.733  0.00  0.00    +0.234 C 
ATOM     18  O   LYS A  12       5.427   7.097  25.247  0.00  0.00    -0.274 OA
ATOM     19  N   CYS A  13       5.827   5.288  24.022  0.00  0.00    -0.302 N 
ATOM     20  H   CYS A  13       6.767   5.643  24.141  0.00  0.00    +0.150 HD
ATOM     21  CA  CYS A  13       5.713   4.404  22.801  0.00  0.00    +0.169 C 
ATOM     22  CB  CYS A  13       5.937   2.868  23.005  0.00  0.00    +0.112 C 
ATOM     23  SG  CYS A  13       7.518   2.330  24.098  0.00  0.00    -0.091 S 
ATOM     24  SG  CYS A   4       7.414   0.427  25.230  0.00  0.00    -0.091 S 
ATOM     25  CB  CYS A   4       7.555   0.257  27.401  0.00  0.00    +0.112 C 
ATOM     26  CA  CYS A   4       7.163  -1.200  28.315  0.00  0.00    +0.169 C 
ATOM     27  C   CYS A   4       5.564  -2.023  29.167  0.00  0.00    +0.235 C 
ATOM     28  O   CYS A   4       5.708  -2.444  30.334  0.00  0.00    -0.274 OA
ATOM     29  N   TYR A   5       3.907  -2.322  28.543  0.00  0.00    -0.302 N 
ATOM     30  H   TYR A   5       3.372  -2.838  29.240  0.00  0.00    +0.150 HD
ATOM     31  CA  TYR A   5       2.936  -2.076  26.886  0.00  0.00    +0.163 C 
ATOM     32  C   TYR A   5       3.726  -2.088  25.132  0.00  0.00    +0.234 C 
ATOM     33  O   TYR A   5       3.078  -1.758  24.133  0.00  0.00    -0.274 OA
ATOM     34  N   ARG A   6       5.077  -2.395  24.786  0.00  0.00    -0.302 N 
ATOM     35  H   ARG A   6       5.388  -1.739  24.068  0.00  0.00    +0.150 HD
ATOM     36  CA  ARG A   6       6.343  -3.386  25.168  0.00  0.00    +0.159 C 
ATOM     37  C   ARG A   6       6.923  -3.945  26.955  0.00  0.00    +0.234 C 
ATOM     38  O   ARG A   6       8.052  -4.388  27.297  0.00  0.00    -0.274 OA
ATOM     39  N   LYS A   7       6.408  -4.229  28.216  0.00  0.00    -0.302 N 
ATOM     40  H   LYS A   7       7.215  -4.257  28.834  0.00  0.00    +0.150 HD
ATOM     41  CA  LYS A   7       5.802  -5.514  28.678  0.00  0.00    +0.159 C 
ATOM     42  C   LYS A   7       4.373  -5.163  29.038  0.00  0.00    +0.234 C 
ATOM     43  O   LYS A   7       3.746  -5.427  30.054  0.00  0.00    -0.274 OA
ATOM     44  N   LYS A   8       3.738  -4.503  28.062  0.00  0.00    -0.302 N 
ATOM     45  H   LYS A   8       2.749  -4.391  28.223  0.00  0.00    +0.150 HD
ATOM     46  CA  LYS A   8       4.523  -3.764  27.002  0.00  0.00    +0.159 C 
ATOM     47  C   LYS A   8       5.082  -1.698  27.116  0.00  0.00    +0.237 C 
ATOM     48  O   LYS A   8       6.024  -1.336  26.422  0.00  0.00    -0.274 OA
ATOM     49  N   PRO A   9       4.567  -0.292  28.202  0.00  0.00    -0.288 N 
ATOM     50  CD  PRO A   9       3.786  -0.273  29.647  0.00  0.00    +0.109 C 
ATOM     51  CG  PRO A   9       3.129   1.071  29.971  0.00  0.00    +0.021 C 
ATOM     52  CB  PRO A   9       3.632   2.065  28.984  0.00  0.00    +0.033 C 
ENDROOT
BRANCH  21  53
ATOM     53  C   CYS A  13       4.482   4.894  21.972  0.00  0.00    +0.235 C 
ATOM     54  N   ARG A  14       3.849   4.062  21.078  0.00  0.00    -0.301 N 
ATOM     55  H   ARG A  14       3.963   3.054  21.076  0.00  0.00    +0.150 HD
ATOM     56  O   CYS A  13       4.136   6.080  22.032  0.00  0.00    -0.274 OA
BRANCH  54  57
ATOM     57  CA  ARG A  14       3.140   4.684  19.932  0.00  0.00    +0.182 C 
BRANCH  57  58
ATOM     58  C   ARG A  14       2.818   6.184  20.059  0.00  0.00    +0.325 C 
ATOM     59  OXT ARG A  14       3.476   7.105  19.601  0.00  0.00    -0.249 OA
BRANCH  58  60
ATOM     60  O   ARG A  14       1.789   6.414  20.907  0.00  0.00    -0.479 OA
ATOM     61  H   ARG A  14       1.643   5.593  21.425  0.00  0.00    +0.295 HD
ENDBRANCH  58  60
ENDBRANCH  57  58
BRANCH  57  62
ATOM     62  CB  ARG A  14       1.832   3.884  19.670  0.00  0.00    +0.037 C 
BRANCH  62  63
ATOM     63  CG  ARG A  14       1.206   4.073  18.280  0.00  0.00    +0.039 C 
BRANCH  63  64
ATOM     64  CD  ARG A  14       0.584   5.459  18.030  0.00  0.00    +0.196 C 
BRANCH  64  65
ATOM     65  NE  ARG A  14       1.031   6.183  16.937  0.00  0.00    -0.276 N 
ATOM     66  HE  ARG A  14       0.933   7.177  17.048  0.00  0.00    +0.258 HD
ATOM     67  CZ  ARG A  14       2.110   5.773  16.260  0.00  0.00    +0.376 C 
ATOM     68  NH2 ARG A  14       2.872   4.759  16.466  0.00  0.00    -0.130 NA
ATOM     69  HH2 ARG A  14       2.620   4.254  17.338  0.00  0.00    +0.306 HD
ATOM     70  NH1 ARG A  14       2.381   6.541  15.191  0.00  0.00    -0.289 N 
ATOM     71 HH11 ARG A  14       2.982   6.029  14.548  0.00  0.00    +0.255 HD
ATOM     72 HH12 ARG A  14       1.552   6.882  14.740  0.00  0.00    +0.255 HD
ENDBRANCH  64  65
ENDBRANCH  63  64
ENDBRANCH  62  63
ENDBRANCH  57  62
ENDBRANCH  54  57
ENDBRANCH  21  53
BRANCH  26  73
ATOM     73  N   CYS A   4       8.356  -2.223  27.757  0.00  0.00    -0.302 N 
ATOM     74  H   CYS A   4       7.898  -3.099  27.677  0.00  0.00    +0.150 HD
ATOM     75  C   TYR A   3       9.576  -2.175  26.950  0.00  0.00    +0.234 C 
ATOM     76  O   TYR A   3      10.472  -1.373  27.258  0.00  0.00    -0.274 OA
BRANCH  75  77
ATOM     77  CA  TYR A   3       9.969  -3.245  25.433  0.00  0.00    +0.163 C 
BRANCH  77  78
ATOM     78  N   TYR A   3      11.111  -2.760  24.613  0.00  0.00    -0.302 N 
ATOM     79  H   TYR A   3      12.008  -2.986  25.031  0.00  0.00    +0.150 HD
ATOM     80  C   ARG A   2      11.054  -1.639  23.784  0.00  0.00    +0.234 C 
ATOM     81  O   ARG A   2      10.096  -1.292  23.105  0.00  0.00    -0.274 OA
BRANCH  80  82
ATOM     82  CA  ARG A   2      12.443  -0.888  23.643  0.00  0.00    +0.159 C 
BRANCH  82  83
ATOM     83  N   ARG A   2      12.944  -1.447  22.391  0.00  0.00    -0.303 N 
ATOM     84  H   ARG A   2      13.741  -0.982  21.952  0.00  0.00    +0.149 HD
ATOM     85  C   ARG A   1      12.078  -2.091  21.543  0.00  0.00    +0.230 C 
ATOM     86  O   ARG A   1      10.979  -2.488  21.888  0.00  0.00    -0.274 OA
BRANCH  85  87
ATOM     87  CA  ARG A   1      12.664  -2.387  20.157  0.00  0.00    +0.138 C 
BRANCH  87  88
ATOM     88  N   ARG A   1      14.085  -2.001  20.099  0.00  0.00    -0.320 NA
ATOM     89  H1  ARG A   1      14.641  -2.853  19.991  0.00  0.00    +0.119 HD
ATOM     90  H2  ARG A   1      14.249  -1.473  19.239  0.00  0.00    +0.119 HD
ENDBRANCH  87  88
BRANCH  87  91
ATOM     91  CB  ARG A   1      12.492  -3.873  19.816  0.00  0.00    +0.031 C 
BRANCH  91  92
ATOM     92  CG  ARG A   1      12.010  -4.097  18.374  0.00  0.00    +0.039 C 
BRANCH  92  93
ATOM     93  CD  ARG A   1      11.061  -5.293  18.267  0.00  0.00    +0.196 C 
BRANCH  93  94
ATOM     94  NE  ARG A   1      10.833  -5.867  19.565  0.00  0.00    -0.276 N 
ATOM     95  HE  ARG A   1      11.453  -5.540  20.293  0.00  0.00    +0.258 HD
ATOM     96  CZ  ARG A   1       9.870  -6.744  19.917  0.00  0.00    +0.376 C 
ATOM     97  NH2 ARG A   1       9.743  -7.173  21.123  0.00  0.00    -0.130 NA
ATOM     98  HH2 ARG A   1      10.473  -6.752  21.700  0.00  0.00    +0.306 HD
ATOM     99  NH1 ARG A   1       9.052  -7.221  18.965  0.00  0.00    -0.289 N 
ATOM    100 HH11 ARG A   1       8.259  -7.722  19.345  0.00  0.00    +0.255 HD
ATOM    101 HH12 ARG A   1       8.810  -6.652  18.158  0.00  0.00    +0.255 HD
ENDBRANCH  93  94
ENDBRANCH  92  93
ENDBRANCH  91  92
ENDBRANCH  87  91
ENDBRANCH  85  87
ENDBRANCH  82  83
BRANCH  82 102
ATOM    102  CB  ARG A   2      12.549   0.652  23.541  0.00  0.00    +0.035 C 
BRANCH 102 103
ATOM    103  CG  ARG A   2      11.313   1.514  23.215  0.00  0.00    +0.039 C 
BRANCH 103 104
ATOM    104  CD  ARG A   2      11.588   3.015  23.076  0.00  0.00    +0.196 C 
BRANCH 104 105
ATOM    105  NE  ARG A   2      10.440   3.782  22.623  0.00  0.00    -0.276 N 
ATOM    106  HE  ARG A   2      10.547   4.141  21.683  0.00  0.00    +0.258 HD
ATOM    107  CZ  ARG A   2       9.635   4.566  23.344  0.00  0.00    +0.376 C 
ATOM    108  NH2 ARG A   2       8.917   5.516  22.862  0.00  0.00    -0.130 NA
ATOM    109  HH2 ARG A   2       9.072   5.631  21.867  0.00  0.00    +0.306 HD
ATOM    110  NH1 ARG A   2       9.616   4.340  24.677  0.00  0.00    -0.289 N 
ATOM    111 HH11 ARG A   2       9.194   5.170  25.114  0.00  0.00    +0.255 HD
ATOM    112 HH12 ARG A   2      10.553   4.297  25.047  0.00  0.00    +0.255 HD
ENDBRANCH 104 105
ENDBRANCH 103 104
ENDBRANCH 102 103
ENDBRANCH  82 102
ENDBRANCH  80  82
ENDBRANCH  77  78
BRANCH  77 113
ATOM    113  CB  TYR A   3       9.143  -4.705  24.724  0.00  0.00    +0.067 C 
BRANCH 113 114
ATOM    114  CG  TYR A   3       7.997  -4.913  23.806  0.00  0.00    -0.045 A 
ATOM    115  CD2 TYR A   3       6.978  -5.870  24.120  0.00  0.00    +0.007 A 
ATOM    116  CE2 TYR A   3       6.270  -6.458  23.098  0.00  0.00    +0.045 A 
ATOM    117  CZ  TYR A   3       6.520  -5.993  21.817  0.00  0.00    +0.117 A 
ATOM    118  CE1 TYR A   3       7.434  -4.974  21.550  0.00  0.00    +0.045 A 
ATOM    119  CD1 TYR A   3       8.193  -4.422  22.552  0.00  0.00    +0.007 A 
BRANCH 117 120
ATOM    120  OH  TYR A   3       5.923  -6.618  20.773  0.00  0.00    -0.507 OA
ATOM    121  HH  TYR A   3       5.419  -7.356  21.152  0.00  0.00    +0.292 HD
ENDBRANCH 117 120
ENDBRANCH 113 114
ENDBRANCH  77 113
ENDBRANCH  75  77
ENDBRANCH  26  73
BRANCH  46 122
ATOM    122  CB  LYS A   8       4.320  -5.420  26.014  0.00  0.00    +0.032 C 
BRANCH 122 123
ATOM    123  CG  LYS A   8       2.807  -6.279  25.551  0.00  0.00    +0.003 C 
BRANCH 123 124
ATOM    124  CD  LYS A   8       2.612  -7.841  25.009  0.00  0.00    +0.015 C 
BRANCH 124 125
ATOM    125  CE  LYS A   8       1.145  -8.503  25.062  0.00  0.00    +0.077 C 
BRANCH 125 126
ATOM    126  NZ  LYS A   8       0.980  -9.802  24.388  0.00  0.00    -0.330 NA
ATOM    127  HZ1 LYS A   8       1.120 -10.559  25.068  0.00  0.00    +0.118 HD
ATOM    128  HZ2 LYS A   8      -0.002  -9.918  24.117  0.00  0.00    +0.118 HD
ENDBRANCH 125 126
ENDBRANCH 124 125
ENDBRANCH 123 124
ENDBRANCH 122 123
ENDBRANCH  46 122
BRANCH  31 129
ATOM    129  CB  TYR A   5       1.362  -2.671  26.664  0.00  0.00    +0.067 C 
BRANCH 129 130
ATOM    130  CG  TYR A   5       0.763  -3.504  25.557  0.00  0.00    -0.045 A 
ATOM    131  CD2 TYR A   5       0.627  -2.952  24.271  0.00  0.00    +0.007 A 
ATOM    132  CE2 TYR A   5       0.444  -3.772  23.154  0.00  0.00    +0.045 A 
ATOM    133  CZ  TYR A   5       0.509  -5.144  23.315  0.00  0.00    +0.117 A 
ATOM    134  CE1 TYR A   5       0.473  -5.685  24.580  0.00  0.00    +0.045 A 
ATOM    135  CD1 TYR A   5       0.446  -4.835  25.676  0.00  0.00    +0.007 A 
BRANCH 133 136
ATOM    136  OH  TYR A   5       0.624  -5.945  22.225  0.00  0.00    -0.507 OA
ATOM    137  HH  TYR A   5       0.404  -5.391  21.453  0.00  0.00    +0.292 HD
ENDBRANCH 133 136
ENDBRANCH 129 130
ENDBRANCH  31 129
BRANCH  36 138
ATOM    138  CB  ARG A   6       7.282  -3.213  23.592  0.00  0.00    +0.035 C 
BRANCH 138 139
ATOM    139  CG  ARG A   6       8.661  -2.362  23.444  0.00  0.00    +0.039 C 
BRANCH 139 140
ATOM    140  CD  ARG A   6       8.381  -0.947  22.962  0.00  0.00    +0.196 C 
BRANCH 140 141
ATOM    141  NE  ARG A   6       6.983  -0.631  22.707  0.00  0.00    -0.276 N 
ATOM    142  HE  ARG A   6       6.338  -0.712  23.493  0.00  0.00    +0.258 HD
ATOM    143  CZ  ARG A   6       6.647   0.335  21.816  0.00  0.00    +0.376 C 
ATOM    144  NH2 ARG A   6       7.444   1.183  21.276  0.00  0.00    -0.130 NA
ATOM    145  HH2 ARG A   6       8.387   1.067  21.643  0.00  0.00    +0.306 HD
ATOM    146  NH1 ARG A   6       5.355   0.343  21.459  0.00  0.00    -0.289 N 
ATOM    147 HH11 ARG A   6       5.146   1.143  20.871  0.00  0.00    +0.255 HD
ATOM    148 HH12 ARG A   6       4.678   0.209  22.196  0.00  0.00    +0.255 HD
ENDBRANCH 140 141
ENDBRANCH 139 140
ENDBRANCH 138 139
ENDBRANCH  36 138
BRANCH  41 149
ATOM    149  CB  LYS A   7       6.231  -6.288  29.918  0.00  0.00    +0.032 C 
BRANCH 149 150
ATOM    150  CG  LYS A   7       5.882  -7.748  30.048  0.00  0.00    +0.003 C 
BRANCH 150 151
ATOM    151  CD  LYS A   7       4.527  -8.045  29.450  0.00  0.00    +0.015 C 
BRANCH 151 152
ATOM    152  CE  LYS A   7       3.405  -8.117  30.469  0.00  0.00    +0.077 C 
BRANCH 152 153
ATOM    153  NZ  LYS A   7       2.488  -6.997  30.361  0.00  0.00    -0.330 NA
ATOM    154  HZ1 LYS A   7       2.062  -6.994  29.437  0.00  0.00    +0.118 HD
ATOM    155  HZ2 LYS A   7       1.728  -7.109  31.032  0.00  0.00    +0.118 HD
ENDBRANCH 152 153
ENDBRANCH 151 152
ENDBRANCH 150 151
ENDBRANCH 149 150
ENDBRANCH  41 149
BRANCH   6 156
ATOM    156  CB  TYR A  10       7.400   6.129  27.236  0.00  0.00    +0.067 C 
BRANCH 156 157
ATOM    157  CG  TYR A  10       8.802   6.595  27.571  0.00  0.00    -0.045 A 
ATOM    158  CD2 TYR A  10       9.777   6.595  26.598  0.00  0.00    +0.007 A 
ATOM    159  CE2 TYR A  10      11.129   6.763  26.924  0.00  0.00    +0.045 A 
ATOM    160  CZ  TYR A  10      11.520   6.952  28.248  0.00  0.00    +0.117 A 
ATOM    161  CE1 TYR A  10      10.577   6.956  29.266  0.00  0.00    +0.045 A 
ATOM    162  CD1 TYR A  10       9.223   6.757  28.934  0.00  0.00    +0.007 A 
BRANCH 160 163
ATOM    163  OH  TYR A  10      12.852   7.105  28.496  0.00  0.00    -0.507 OA
ATOM    164  HH  TYR A  10      12.968   7.698  29.256  0.00  0.00    +0.292 HD
ENDBRANCH 160 163
ENDBRANCH 156 157
ENDBRANCH   6 156
BRANCH  11 165
ATOM    165  CB  ARG A  11       4.210   1.786  25.155  0.00  0.00    +0.035 C 
BRANCH 165 166
ATOM    166  CG  ARG A  11       2.973   1.687  24.331  0.00  0.00    +0.039 C 
BRANCH 166 167
ATOM    167  CD  ARG A  11       2.543   2.573  23.195  0.00  0.00    +0.196 C 
BRANCH 167 168
ATOM    168  NE  ARG A  11       1.665   1.889  22.312  0.00  0.00    -0.276 N 
ATOM    169  HE  ARG A  11       2.153   1.125  21.866  0.00  0.00    +0.258 HD
ATOM    170  CZ  ARG A  11       0.844   2.510  21.448  0.00  0.00    +0.376 C 
ATOM    171  NH2 ARG A  11       0.449   1.921  20.376  0.00  0.00    -0.130 NA
ATOM    172  HH2 ARG A  11       0.880   0.990  20.375  0.00  0.00    +0.306 HD
ATOM    173  NH1 ARG A  11       0.452   3.758  21.739  0.00  0.00    -0.289 N 
ATOM    174 HH11 ARG A  11      -0.053   4.140  20.947  0.00  0.00    +0.255 HD
ATOM    175 HH12 ARG A  11       1.193   4.383  22.013  0.00  0.00    +0.255 HD
ENDBRANCH 167 168
ENDBRANCH 166 167
ENDBRANCH 165 166
ENDBRANCH  11 165
BRANCH  16 176
ATOM    176  CB  LYS A  12       2.533   6.767  25.405  0.00  0.00    +0.032 C 
BRANCH 176 177
ATOM    177  CG  LYS A  12       1.793   6.747  26.769  0.00  0.00    +0.003 C 
BRANCH 177 178
ATOM    178  CD  LYS A  12       0.591   5.802  26.738  0.00  0.00    +0.015 C 
BRANCH 178 179
ATOM    179  CE  LYS A  12       0.812   4.505  27.515  0.00  0.00    +0.077 C 
BRANCH 179 180
ATOM    180  NZ  LYS A  12       1.038   4.771  28.930  0.00  0.00    -0.330 NA
ATOM    181  HZ1 LYS A  12       0.519   5.603  29.204  0.00  0.00    +0.118 HD
ATOM    182  HZ2 LYS A  12       0.668   4.010  29.495  0.00  0.00    +0.118 HD
ENDBRANCH 179 180
ENDBRANCH 178 179
ENDBRANCH 177 178
ENDBRANCH 176 177
ENDBRANCH  16 176
TORSDOF 55
ENDMDL
