MODEL 1
REMARK VINA RESULT:      -4.5      0.000      0.000
REMARK  Name = 
REMARK  42 active torsions:
REMARK  status: ('A' for Active; 'I' for Inactive)
REMARK    1  A    between atoms: C_1  and  O_2
REMARK    2  A    between atoms: O_2  and  C_3
REMARK    3  A    between atoms: C_5  and  C_6
REMARK    4  A    between atoms: C_6  and  C_7
REMARK    5  A    between atoms: C_11  and  O_12
REMARK    6  A    between atoms: O_12  and  C_13
REMARK    7  A    between atoms: C_14  and  O_15
REMARK    8  A    between atoms: O_15  and  C_16
REMARK    9  A    between atoms: N_21  and  C_22
REMARK   10  A    between atoms: N_21  and  C_23
REMARK   11  A    between atoms: C_23  and  C_24
REMARK   12  A    between atoms: C_24  and  C_25
REMARK   13  A    between atoms: C_25  and  O_26
REMARK   14  A    between atoms: O_26  and  C_27
REMARK   15  A    between atoms: C_27  and  C_29
REMARK   16  A    between atoms: C_29  and  C_30
REMARK   17  A    between atoms: C_30  and  C_31
REMARK   18  A    between atoms: C_32  and  C_33
REMARK   19  A    between atoms: C_33  and  C_34
REMARK   20  A    between atoms: C_34  and  C_35
REMARK   21  A    between atoms: C_35  and  O_37
REMARK   22  A    between atoms: O_37  and  C_38
REMARK   23  A    between atoms: C_38  and  C_39
REMARK   24  A    between atoms: C_39  and  C_40
REMARK   25  A    between atoms: C_40  and  N_41
REMARK   26  A    between atoms: N_41  and  C_42
REMARK   27  A    between atoms: C_47  and  O_48
REMARK   28  A    between atoms: O_48  and  C_49
REMARK   29  A    between atoms: C_50  and  O_51
REMARK   30  A    between atoms: O_51  and  C_52
REMARK   31  A    between atoms: C_55  and  C_57
REMARK   32  A    between atoms: C_57  and  C_58
REMARK   33  A    between atoms: C_60  and  O_61
REMARK   34  A    between atoms: O_61  and  C_62
REMARK   35  A    between atoms: C_63  and  O_64
REMARK   36  A    between atoms: O_64  and  C_65
REMARK   37  A    between atoms: C_66  and  O_67
REMARK   38  A    between atoms: O_67  and  C_68
REMARK   39  A    between atoms: C_71  and  O_72
REMARK   40  A    between atoms: O_72  and  C_73
REMARK   41  A    between atoms: C_74  and  O_75
REMARK   42  A    between atoms: O_75  and  C_76
REMARK                            x       y       z     vdW  Elec       q    Type
REMARK                         _______ _______ _______ _____ _____    ______ ____
ROOT
ATOM      1  C   UNL     1       6.493  -3.548  26.232  0.00  0.00    -0.030 C 
ATOM      2  C   UNL     1       7.675  -2.914  26.298  0.00  0.00    -0.030 C 
ENDROOT
BRANCH   1   3
ATOM      3  C   UNL     1       6.209  -4.964  26.667  0.00  0.00    +0.038 C 
BRANCH   3   4
ATOM      4  C   UNL     1       6.236  -5.230  28.168  0.00  0.00    +0.124 C 
BRANCH   4   5
ATOM      5  C   UNL     1       5.707  -6.606  28.484  0.00  0.00    +0.307 C 
ATOM      6  O   UNL     1       6.335  -7.503  29.033  0.00  0.00    -0.251 OA
BRANCH   5   7
ATOM      7  O   UNL     1       4.399  -6.703  28.100  0.00  0.00    -0.464 OA
BRANCH   7   8
ATOM      8  C   UNL     1       3.453  -6.684  29.174  0.00  0.00    +0.237 C 
BRANCH   8   9
ATOM      9  C   UNL     1       3.285  -5.251  29.666  0.00  0.00    +0.092 C 
BRANCH   9  10
ATOM     10  C   UNL     1       1.957  -4.674  29.220  0.00  0.00    +0.137 C 
BRANCH  10  12
ATOM     11  C   UNL     1       1.671  -2.413  27.880  0.00  0.00    +0.102 C 
ATOM     12  N   UNL     1       1.897  -3.127  29.295  0.00  0.00    +0.247 N 
ATOM     13  C   UNL     1       3.215  -2.671  29.943  0.00  0.00    +0.193 C 
ATOM     14  C   UNL     1       0.703  -2.720  30.188  0.00  0.00    +0.138 C 
ATOM     15  C   UNL     1       0.693  -1.227  30.484  0.00  0.00    +0.086 C 
ATOM     16  C   UNL     1       0.901  -0.379  29.258  0.00  0.00    -0.030 A 
ATOM     17  C   UNL     1       0.647   1.002  29.365  0.00  0.00    +0.053 A 
ATOM     18  C   UNL     1       0.782   1.867  28.275  0.00  0.00    +0.162 A 
ATOM     19  C   UNL     1       1.136   1.339  27.045  0.00  0.00    +0.162 A 
ATOM     20  C   UNL     1       1.389  -0.032  26.938  0.00  0.00    +0.058 A 
ATOM     21  C   UNL     1       1.354  -0.913  28.036  0.00  0.00    +0.008 A 
BRANCH  19  22
ATOM     22  O   UNL     1       1.324   2.177  25.970  0.00  0.00    -0.491 OA
ATOM     23  C   UNL     1       0.449   2.029  24.859  0.00  0.00    +0.277 C 
ENDBRANCH  19  22
BRANCH  18  24
ATOM     24  O   UNL     1       0.519   3.175  28.605  0.00  0.00    -0.491 OA
ATOM     25  C   UNL     1       1.604   4.012  28.977  0.00  0.00    +0.277 C 
ENDBRANCH  18  24
BRANCH  11  26
ATOM     26  C   UNL     1       2.847  -2.809  26.907  0.00  0.00    +0.095 C 
BRANCH  26  31
ATOM     27  C   UNL     1       1.339  -5.864  25.221  0.00  0.00    +0.165 A 
ATOM     28  C   UNL     1       2.203  -6.057  24.117  0.00  0.00    +0.204 A 
ATOM     29  C   UNL     1       3.185  -5.082  23.846  0.00  0.00    +0.165 A 
ATOM     30  C   UNL     1       3.327  -3.974  24.698  0.00  0.00    +0.053 A 
ATOM     31  C   UNL     1       2.520  -3.819  25.828  0.00  0.00    -0.035 A 
ATOM     32  C   UNL     1       1.465  -4.717  26.021  0.00  0.00    +0.053 A 
BRANCH  27  34
ATOM     33  C   UNL     1       0.994  -8.139  25.849  0.00  0.00    +0.277 C 
ATOM     34  O   UNL     1       0.444  -6.853  25.552  0.00  0.00    -0.491 OA
ENDBRANCH  27  34
BRANCH  28  35
ATOM     35  O   UNL     1       2.267  -7.218  23.390  0.00  0.00    -0.488 OA
ATOM     36  C   UNL     1       1.340  -7.395  22.325  0.00  0.00    +0.277 C 
ENDBRANCH  28  35
BRANCH  29  37
ATOM     37  O   UNL     1       4.135  -5.067  22.856  0.00  0.00    -0.491 OA
ATOM     38  C   UNL     1       5.369  -5.742  23.056  0.00  0.00    +0.277 C 
ENDBRANCH  29  37
ENDBRANCH  26  31
ENDBRANCH  11  26
ENDBRANCH  10  12
ENDBRANCH   9  10
ENDBRANCH   8   9
ENDBRANCH   7   8
ENDBRANCH   5   7
ENDBRANCH   4   5
ENDBRANCH   3   4
ENDBRANCH   1   3
BRANCH   2  39
ATOM     39  C   UNL     1       7.895  -1.469  25.972  0.00  0.00    +0.038 C 
BRANCH  39  40
ATOM     40  C   UNL     1       7.847  -0.559  27.189  0.00  0.00    +0.124 C 
BRANCH  40  41
ATOM     41  C   UNL     1       6.450  -0.107  27.533  0.00  0.00    +0.307 C 
ATOM     42  O   UNL     1       5.578  -0.738  28.112  0.00  0.00    -0.251 OA
BRANCH  41  43
ATOM     43  O   UNL     1       6.377   1.225  27.254  0.00  0.00    -0.464 OA
BRANCH  43  44
ATOM     44  C   UNL     1       5.096   1.668  26.809  0.00  0.00    +0.237 C 
BRANCH  44  45
ATOM     45  C   UNL     1       5.151   1.577  25.292  0.00  0.00    +0.092 C 
BRANCH  45  46
ATOM     46  C   UNL     1       5.382   2.887  24.543  0.00  0.00    +0.137 C 
BRANCH  46  47
ATOM     47  N   UNL     1       6.730   3.043  23.805  0.00  0.00    +0.247 N 
ATOM     48  C   UNL     1       7.442   4.435  24.336  0.00  0.00    +0.102 C 
ATOM     49  C   UNL     1       8.949   4.428  24.090  0.00  0.00    +0.008 A 
ATOM     50  C   UNL     1       9.650   3.286  23.675  0.00  0.00    -0.030 A 
ATOM     51  C   UNL     1      11.020   3.358  23.366  0.00  0.00    +0.053 A 
ATOM     52  C   UNL     1      11.751   4.534  23.539  0.00  0.00    +0.162 A 
ATOM     53  C   UNL     1      11.091   5.647  24.069  0.00  0.00    +0.162 A 
ATOM     54  C   UNL     1       9.001   1.945  23.518  0.00  0.00    +0.086 C 
ATOM     55  C   UNL     1       9.713   5.575  24.341  0.00  0.00    +0.058 A 
ATOM     56  C   UNL     1       7.646   1.867  24.191  0.00  0.00    +0.138 C 
ATOM     57  C   UNL     1       6.561   3.103  22.283  0.00  0.00    +0.193 C 
BRANCH  52  58
ATOM     58  O   UNL     1      13.075   4.635  23.224  0.00  0.00    -0.491 OA
ATOM     59  C   UNL     1      13.483   5.651  22.317  0.00  0.00    +0.277 C 
ENDBRANCH  52  58
BRANCH  53  60
ATOM     60  O   UNL     1      11.597   6.881  24.377  0.00  0.00    -0.491 OA
ATOM     61  C   UNL     1      12.195   7.076  25.650  0.00  0.00    +0.277 C 
ENDBRANCH  53  60
BRANCH  48  62
ATOM     62  C   UNL     1       6.665   5.634  23.683  0.00  0.00    +0.095 C 
BRANCH  62  63
ATOM     63  C   UNL     1       5.237   6.009  24.017  0.00  0.00    -0.035 A 
ATOM     64  C   UNL     1       4.793   6.349  25.302  0.00  0.00    +0.053 A 
ATOM     65  C   UNL     1       3.418   6.512  25.567  0.00  0.00    +0.165 A 
ATOM     66  C   UNL     1       2.458   6.283  24.561  0.00  0.00    +0.204 A 
ATOM     67  C   UNL     1       2.900   5.995  23.256  0.00  0.00    +0.165 A 
ATOM     68  C   UNL     1       4.271   5.854  23.008  0.00  0.00    +0.053 A 
BRANCH  67  69
ATOM     69  O   UNL     1       1.948   5.801  22.284  0.00  0.00    -0.491 OA
ATOM     70  C   UNL     1       2.226   6.345  20.996  0.00  0.00    +0.277 C 
ENDBRANCH  67  69
BRANCH  66  71
ATOM     71  O   UNL     1       1.100   6.443  24.712  0.00  0.00    -0.488 OA
ATOM     72  C   UNL     1       0.443   5.646  25.693  0.00  0.00    +0.277 C 
ENDBRANCH  66  71
BRANCH  65  73
ATOM     73  O   UNL     1       2.973   6.846  26.820  0.00  0.00    -0.491 OA
ATOM     74  C   UNL     1       3.900   6.675  27.885  0.00  0.00    +0.277 C 
ENDBRANCH  65  73
ENDBRANCH  62  63
ENDBRANCH  48  62
ENDBRANCH  46  47
ENDBRANCH  45  46
ENDBRANCH  44  45
ENDBRANCH  43  44
ENDBRANCH  41  43
ENDBRANCH  40  41
ENDBRANCH  39  40
ENDBRANCH   2  39
TORSDOF 30
ENDMDL
MODEL 2
REMARK VINA RESULT:      -4.3      2.387     11.185
REMARK  Name = 
REMARK  42 active torsions:
REMARK  status: ('A' for Active; 'I' for Inactive)
REMARK    1  A    between atoms: C_1  and  O_2
REMARK    2  A    between atoms: O_2  and  C_3
REMARK    3  A    between atoms: C_5  and  C_6
REMARK    4  A    between atoms: C_6  and  C_7
REMARK    5  A    between atoms: C_11  and  O_12
REMARK    6  A    between atoms: O_12  and  C_13
REMARK    7  A    between atoms: C_14  and  O_15
REMARK    8  A    between atoms: O_15  and  C_16
REMARK    9  A    between atoms: N_21  and  C_22
REMARK   10  A    between atoms: N_21  and  C_23
REMARK   11  A    between atoms: C_23  and  C_24
REMARK   12  A    between atoms: C_24  and  C_25
REMARK   13  A    between atoms: C_25  and  O_26
REMARK   14  A    between atoms: O_26  and  C_27
REMARK   15  A    between atoms: C_27  and  C_29
REMARK   16  A    between atoms: C_29  and  C_30
REMARK   17  A    between atoms: C_30  and  C_31
REMARK   18  A    between atoms: C_32  and  C_33
REMARK   19  A    between atoms: C_33  and  C_34
REMARK   20  A    between atoms: C_34  and  C_35
REMARK   21  A    between atoms: C_35  and  O_37
REMARK   22  A    between atoms: O_37  and  C_38
REMARK   23  A    between atoms: C_38  and  C_39
REMARK   24  A    between atoms: C_39  and  C_40
REMARK   25  A    between atoms: C_40  and  N_41
REMARK   26  A    between atoms: N_41  and  C_42
REMARK   27  A    between atoms: C_47  and  O_48
REMARK   28  A    between atoms: O_48  and  C_49
REMARK   29  A    between atoms: C_50  and  O_51
REMARK   30  A    between atoms: O_51  and  C_52
REMARK   31  A    between atoms: C_55  and  C_57
REMARK   32  A    between atoms: C_57  and  C_58
REMARK   33  A    between atoms: C_60  and  O_61
REMARK   34  A    between atoms: O_61  and  C_62
REMARK   35  A    between atoms: C_63  and  O_64
REMARK   36  A    between atoms: O_64  and  C_65
REMARK   37  A    between atoms: C_66  and  O_67
REMARK   38  A    between atoms: O_67  and  C_68
REMARK   39  A    between atoms: C_71  and  O_72
REMARK   40  A    between atoms: O_72  and  C_73
REMARK   41  A    between atoms: C_74  and  O_75
REMARK   42  A    between atoms: O_75  and  C_76
REMARK                            x       y       z     vdW  Elec       q    Type
REMARK                         _______ _______ _______ _____ _____    ______ ____
ROOT
ATOM      1  C   UNL     1       3.705  -3.343  24.625  0.00  0.00    -0.030 C 
ATOM      2  C   UNL     1       2.803  -4.116  23.999  0.00  0.00    -0.030 C 
ENDROOT
BRANCH   1   3
ATOM      3  C   UNL     1       5.060  -2.939  24.097  0.00  0.00    +0.038 C 
BRANCH   3   4
ATOM      4  C   UNL     1       5.432  -1.467  24.242  0.00  0.00    +0.124 C 
BRANCH   4   5
ATOM      5  C   UNL     1       5.208  -0.989  25.655  0.00  0.00    +0.307 C 
ATOM      6  O   UNL     1       4.308  -0.244  26.021  0.00  0.00    -0.251 OA
BRANCH   5   7
ATOM      7  O   UNL     1       6.141  -1.539  26.487  0.00  0.00    -0.464 OA
BRANCH   7   8
ATOM      8  C   UNL     1       6.812  -0.606  27.341  0.00  0.00    +0.237 C 
BRANCH   8   9
ATOM      9  C   UNL     1       8.210  -0.345  26.793  0.00  0.00    +0.092 C 
BRANCH   9  10
ATOM     10  C   UNL     1       8.255  -0.554  25.293  0.00  0.00    +0.137 C 
BRANCH  10  12
ATOM     11  C   UNL     1       8.571   2.052  24.978  0.00  0.00    +0.102 C 
ATOM     12  N   UNL     1       8.995   0.575  24.531  0.00  0.00    +0.247 N 
ATOM     13  C   UNL     1       8.717   0.346  23.036  0.00  0.00    +0.193 C 
ATOM     14  C   UNL     1      10.511   0.450  24.809  0.00  0.00    +0.138 C 
ATOM     15  C   UNL     1      11.331   1.390  23.937  0.00  0.00    +0.086 C 
ATOM     16  C   UNL     1      10.793   2.795  23.913  0.00  0.00    -0.030 A 
ATOM     17  C   UNL     1      11.611   3.800  23.363  0.00  0.00    +0.053 A 
ATOM     18  C   UNL     1      11.213   5.140  23.322  0.00  0.00    +0.162 A 
ATOM     19  C   UNL     1       9.995   5.490  23.877  0.00  0.00    +0.162 A 
ATOM     20  C   UNL     1       9.181   4.492  24.423  0.00  0.00    +0.058 A 
ATOM     21  C   UNL     1       9.511   3.123  24.395  0.00  0.00    +0.008 A 
BRANCH  19  22
ATOM     22  O   UNL     1       9.558   6.793  23.804  0.00  0.00    -0.491 OA
ATOM     23  C   UNL     1       8.156   7.023  23.870  0.00  0.00    +0.277 C 
ENDBRANCH  19  22
BRANCH  18  24
ATOM     24  O   UNL     1      12.144   5.949  22.715  0.00  0.00    -0.491 OA
ATOM     25  C   UNL     1      13.132   5.347  21.892  0.00  0.00    +0.277 C 
ENDBRANCH  18  24
BRANCH  11  26
ATOM     26  C   UNL     1       7.023   2.239  24.744  0.00  0.00    +0.095 C 
BRANCH  26  31
ATOM     27  C   UNL     1       4.729   4.780  26.397  0.00  0.00    +0.165 A 
ATOM     28  C   UNL     1       5.168   4.753  27.743  0.00  0.00    +0.204 A 
ATOM     29  C   UNL     1       6.111   3.779  28.129  0.00  0.00    +0.165 A 
ATOM     30  C   UNL     1       6.639   2.896  27.171  0.00  0.00    +0.053 A 
ATOM     31  C   UNL     1       6.258   2.969  25.829  0.00  0.00    -0.035 A 
ATOM     32  C   UNL     1       5.229   3.848  25.476  0.00  0.00    +0.053 A 
BRANCH  27  34
ATOM     33  C   UNL     1       4.497   7.021  25.614  0.00  0.00    +0.277 C 
ATOM     34  O   UNL     1       3.885   5.784  25.989  0.00  0.00    -0.491 OA
ENDBRANCH  27  34
BRANCH  28  35
ATOM     35  O   UNL     1       4.868   5.723  28.665  0.00  0.00    -0.488 OA
ATOM     36  C   UNL     1       5.816   6.762  28.878  0.00  0.00    +0.277 C 
ENDBRANCH  28  35
BRANCH  29  37
ATOM     37  O   UNL     1       6.690   3.577  29.356  0.00  0.00    -0.491 OA
ATOM     38  C   UNL     1       7.176   2.287  29.701  0.00  0.00    +0.277 C 
ENDBRANCH  29  37
ENDBRANCH  26  31
ENDBRANCH  11  26
ENDBRANCH  10  12
ENDBRANCH   9  10
ENDBRANCH   8   9
ENDBRANCH   7   8
ENDBRANCH   5   7
ENDBRANCH   4   5
ENDBRANCH   3   4
ENDBRANCH   1   3
BRANCH   2  39
ATOM     39  C   UNL     1       1.420  -4.397  24.497  0.00  0.00    +0.038 C 
BRANCH  39  40
ATOM     40  C   UNL     1       0.450  -4.802  23.399  0.00  0.00    +0.124 C 
BRANCH  40  41
ATOM     41  C   UNL     1       0.443  -6.288  23.137  0.00  0.00    +0.307 C 
ATOM     42  O   UNL     1       0.528  -6.861  22.061  0.00  0.00    -0.251 OA
BRANCH  41  43
ATOM     43  O   UNL     1       0.521  -6.911  24.347  0.00  0.00    -0.464 OA
BRANCH  43  44
ATOM     44  C   UNL     1       1.431  -8.010  24.389  0.00  0.00    +0.237 C 
BRANCH  44  45
ATOM     45  C   UNL     1       2.601  -7.523  25.230  0.00  0.00    +0.092 C 
BRANCH  45  46
ATOM     46  C   UNL     1       2.691  -8.075  26.650  0.00  0.00    +0.137 C 
BRANCH  46  47
ATOM     47  N   UNL     1       2.367  -7.098  27.801  0.00  0.00    +0.247 N 
ATOM     48  C   UNL     1       3.132  -5.668  27.485  0.00  0.00    +0.102 C 
ATOM     49  C   UNL     1       2.491  -4.506  28.238  0.00  0.00    +0.008 A 
ATOM     50  C   UNL     1       1.273  -4.620  28.925  0.00  0.00    -0.030 A 
ATOM     51  C   UNL     1       0.776  -3.546  29.686  0.00  0.00    +0.053 A 
ATOM     52  C   UNL     1       1.422  -2.310  29.722  0.00  0.00    +0.162 A 
ATOM     53  C   UNL     1       2.571  -2.145  28.943  0.00  0.00    +0.162 A 
ATOM     54  C   UNL     1       0.444  -5.867  28.911  0.00  0.00    +0.086 C 
ATOM     55  C   UNL     1       3.080  -3.235  28.213  0.00  0.00    +0.058 A 
ATOM     56  C   UNL     1       0.851  -6.829  27.814  0.00  0.00    +0.138 C 
ATOM     57  C   UNL     1       2.821  -7.629  29.165  0.00  0.00    +0.193 C 
BRANCH  52  58
ATOM     58  O   UNL     1       0.972  -1.262  30.471  0.00  0.00    -0.491 OA
ATOM     59  C   UNL     1       1.062   0.050  29.929  0.00  0.00    +0.277 C 
ENDBRANCH  52  58
BRANCH  53  60
ATOM     60  O   UNL     1       3.340  -1.026  28.771  0.00  0.00    -0.491 OA
ATOM     61  C   UNL     1       4.426  -0.800  29.657  0.00  0.00    +0.277 C 
ENDBRANCH  53  60
BRANCH  48  62
ATOM     62  C   UNL     1       4.662  -5.886  27.769  0.00  0.00    +0.095 C 
BRANCH  62  63
ATOM     63  C   UNL     1       5.757  -5.687  26.743  0.00  0.00    -0.035 A 
ATOM     64  C   UNL     1       6.897  -4.900  26.954  0.00  0.00    +0.053 A 
ATOM     65  C   UNL     1       7.783  -4.620  25.894  0.00  0.00    +0.165 A 
ATOM     66  C   UNL     1       7.513  -5.079  24.588  0.00  0.00    +0.204 A 
ATOM     67  C   UNL     1       6.399  -5.915  24.383  0.00  0.00    +0.165 A 
ATOM     68  C   UNL     1       5.540  -6.196  25.452  0.00  0.00    +0.053 A 
BRANCH  67  69
ATOM     69  O   UNL     1       6.168  -6.373  23.106  0.00  0.00    -0.491 OA
ATOM     70  C   UNL     1       4.819  -6.334  22.646  0.00  0.00    +0.277 C 
ENDBRANCH  67  69
BRANCH  66  71
ATOM     71  O   UNL     1       8.326  -4.884  23.497  0.00  0.00    -0.488 OA
ATOM     72  C   UNL     1       8.228  -3.639  22.811  0.00  0.00    +0.277 C 
ENDBRANCH  66  71
BRANCH  65  73
ATOM     73  O   UNL     1       8.902  -3.852  26.089  0.00  0.00    -0.491 OA
ATOM     74  C   UNL     1      10.038  -4.519  26.625  0.00  0.00    +0.277 C 
ENDBRANCH  65  73
ENDBRANCH  62  63
ENDBRANCH  48  62
ENDBRANCH  46  47
ENDBRANCH  45  46
ENDBRANCH  44  45
ENDBRANCH  43  44
ENDBRANCH  41  43
ENDBRANCH  40  41
ENDBRANCH  39  40
ENDBRANCH   2  39
TORSDOF 30
ENDMDL
MODEL 3
REMARK VINA RESULT:      -3.9      2.173      9.730
REMARK  Name = 
REMARK  42 active torsions:
REMARK  status: ('A' for Active; 'I' for Inactive)
REMARK    1  A    between atoms: C_1  and  O_2
REMARK    2  A    between atoms: O_2  and  C_3
REMARK    3  A    between atoms: C_5  and  C_6
REMARK    4  A    between atoms: C_6  and  C_7
REMARK    5  A    between atoms: C_11  and  O_12
REMARK    6  A    between atoms: O_12  and  C_13
REMARK    7  A    between atoms: C_14  and  O_15
REMARK    8  A    between atoms: O_15  and  C_16
REMARK    9  A    between atoms: N_21  and  C_22
REMARK   10  A    between atoms: N_21  and  C_23
REMARK   11  A    between atoms: C_23  and  C_24
REMARK   12  A    between atoms: C_24  and  C_25
REMARK   13  A    between atoms: C_25  and  O_26
REMARK   14  A    between atoms: O_26  and  C_27
REMARK   15  A    between atoms: C_27  and  C_29
REMARK   16  A    between atoms: C_29  and  C_30
REMARK   17  A    between atoms: C_30  and  C_31
REMARK   18  A    between atoms: C_32  and  C_33
REMARK   19  A    between atoms: C_33  and  C_34
REMARK   20  A    between atoms: C_34  and  C_35
REMARK   21  A    between atoms: C_35  and  O_37
REMARK   22  A    between atoms: O_37  and  C_38
REMARK   23  A    between atoms: C_38  and  C_39
REMARK   24  A    between atoms: C_39  and  C_40
REMARK   25  A    between atoms: C_40  and  N_41
REMARK   26  A    between atoms: N_41  and  C_42
REMARK   27  A    between atoms: C_47  and  O_48
REMARK   28  A    between atoms: O_48  and  C_49
REMARK   29  A    between atoms: C_50  and  O_51
REMARK   30  A    between atoms: O_51  and  C_52
REMARK   31  A    between atoms: C_55  and  C_57
REMARK   32  A    between atoms: C_57  and  C_58
REMARK   33  A    between atoms: C_60  and  O_61
REMARK   34  A    between atoms: O_61  and  C_62
REMARK   35  A    between atoms: C_63  and  O_64
REMARK   36  A    between atoms: O_64  and  C_65
REMARK   37  A    between atoms: C_66  and  O_67
REMARK   38  A    between atoms: O_67  and  C_68
REMARK   39  A    between atoms: C_71  and  O_72
REMARK   40  A    between atoms: O_72  and  C_73
REMARK   41  A    between atoms: C_74  and  O_75
REMARK   42  A    between atoms: O_75  and  C_76
REMARK                            x       y       z     vdW  Elec       q    Type
REMARK                         _______ _______ _______ _____ _____    ______ ____
ROOT
ATOM      1  C   UNL     1       6.279  -5.283  23.265  0.00  0.00    -0.030 C 
ATOM      2  C   UNL     1       5.244  -4.625  23.812  0.00  0.00    -0.030 C 
ENDROOT
BRANCH   1   3
ATOM      3  C   UNL     1       7.711  -5.253  23.739  0.00  0.00    +0.038 C 
BRANCH   3   4
ATOM      4  C   UNL     1       8.086  -4.123  24.692  0.00  0.00    +0.124 C 
BRANCH   4   5
ATOM      5  C   UNL     1       9.164  -3.251  24.100  0.00  0.00    +0.307 C 
ATOM      6  O   UNL     1      10.368  -3.460  24.169  0.00  0.00    -0.251 OA
BRANCH   5   7
ATOM      7  O   UNL     1       8.600  -2.198  23.436  0.00  0.00    -0.464 OA
BRANCH   7   8
ATOM      8  C   UNL     1       7.422  -1.661  24.046  0.00  0.00    +0.237 C 
BRANCH   8   9
ATOM      9  C   UNL     1       6.833  -0.589  23.137  0.00  0.00    +0.092 C 
BRANCH   9  10
ATOM     10  C   UNL     1       6.217   0.534  23.947  0.00  0.00    +0.137 C 
BRANCH  10  12
ATOM     11  C   UNL     1       7.007   2.732  25.186  0.00  0.00    +0.102 C 
ATOM     12  N   UNL     1       6.986   1.874  23.834  0.00  0.00    +0.247 N 
ATOM     13  C   UNL     1       6.327   2.660  22.689  0.00  0.00    +0.193 C 
ATOM     14  C   UNL     1       8.462   1.571  23.483  0.00  0.00    +0.138 C 
ATOM     15  C   UNL     1       9.241   2.835  23.151  0.00  0.00    +0.086 C 
ATOM     16  C   UNL     1       9.029   3.941  24.149  0.00  0.00    -0.030 A 
ATOM     17  C   UNL     1       9.895   5.050  24.092  0.00  0.00    +0.053 A 
ATOM     18  C   UNL     1       9.798   6.114  24.994  0.00  0.00    +0.162 A 
ATOM     19  C   UNL     1       8.847   6.051  25.998  0.00  0.00    +0.162 A 
ATOM     20  C   UNL     1       7.985   4.951  26.055  0.00  0.00    +0.058 A 
ATOM     21  C   UNL     1       7.996   3.910  25.105  0.00  0.00    +0.008 A 
BRANCH  19  22
ATOM     22  O   UNL     1       8.698   7.108  26.867  0.00  0.00    -0.491 OA
ATOM     23  C   UNL     1       9.344   7.018  28.131  0.00  0.00    +0.277 C 
ENDBRANCH  19  22
BRANCH  18  24
ATOM     24  O   UNL     1      10.715   7.105  24.742  0.00  0.00    -0.491 OA
ATOM     25  C   UNL     1      12.020   6.977  25.286  0.00  0.00    +0.277 C 
ENDBRANCH  18  24
BRANCH  11  26
ATOM     26  C   UNL     1       5.526   3.055  25.617  0.00  0.00    +0.095 C 
BRANCH  26  31
ATOM     27  C   UNL     1       2.835   4.393  23.288  0.00  0.00    +0.165 A 
ATOM     28  C   UNL     1       3.484   5.492  22.677  0.00  0.00    +0.204 A 
ATOM     29  C   UNL     1       4.752   5.882  23.154  0.00  0.00    +0.165 A 
ATOM     30  C   UNL     1       5.371   5.147  24.180  0.00  0.00    +0.053 A 
ATOM     31  C   UNL     1       4.761   4.021  24.735  0.00  0.00    -0.035 A 
ATOM     32  C   UNL     1       3.451   3.714  24.351  0.00  0.00    +0.053 A 
BRANCH  27  34
ATOM     33  C   UNL     1       0.609   3.646  23.708  0.00  0.00    +0.277 C 
ATOM     34  O   UNL     1       1.645   3.944  22.768  0.00  0.00    -0.491 OA
ENDBRANCH  27  34
BRANCH  28  35
ATOM     35  O   UNL     1       3.040   6.102  21.531  0.00  0.00    -0.488 OA
ATOM     36  C   UNL     1       1.797   6.792  21.576  0.00  0.00    +0.277 C 
ENDBRANCH  28  35
BRANCH  29  37
ATOM     37  O   UNL     1       5.568   6.891  22.708  0.00  0.00    -0.491 OA
ATOM     38  C   UNL     1       6.959   6.649  22.549  0.00  0.00    +0.277 C 
ENDBRANCH  29  37
ENDBRANCH  26  31
ENDBRANCH  11  26
ENDBRANCH  10  12
ENDBRANCH   9  10
ENDBRANCH   8   9
ENDBRANCH   7   8
ENDBRANCH   5   7
ENDBRANCH   4   5
ENDBRANCH   3   4
ENDBRANCH   1   3
BRANCH   2  39
ATOM     39  C   UNL     1       3.814  -4.772  23.391  0.00  0.00    +0.038 C 
BRANCH  39  40
ATOM     40  C   UNL     1       2.905  -5.276  24.500  0.00  0.00    +0.124 C 
BRANCH  40  41
ATOM     41  C   UNL     1       1.544  -4.625  24.488  0.00  0.00    +0.307 C 
ATOM     42  O   UNL     1       0.464  -5.147  24.252  0.00  0.00    -0.251 OA
BRANCH  41  43
ATOM     43  O   UNL     1       1.695  -3.365  24.983  0.00  0.00    -0.464 OA
BRANCH  43  44
ATOM     44  C   UNL     1       1.106  -3.158  26.267  0.00  0.00    +0.237 C 
BRANCH  44  45
ATOM     45  C   UNL     1       1.231  -1.664  26.524  0.00  0.00    +0.092 C 
BRANCH  45  46
ATOM     46  C   UNL     1       0.476  -1.120  27.733  0.00  0.00    +0.137 C 
BRANCH  46  47
ATOM     47  N   UNL     1       1.055   0.143  28.408  0.00  0.00    +0.247 N 
ATOM     48  C   UNL     1       2.698  -0.022  28.470  0.00  0.00    +0.102 C 
ATOM     49  C   UNL     1       3.395   1.327  28.624  0.00  0.00    +0.008 A 
ATOM     50  C   UNL     1       2.724   2.553  28.498  0.00  0.00    -0.030 A 
ATOM     51  C   UNL     1       3.392   3.765  28.748  0.00  0.00    +0.053 A 
ATOM     52  C   UNL     1       4.755   3.805  29.045  0.00  0.00    +0.162 A 
ATOM     53  C   UNL     1       5.463   2.599  29.052  0.00  0.00    +0.162 A 
ATOM     54  C   UNL     1       1.280   2.654  28.115  0.00  0.00    +0.086 C 
ATOM     55  C   UNL     1       4.778   1.389  28.836  0.00  0.00    +0.058 A 
ATOM     56  C   UNL     1       0.737   1.367  27.531  0.00  0.00    +0.138 C 
ATOM     57  C   UNL     1       0.509   0.353  29.825  0.00  0.00    +0.193 C 
BRANCH  52  58
ATOM     58  O   UNL     1       5.419   4.966  29.313  0.00  0.00    -0.491 OA
ATOM     59  C   UNL     1       6.828   4.915  29.507  0.00  0.00    +0.277 C 
ENDBRANCH  52  58
BRANCH  53  60
ATOM     60  O   UNL     1       6.799   2.387  29.259  0.00  0.00    -0.491 OA
ATOM     61  C   UNL     1       7.348   1.118  28.936  0.00  0.00    +0.277 C 
ENDBRANCH  53  60
BRANCH  48  62
ATOM     62  C   UNL     1       3.019  -1.072  29.594  0.00  0.00    +0.095 C 
BRANCH  62  63
ATOM     63  C   UNL     1       3.346  -2.527  29.335  0.00  0.00    -0.035 A 
ATOM     64  C   UNL     1       4.325  -2.964  28.433  0.00  0.00    +0.053 A 
ATOM     65  C   UNL     1       4.451  -4.331  28.115  0.00  0.00    +0.165 A 
ATOM     66  C   UNL     1       3.559  -5.281  28.654  0.00  0.00    +0.204 A 
ATOM     67  C   UNL     1       2.609  -4.855  29.602  0.00  0.00    +0.165 A 
ATOM     68  C   UNL     1       2.511  -3.495  29.918  0.00  0.00    +0.053 A 
BRANCH  67  69
ATOM     69  O   UNL     1       1.766  -5.803  30.135  0.00  0.00    -0.491 OA
ATOM     70  C   UNL     1       0.443  -5.378  30.452  0.00  0.00    +0.277 C 
ENDBRANCH  67  69
BRANCH  66  71
ATOM     71  O   UNL     1       3.616  -6.636  28.429  0.00  0.00    -0.488 OA
ATOM     72  C   UNL     1       2.867  -7.159  27.335  0.00  0.00    +0.277 C 
ENDBRANCH  66  71
BRANCH  65  73
ATOM     73  O   UNL     1       5.406  -4.769  27.235  0.00  0.00    -0.491 OA
ATOM     74  C   UNL     1       6.635  -5.202  27.803  0.00  0.00    +0.277 C 
ENDBRANCH  65  73
ENDBRANCH  62  63
ENDBRANCH  48  62
ENDBRANCH  46  47
ENDBRANCH  45  46
ENDBRANCH  44  45
ENDBRANCH  43  44
ENDBRANCH  41  43
ENDBRANCH  40  41
ENDBRANCH  39  40
ENDBRANCH   2  39
TORSDOF 30
ENDMDL
MODEL 4
REMARK VINA RESULT:      -2.2      2.442     10.961
REMARK  Name = 
REMARK  42 active torsions:
REMARK  status: ('A' for Active; 'I' for Inactive)
REMARK    1  A    between atoms: C_1  and  O_2
REMARK    2  A    between atoms: O_2  and  C_3
REMARK    3  A    between atoms: C_5  and  C_6
REMARK    4  A    between atoms: C_6  and  C_7
REMARK    5  A    between atoms: C_11  and  O_12
REMARK    6  A    between atoms: O_12  and  C_13
REMARK    7  A    between atoms: C_14  and  O_15
REMARK    8  A    between atoms: O_15  and  C_16
REMARK    9  A    between atoms: N_21  and  C_22
REMARK   10  A    between atoms: N_21  and  C_23
REMARK   11  A    between atoms: C_23  and  C_24
REMARK   12  A    between atoms: C_24  and  C_25
REMARK   13  A    between atoms: C_25  and  O_26
REMARK   14  A    between atoms: O_26  and  C_27
REMARK   15  A    between atoms: C_27  and  C_29
REMARK   16  A    between atoms: C_29  and  C_30
REMARK   17  A    between atoms: C_30  and  C_31
REMARK   18  A    between atoms: C_32  and  C_33
REMARK   19  A    between atoms: C_33  and  C_34
REMARK   20  A    between atoms: C_34  and  C_35
REMARK   21  A    between atoms: C_35  and  O_37
REMARK   22  A    between atoms: O_37  and  C_38
REMARK   23  A    between atoms: C_38  and  C_39
REMARK   24  A    between atoms: C_39  and  C_40
REMARK   25  A    between atoms: C_40  and  N_41
REMARK   26  A    between atoms: N_41  and  C_42
REMARK   27  A    between atoms: C_47  and  O_48
REMARK   28  A    between atoms: O_48  and  C_49
REMARK   29  A    between atoms: C_50  and  O_51
REMARK   30  A    between atoms: O_51  and  C_52
REMARK   31  A    between atoms: C_55  and  C_57
REMARK   32  A    between atoms: C_57  and  C_58
REMARK   33  A    between atoms: C_60  and  O_61
REMARK   34  A    between atoms: O_61  and  C_62
REMARK   35  A    between atoms: C_63  and  O_64
REMARK   36  A    between atoms: O_64  and  C_65
REMARK   37  A    between atoms: C_66  and  O_67
REMARK   38  A    between atoms: O_67  and  C_68
REMARK   39  A    between atoms: C_71  and  O_72
REMARK   40  A    between atoms: O_72  and  C_73
REMARK   41  A    between atoms: C_74  and  O_75
REMARK   42  A    between atoms: O_75  and  C_76
REMARK                            x       y       z     vdW  Elec       q    Type
REMARK                         _______ _______ _______ _____ _____    ______ ____
ROOT
ATOM      1  C   UNL     1       9.821  -3.477  23.884  0.00  0.00    -0.030 C 
ATOM      2  C   UNL     1       8.537  -3.855  23.772  0.00  0.00    -0.030 C 
ENDROOT
BRANCH   1   3
ATOM      3  C   UNL     1      10.398  -2.138  23.497  0.00  0.00    +0.038 C 
BRANCH   3   4
ATOM      4  C   UNL     1      10.155  -0.989  24.471  0.00  0.00    +0.124 C 
BRANCH   4   5
ATOM      5  C   UNL     1       9.752   0.265  23.739  0.00  0.00    +0.307 C 
ATOM      6  O   UNL     1       9.448   0.333  22.554  0.00  0.00    -0.251 OA
BRANCH   5   7
ATOM      7  O   UNL     1       9.737   1.325  24.601  0.00  0.00    -0.464 OA
BRANCH   7   8
ATOM      8  C   UNL     1       8.762   2.331  24.303  0.00  0.00    +0.237 C 
BRANCH   8   9
ATOM      9  C   UNL     1       7.506   2.067  25.125  0.00  0.00    +0.092 C 
BRANCH   9  10
ATOM     10  C   UNL     1       7.408   3.027  26.293  0.00  0.00    +0.137 C 
BRANCH  10  12
ATOM     11  C   UNL     1       5.008   3.577  27.256  0.00  0.00    +0.102 C 
ATOM     12  N   UNL     1       6.310   2.646  27.317  0.00  0.00    +0.247 N 
ATOM     13  C   UNL     1       6.969   2.704  28.705  0.00  0.00    +0.193 C 
ATOM     14  C   UNL     1       5.833   1.205  27.021  0.00  0.00    +0.138 C 
ATOM     15  C   UNL     1       4.904   0.676  28.105  0.00  0.00    +0.086 C 
ATOM     16  C   UNL     1       3.820   1.650  28.482  0.00  0.00    -0.030 A 
ATOM     17  C   UNL     1       2.755   1.173  29.270  0.00  0.00    +0.053 A 
ATOM     18  C   UNL     1       1.686   1.992  29.647  0.00  0.00    +0.162 A 
ATOM     19  C   UNL     1       1.657   3.299  29.194  0.00  0.00    +0.162 A 
ATOM     20  C   UNL     1       2.715   3.775  28.412  0.00  0.00    +0.058 A 
ATOM     21  C   UNL     1       3.850   3.004  28.095  0.00  0.00    +0.008 A 
BRANCH  19  22
ATOM     22  O   UNL     1       0.643   4.139  29.593  0.00  0.00    -0.491 OA
ATOM     23  C   UNL     1       0.812   5.533  29.361  0.00  0.00    +0.277 C 
ENDBRANCH  19  22
BRANCH  18  24
ATOM     24  O   UNL     1       0.776   1.338  30.441  0.00  0.00    -0.491 OA
ATOM     25  C   UNL     1       0.668  -0.074  30.330  0.00  0.00    +0.277 C 
ENDBRANCH  18  24
BRANCH  11  26
ATOM     26  C   UNL     1       5.429   5.072  27.525  0.00  0.00    +0.095 C 
BRANCH  26  31
ATOM     27  C   UNL     1       5.486   6.581  24.037  0.00  0.00    +0.165 A 
ATOM     28  C   UNL     1       6.862   6.855  23.848  0.00  0.00    +0.204 A 
ATOM     29  C   UNL     1       7.742   6.686  24.937  0.00  0.00    +0.165 A 
ATOM     30  C   UNL     1       7.255   6.201  26.163  0.00  0.00    +0.053 A 
ATOM     31  C   UNL     1       5.910   5.865  26.328  0.00  0.00    -0.035 A 
ATOM     32  C   UNL     1       5.019   6.155  25.290  0.00  0.00    +0.053 A 
BRANCH  27  34
ATOM     33  C   UNL     1       3.299   6.187  23.170  0.00  0.00    +0.277 C 
ATOM     34  O   UNL     1       4.636   6.649  22.959  0.00  0.00    -0.491 OA
ENDBRANCH  27  34
BRANCH  28  35
ATOM     35  O   UNL     1       7.431   7.107  22.626  0.00  0.00    -0.488 OA
ATOM     36  C   UNL     1       7.106   6.243  21.543  0.00  0.00    +0.277 C 
ENDBRANCH  28  35
BRANCH  29  37
ATOM     37  O   UNL     1       9.101   6.868  24.982  0.00  0.00    -0.491 OA
ATOM     38  C   UNL     1       9.838   6.377  26.094  0.00  0.00    +0.277 C 
ENDBRANCH  29  37
ENDBRANCH  26  31
ENDBRANCH  11  26
ENDBRANCH  10  12
ENDBRANCH   9  10
ENDBRANCH   8   9
ENDBRANCH   7   8
ENDBRANCH   5   7
ENDBRANCH   4   5
ENDBRANCH   3   4
ENDBRANCH   1   3
BRANCH   2  39
ATOM     39  C   UNL     1       7.974  -5.147  24.278  0.00  0.00    +0.038 C 
BRANCH  39  40
ATOM     40  C   UNL     1       7.901  -5.225  25.794  0.00  0.00    +0.124 C 
BRANCH  40  41
ATOM     41  C   UNL     1       9.069  -4.556  26.475  0.00  0.00    +0.307 C 
ATOM     42  O   UNL     1      10.255  -4.839  26.384  0.00  0.00    -0.251 OA
BRANCH  41  43
ATOM     43  O   UNL     1       8.594  -3.431  27.079  0.00  0.00    -0.464 OA
BRANCH  43  44
ATOM     44  C   UNL     1       7.329  -2.985  26.590  0.00  0.00    +0.237 C 
BRANCH  44  45
ATOM     45  C   UNL     1       6.299  -3.677  27.471  0.00  0.00    +0.092 C 
BRANCH  45  46
ATOM     46  C   UNL     1       5.036  -2.881  27.787  0.00  0.00    +0.137 C 
BRANCH  46  47
ATOM     47  N   UNL     1       3.862  -3.658  28.425  0.00  0.00    +0.247 N 
ATOM     48  C   UNL     1       3.516  -4.946  27.450  0.00  0.00    +0.102 C 
ATOM     49  C   UNL     1       2.765  -6.040  28.205  0.00  0.00    +0.008 A 
ATOM     50  C   UNL     1       2.602  -6.032  29.598  0.00  0.00    -0.030 A 
ATOM     51  C   UNL     1       1.817  -7.011  30.233  0.00  0.00    +0.053 A 
ATOM     52  C   UNL     1       1.244  -8.067  29.524  0.00  0.00    +0.162 A 
ATOM     53  C   UNL     1       1.502  -8.156  28.153  0.00  0.00    +0.162 A 
ATOM     54  C   UNL     1       3.222  -4.997  30.484  0.00  0.00    +0.086 C 
ATOM     55  C   UNL     1       2.259  -7.152  27.520  0.00  0.00    +0.058 A 
ATOM     56  C   UNL     1       4.313  -4.208  29.790  0.00  0.00    +0.138 C 
ATOM     57  C   UNL     1       2.609  -2.792  28.592  0.00  0.00    +0.193 C 
BRANCH  52  58
ATOM     58  O   UNL     1       0.460  -9.015  30.114  0.00  0.00    -0.491 OA
ATOM     59  C   UNL     1       0.976 -10.332  30.259  0.00  0.00    +0.277 C 
ENDBRANCH  52  58
BRANCH  53  60
ATOM     60  O   UNL     1       1.103  -9.116  27.263  0.00  0.00    -0.491 OA
ATOM     61  C   UNL     1       0.857  -8.740  25.916  0.00  0.00    +0.277 C 
ENDBRANCH  53  60
BRANCH  48  62
ATOM     62  C   UNL     1       2.779  -4.385  26.181  0.00  0.00    +0.095 C 
BRANCH  62  63
ATOM     63  C   UNL     1       3.271  -4.560  24.760  0.00  0.00    -0.035 A 
ATOM     64  C   UNL     1       2.914  -5.633  23.932  0.00  0.00    +0.053 A 
ATOM     65  C   UNL     1       3.549  -5.823  22.688  0.00  0.00    +0.165 A 
ATOM     66  C   UNL     1       4.595  -4.972  22.275  0.00  0.00    +0.204 A 
ATOM     67  C   UNL     1       4.920  -3.862  23.078  0.00  0.00    +0.165 A 
ATOM     68  C   UNL     1       4.266  -3.680  24.302  0.00  0.00    +0.053 A 
BRANCH  67  69
ATOM     69  O   UNL     1       5.926  -3.030  22.644  0.00  0.00    -0.491 OA
ATOM     70  C   UNL     1       6.060  -1.782  23.319  0.00  0.00    +0.277 C 
ENDBRANCH  67  69
BRANCH  66  71
ATOM     71  O   UNL     1       5.256  -5.056  21.072  0.00  0.00    -0.488 OA
ATOM     72  C   UNL     1       6.536  -5.682  21.061  0.00  0.00    +0.277 C 
ENDBRANCH  66  71
BRANCH  65  73
ATOM     73  O   UNL     1       3.207  -6.868  21.869  0.00  0.00    -0.491 OA
ATOM     74  C   UNL     1       1.816  -7.133  21.734  0.00  0.00    +0.277 C 
ENDBRANCH  65  73
ENDBRANCH  62  63
ENDBRANCH  48  62
ENDBRANCH  46  47
ENDBRANCH  45  46
ENDBRANCH  44  45
ENDBRANCH  43  44
ENDBRANCH  41  43
ENDBRANCH  40  41
ENDBRANCH  39  40
ENDBRANCH   2  39
TORSDOF 30
ENDMDL
MODEL 5
REMARK VINA RESULT:      -1.7      1.153      2.419
REMARK  Name = 
REMARK  42 active torsions:
REMARK  status: ('A' for Active; 'I' for Inactive)
REMARK    1  A    between atoms: C_1  and  O_2
REMARK    2  A    between atoms: O_2  and  C_3
REMARK    3  A    between atoms: C_5  and  C_6
REMARK    4  A    between atoms: C_6  and  C_7
REMARK    5  A    between atoms: C_11  and  O_12
REMARK    6  A    between atoms: O_12  and  C_13
REMARK    7  A    between atoms: C_14  and  O_15
REMARK    8  A    between atoms: O_15  and  C_16
REMARK    9  A    between atoms: N_21  and  C_22
REMARK   10  A    between atoms: N_21  and  C_23
REMARK   11  A    between atoms: C_23  and  C_24
REMARK   12  A    between atoms: C_24  and  C_25
REMARK   13  A    between atoms: C_25  and  O_26
REMARK   14  A    between atoms: O_26  and  C_27
REMARK   15  A    between atoms: C_27  and  C_29
REMARK   16  A    between atoms: C_29  and  C_30
REMARK   17  A    between atoms: C_30  and  C_31
REMARK   18  A    between atoms: C_32  and  C_33
REMARK   19  A    between atoms: C_33  and  C_34
REMARK   20  A    between atoms: C_34  and  C_35
REMARK   21  A    between atoms: C_35  and  O_37
REMARK   22  A    between atoms: O_37  and  C_38
REMARK   23  A    between atoms: C_38  and  C_39
REMARK   24  A    between atoms: C_39  and  C_40
REMARK   25  A    between atoms: C_40  and  N_41
REMARK   26  A    between atoms: N_41  and  C_42
REMARK   27  A    between atoms: C_47  and  O_48
REMARK   28  A    between atoms: O_48  and  C_49
REMARK   29  A    between atoms: C_50  and  O_51
REMARK   30  A    between atoms: O_51  and  C_52
REMARK   31  A    between atoms: C_55  and  C_57
REMARK   32  A    between atoms: C_57  and  C_58
REMARK   33  A    between atoms: C_60  and  O_61
REMARK   34  A    between atoms: O_61  and  C_62
REMARK   35  A    between atoms: C_63  and  O_64
REMARK   36  A    between atoms: O_64  and  C_65
REMARK   37  A    between atoms: C_66  and  O_67
REMARK   38  A    between atoms: O_67  and  C_68
REMARK   39  A    between atoms: C_71  and  O_72
REMARK   40  A    between atoms: O_72  and  C_73
REMARK   41  A    between atoms: C_74  and  O_75
REMARK   42  A    between atoms: O_75  and  C_76
REMARK                            x       y       z     vdW  Elec       q    Type
REMARK                         _______ _______ _______ _____ _____    ______ ____
ROOT
ATOM      1  C   UNL     1       7.440  -4.438  26.406  0.00  0.00    -0.030 C 
ATOM      2  C   UNL     1       8.482  -3.601  26.544  0.00  0.00    -0.030 C 
ENDROOT
BRANCH   1   3
ATOM      3  C   UNL     1       7.296  -5.802  27.035  0.00  0.00    +0.038 C 
BRANCH   3   4
ATOM      4  C   UNL     1       6.760  -5.836  28.462  0.00  0.00    +0.124 C 
BRANCH   4   5
ATOM      5  C   UNL     1       5.584  -6.773  28.576  0.00  0.00    +0.307 C 
ATOM      6  O   UNL     1       5.337  -7.494  29.535  0.00  0.00    -0.251 OA
BRANCH   5   7
ATOM      7  O   UNL     1       4.801  -6.678  27.460  0.00  0.00    -0.464 OA
BRANCH   7   8
ATOM      8  C   UNL     1       3.460  -7.150  27.624  0.00  0.00    +0.237 C 
BRANCH   8   9
ATOM      9  C   UNL     1       2.826  -6.447  28.818  0.00  0.00    +0.092 C 
BRANCH   9  10
ATOM     10  C   UNL     1       1.783  -5.444  28.369  0.00  0.00    +0.137 C 
BRANCH  10  12
ATOM     11  C   UNL     1       1.190  -2.901  27.953  0.00  0.00    +0.102 C 
ATOM     12  N   UNL     1       2.313  -3.990  28.295  0.00  0.00    +0.247 N 
ATOM     13  C   UNL     1       3.430  -3.987  27.238  0.00  0.00    +0.193 C 
ATOM     14  C   UNL     1       2.895  -3.603  29.674  0.00  0.00    +0.138 C 
ATOM     15  C   UNL     1       3.623  -2.267  29.633  0.00  0.00    +0.086 C 
ATOM     16  C   UNL     1       2.840  -1.187  28.937  0.00  0.00    -0.030 A 
ATOM     17  C   UNL     1       3.291   0.140  29.072  0.00  0.00    +0.053 A 
ATOM     18  C   UNL     1       2.615   1.216  28.488  0.00  0.00    +0.162 A 
ATOM     19  C   UNL     1       1.444   0.968  27.792  0.00  0.00    +0.162 A 
ATOM     20  C   UNL     1       0.996  -0.350  27.656  0.00  0.00    +0.058 A 
ATOM     21  C   UNL     1       1.704  -1.462  28.152  0.00  0.00    +0.008 A 
BRANCH  19  22
ATOM     22  O   UNL     1       0.788   2.003  27.166  0.00  0.00    -0.491 OA
ATOM     23  C   UNL     1       0.443   3.137  27.952  0.00  0.00    +0.277 C 
ENDBRANCH  19  22
BRANCH  18  24
ATOM     24  O   UNL     1       3.241   2.418  28.713  0.00  0.00    -0.491 OA
ATOM     25  C   UNL     1       2.961   3.113  29.920  0.00  0.00    +0.277 C 
ENDBRANCH  18  24
BRANCH  11  26
ATOM     26  C   UNL     1       0.535  -3.253  26.563  0.00  0.00    +0.095 C 
BRANCH  26  31
ATOM     27  C   UNL     1       2.597  -4.995  23.886  0.00  0.00    +0.165 A 
ATOM     28  C   UNL     1       2.057  -6.304  23.893  0.00  0.00    +0.204 A 
ATOM     29  C   UNL     1       1.124  -6.647  24.892  0.00  0.00    +0.165 A 
ATOM     30  C   UNL     1       0.705  -5.679  25.823  0.00  0.00    +0.053 A 
ATOM     31  C   UNL     1       1.185  -4.369  25.772  0.00  0.00    -0.035 A 
ATOM     32  C   UNL     1       2.205  -4.068  24.864  0.00  0.00    +0.053 A 
BRANCH  27  34
ATOM     33  C   UNL     1       4.752  -4.212  23.230  0.00  0.00    +0.277 C 
ATOM     34  O   UNL     1       3.432  -4.621  22.862  0.00  0.00    -0.491 OA
ENDBRANCH  27  34
BRANCH  28  35
ATOM     35  O   UNL     1       2.248  -7.215  22.886  0.00  0.00    -0.488 OA
ATOM     36  C   UNL     1       1.171  -7.460  21.990  0.00  0.00    +0.277 C 
ENDBRANCH  28  35
BRANCH  29  37
ATOM     37  O   UNL     1       0.460  -7.832  25.082  0.00  0.00    -0.491 OA
ATOM     38  C   UNL     1       0.510  -8.471  26.350  0.00  0.00    +0.277 C 
ENDBRANCH  29  37
ENDBRANCH  26  31
ENDBRANCH  11  26
ENDBRANCH  10  12
ENDBRANCH   9  10
ENDBRANCH   8   9
ENDBRANCH   7   8
ENDBRANCH   5   7
ENDBRANCH   4   5
ENDBRANCH   3   4
ENDBRANCH   1   3
BRANCH   2  39
ATOM     39  C   UNL     1       8.540  -2.205  26.006  0.00  0.00    +0.038 C 
BRANCH  39  40
ATOM     40  C   UNL     1       7.613  -1.239  26.726  0.00  0.00    +0.124 C 
BRANCH  40  41
ATOM     41  C   UNL     1       6.303  -1.032  26.007  0.00  0.00    +0.307 C 
ATOM     42  O   UNL     1       5.621  -1.868  25.433  0.00  0.00    -0.251 OA
BRANCH  41  43
ATOM     43  O   UNL     1       5.895   0.242  26.270  0.00  0.00    -0.464 OA
BRANCH  43  44
ATOM     44  C   UNL     1       4.730   0.651  25.556  0.00  0.00    +0.237 C 
BRANCH  44  45
ATOM     45  C   UNL     1       5.247   1.525  24.424  0.00  0.00    +0.092 C 
BRANCH  45  46
ATOM     46  C   UNL     1       5.954   2.814  24.833  0.00  0.00    +0.137 C 
BRANCH  46  47
ATOM     47  N   UNL     1       7.212   3.206  24.027  0.00  0.00    +0.247 N 
ATOM     48  C   UNL     1       7.923   4.489  24.786  0.00  0.00    +0.102 C 
ATOM     49  C   UNL     1       9.396   4.625  24.406  0.00  0.00    +0.008 A 
ATOM     50  C   UNL     1      10.092   3.644  23.683  0.00  0.00    -0.030 A 
ATOM     51  C   UNL     1      11.419   3.864  23.273  0.00  0.00    +0.053 A 
ATOM     52  C   UNL     1      12.119   5.015  23.635  0.00  0.00    +0.162 A 
ATOM     53  C   UNL     1      11.477   5.944  24.459  0.00  0.00    +0.162 A 
ATOM     54  C   UNL     1       9.481   2.334  23.292  0.00  0.00    +0.086 C 
ATOM     55  C   UNL     1      10.138   5.732  24.835  0.00  0.00    +0.058 A 
ATOM     56  C   UNL     1       8.207   2.031  24.053  0.00  0.00    +0.138 C 
ATOM     57  C   UNL     1       6.884   3.587  22.579  0.00  0.00    +0.193 C 
BRANCH  52  58
ATOM     58  O   UNL     1      13.399   5.260  23.229  0.00  0.00    -0.491 OA
ATOM     59  C   UNL     1      13.624   5.627  21.874  0.00  0.00    +0.277 C 
ENDBRANCH  52  58
BRANCH  53  60
ATOM     60  O   UNL     1      11.966   7.108  24.987  0.00  0.00    -0.491 OA
ATOM     61  C   UNL     1      12.511   7.089  26.297  0.00  0.00    +0.277 C 
ENDBRANCH  53  60
BRANCH  48  62
ATOM     62  C   UNL     1       7.039   5.753  24.493  0.00  0.00    +0.095 C 
BRANCH  62  63
ATOM     63  C   UNL     1       5.528   5.735  24.393  0.00  0.00    -0.035 A 
ATOM     64  C   UNL     1       4.822   5.478  23.210  0.00  0.00    +0.053 A 
ATOM     65  C   UNL     1       3.425   5.652  23.155  0.00  0.00    +0.165 A 
ATOM     66  C   UNL     1       2.715   6.141  24.271  0.00  0.00    +0.204 A 
ATOM     67  C   UNL     1       3.411   6.349  25.477  0.00  0.00    +0.165 A 
ATOM     68  C   UNL     1       4.797   6.154  25.517  0.00  0.00    +0.053 A 
BRANCH  67  69
ATOM     69  O   UNL     1       2.695   6.802  26.561  0.00  0.00    -0.491 OA
ATOM     70  C   UNL     1       2.792   6.035  27.758  0.00  0.00    +0.277 C 
ENDBRANCH  67  69
BRANCH  66  71
ATOM     71  O   UNL     1       1.352   6.318  24.327  0.00  0.00    -0.488 OA
ATOM     72  C   UNL     1       0.626   5.577  25.304  0.00  0.00    +0.277 C 
ENDBRANCH  66  71
BRANCH  65  73
ATOM     73  O   UNL     1       2.724   5.402  22.004  0.00  0.00    -0.491 OA
ATOM     74  C   UNL     1       2.607   4.038  21.621  0.00  0.00    +0.277 C 
ENDBRANCH  65  73
ENDBRANCH  62  63
ENDBRANCH  48  62
ENDBRANCH  46  47
ENDBRANCH  45  46
ENDBRANCH  44  45
ENDBRANCH  43  44
ENDBRANCH  41  43
ENDBRANCH  40  41
ENDBRANCH  39  40
ENDBRANCH   2  39
TORSDOF 30
ENDMDL
