MODEL 1
REMARK VINA RESULT:      -6.4      0.000      0.000
REMARK  Name = 
REMARK  5 active torsions:
REMARK  status: ('A' for Active; 'I' for Inactive)
REMARK    1  A    between atoms: C_1  and  C_2
REMARK    2  A    between atoms: C_4  and  C_5
REMARK    3  A    between atoms: C_6  and  C_7
REMARK    4  A    between atoms: C_14  and  C_15
REMARK    5  A    between atoms: C_16  and  O_17
REMARK                            x       y       z     vdW  Elec       q    Type
REMARK                         _______ _______ _______ _____ _____    ______ ____
ROOT
ATOM      1  C   UNL     1       5.426  -5.989  25.878  0.00  0.00    +0.047 C 
ATOM      2  C   UNL     1       6.053  -5.412  24.641  0.00  0.00    -0.008 A 
ATOM      3  C   UNL     1       5.832  -5.993  23.386  0.00  0.00    +0.123 A 
ATOM      4  C   UNL     1       6.402  -5.453  22.224  0.00  0.00    -0.008 A 
ATOM      5  C   UNL     1       6.169  -6.044  20.864  0.00  0.00    +0.047 C 
ATOM      6  C   UNL     1       7.210  -4.309  22.344  0.00  0.00    +0.015 A 
ATOM      7  C   UNL     1       7.461  -3.717  23.589  0.00  0.00    -0.024 A 
ATOM      8  C   UNL     1       6.866  -4.272  24.729  0.00  0.00    +0.015 A 
ENDROOT
BRANCH   3   9
ATOM      9  O   UNL     1       5.030  -7.102  23.348  0.00  0.00    -0.506 OA
ATOM     10  H   UNL     1       5.138  -7.610  24.166  0.00  0.00    +0.292 HD
ENDBRANCH   3   9
BRANCH   7  11
ATOM     11  C   UNL     1       8.255  -2.486  23.733  0.00  0.00    +0.008 C 
ATOM     12  C   UNL     1       8.391  -1.548  22.779  0.00  0.00    +0.008 C 
BRANCH  12  13
ATOM     13  C   UNL     1       9.154  -0.300  22.950  0.00  0.00    -0.025 A 
ATOM     14  C   UNL     1       9.683  -0.004  24.215  0.00  0.00    +0.008 A 
ATOM     15  C   UNL     1      10.415   1.168  24.427  0.00  0.00    +0.001 A 
ATOM     16  C   UNL     1      10.617   2.064  23.380  0.00  0.00    +0.000 A 
ATOM     17  C   UNL     1      10.076   1.794  22.125  0.00  0.00    +0.001 A 
ATOM     18  C   UNL     1       9.342   0.623  21.913  0.00  0.00    +0.008 A 
ENDBRANCH  12  13
ENDBRANCH   7  11
TORSDOF 3
ENDMDL
MODEL 2
REMARK VINA RESULT:      -6.3      0.182      2.107
REMARK  Name = 
REMARK  5 active torsions:
REMARK  status: ('A' for Active; 'I' for Inactive)
REMARK    1  A    between atoms: C_1  and  C_2
REMARK    2  A    between atoms: C_4  and  C_5
REMARK    3  A    between atoms: C_6  and  C_7
REMARK    4  A    between atoms: C_14  and  C_15
REMARK    5  A    between atoms: C_16  and  O_17
REMARK                            x       y       z     vdW  Elec       q    Type
REMARK                         _______ _______ _______ _____ _____    ______ ____
ROOT
ATOM      1  C   UNL     1       6.096  -6.040  20.947  0.00  0.00    +0.047 C 
ATOM      2  C   UNL     1       6.338  -5.416  22.292  0.00  0.00    -0.008 A 
ATOM      3  C   UNL     1       5.812  -5.993  23.455  0.00  0.00    +0.123 A 
ATOM      4  C   UNL     1       6.044  -5.426  24.717  0.00  0.00    -0.008 A 
ATOM      5  C   UNL     1       5.507  -6.029  25.982  0.00  0.00    +0.047 C 
ATOM      6  C   UNL     1       6.820  -4.255  24.793  0.00  0.00    +0.015 A 
ATOM      7  C   UNL     1       7.344  -3.650  23.643  0.00  0.00    -0.024 A 
ATOM      8  C   UNL     1       7.106  -4.247  22.400  0.00  0.00    +0.015 A 
ENDROOT
BRANCH   3   9
ATOM      9  O   UNL     1       5.071  -7.134  23.302  0.00  0.00    -0.506 OA
ATOM     10  H   UNL     1       5.333  -7.784  23.971  0.00  0.00    +0.292 HD
ENDBRANCH   3   9
BRANCH   7  11
ATOM     11  C   UNL     1       8.207  -2.458  23.702  0.00  0.00    +0.008 C 
ATOM     12  C   UNL     1       8.076  -1.379  22.910  0.00  0.00    +0.008 C 
BRANCH  12  13
ATOM     13  C   UNL     1       8.919  -0.175  23.008  0.00  0.00    -0.025 A 
ATOM     14  C   UNL     1       9.406   0.204  24.266  0.00  0.00    +0.008 A 
ATOM     15  C   UNL     1      10.211   1.338  24.409  0.00  0.00    +0.001 A 
ATOM     16  C   UNL     1      10.529   2.113  23.296  0.00  0.00    +0.000 A 
ATOM     17  C   UNL     1      10.031   1.762  22.044  0.00  0.00    +0.001 A 
ATOM     18  C   UNL     1       9.224   0.629  21.901  0.00  0.00    +0.008 A 
ENDBRANCH  12  13
ENDBRANCH   7  11
TORSDOF 3
ENDMDL
MODEL 3
REMARK VINA RESULT:      -5.7      3.405      7.567
REMARK  Name = 
REMARK  5 active torsions:
REMARK  status: ('A' for Active; 'I' for Inactive)
REMARK    1  A    between atoms: C_1  and  C_2
REMARK    2  A    between atoms: C_4  and  C_5
REMARK    3  A    between atoms: C_6  and  C_7
REMARK    4  A    between atoms: C_14  and  C_15
REMARK    5  A    between atoms: C_16  and  O_17
REMARK                            x       y       z     vdW  Elec       q    Type
REMARK                         _______ _______ _______ _____ _____    ______ ____
ROOT
ATOM      1  C   UNL     1       6.096   3.359  22.237  0.00  0.00    +0.047 C 
ATOM      2  C   UNL     1       7.349   2.559  22.453  0.00  0.00    -0.008 A 
ATOM      3  C   UNL     1       8.556   3.190  22.782  0.00  0.00    +0.123 A 
ATOM      4  C   UNL     1       9.727   2.450  22.999  0.00  0.00    -0.008 A 
ATOM      5  C   UNL     1      11.031   3.096  23.368  0.00  0.00    +0.047 C 
ATOM      6  C   UNL     1       9.668   1.050  22.876  0.00  0.00    +0.015 A 
ATOM      7  C   UNL     1       8.478   0.396  22.533  0.00  0.00    -0.024 A 
ATOM      8  C   UNL     1       7.322   1.161  22.336  0.00  0.00    +0.015 A 
ENDROOT
BRANCH   3   9
ATOM      9  O   UNL     1       8.534   4.554  22.888  0.00  0.00    -0.506 OA
ATOM     10  H   UNL     1       8.126   4.809  23.730  0.00  0.00    +0.292 HD
ENDBRANCH   3   9
BRANCH   7  11
ATOM     11  C   UNL     1       8.377  -1.071  22.455  0.00  0.00    +0.008 C 
ATOM     12  C   UNL     1       7.250  -1.772  22.671  0.00  0.00    +0.008 C 
BRANCH  12  13
ATOM     13  C   UNL     1       7.152  -3.237  22.550  0.00  0.00    -0.025 A 
ATOM     14  C   UNL     1       6.283  -3.775  21.591  0.00  0.00    +0.008 A 
ATOM     15  C   UNL     1       6.156  -5.159  21.436  0.00  0.00    +0.001 A 
ATOM     16  C   UNL     1       6.889  -6.021  22.248  0.00  0.00    +0.000 A 
ATOM     17  C   UNL     1       7.738  -5.500  23.222  0.00  0.00    +0.001 A 
ATOM     18  C   UNL     1       7.863  -4.117  23.378  0.00  0.00    +0.008 A 
ENDBRANCH  12  13
ENDBRANCH   7  11
TORSDOF 3
ENDMDL
MODEL 4
REMARK VINA RESULT:      -5.7      3.452      7.553
REMARK  Name = 
REMARK  5 active torsions:
REMARK  status: ('A' for Active; 'I' for Inactive)
REMARK    1  A    between atoms: C_1  and  C_2
REMARK    2  A    between atoms: C_4  and  C_5
REMARK    3  A    between atoms: C_6  and  C_7
REMARK    4  A    between atoms: C_14  and  C_15
REMARK    5  A    between atoms: C_16  and  O_17
REMARK                            x       y       z     vdW  Elec       q    Type
REMARK                         _______ _______ _______ _____ _____    ______ ____
ROOT
ATOM      1  C   UNL     1      10.956   3.042  23.379  0.00  0.00    +0.047 C 
ATOM      2  C   UNL     1       9.622   2.416  23.087  0.00  0.00    -0.008 A 
ATOM      3  C   UNL     1       8.486   3.209  22.883  0.00  0.00    +0.123 A 
ATOM      4  C   UNL     1       7.240   2.634  22.597  0.00  0.00    -0.008 A 
ATOM      5  C   UNL     1       6.008   3.459  22.358  0.00  0.00    +0.047 C 
ATOM      6  C   UNL     1       7.150   1.233  22.519  0.00  0.00    +0.015 A 
ATOM      7  C   UNL     1       8.268   0.416  22.734  0.00  0.00    -0.024 A 
ATOM      8  C   UNL     1       9.501   1.020  23.006  0.00  0.00    +0.015 A 
ENDROOT
BRANCH   3   9
ATOM      9  O   UNL     1       8.652   4.565  22.970  0.00  0.00    -0.506 OA
ATOM     10  H   UNL     1       7.788   5.002  22.940  0.00  0.00    +0.292 HD
ENDBRANCH   3   9
BRANCH   7  11
ATOM     11  C   UNL     1       8.212  -1.049  22.601  0.00  0.00    +0.008 C 
ATOM     12  C   UNL     1       7.097  -1.788  22.745  0.00  0.00    +0.008 C 
BRANCH  12  13
ATOM     13  C   UNL     1       7.047  -3.250  22.567  0.00  0.00    -0.025 A 
ATOM     14  C   UNL     1       6.165  -3.781  21.615  0.00  0.00    +0.008 A 
ATOM     15  C   UNL     1       6.081  -5.161  21.410  0.00  0.00    +0.001 A 
ATOM     16  C   UNL     1       6.870  -6.028  22.163  0.00  0.00    +0.000 A 
ATOM     17  C   UNL     1       7.733  -5.515  23.129  0.00  0.00    +0.001 A 
ATOM     18  C   UNL     1       7.815  -4.135  23.336  0.00  0.00    +0.008 A 
ENDBRANCH  12  13
ENDBRANCH   7  11
TORSDOF 3
ENDMDL
MODEL 5
REMARK VINA RESULT:      -5.7      3.070      3.748
REMARK  Name = 
REMARK  5 active torsions:
REMARK  status: ('A' for Active; 'I' for Inactive)
REMARK    1  A    between atoms: C_1  and  C_2
REMARK    2  A    between atoms: C_4  and  C_5
REMARK    3  A    between atoms: C_6  and  C_7
REMARK    4  A    between atoms: C_14  and  C_15
REMARK    5  A    between atoms: C_16  and  O_17
REMARK                            x       y       z     vdW  Elec       q    Type
REMARK                         _______ _______ _______ _____ _____    ______ ____
ROOT
ATOM      1  C   UNL     1       9.829  -5.270  25.549  0.00  0.00    +0.047 C 
ATOM      2  C   UNL     1       8.765  -4.282  25.933  0.00  0.00    -0.008 A 
ATOM      3  C   UNL     1       7.647  -4.684  26.676  0.00  0.00    +0.123 A 
ATOM      4  C   UNL     1       6.656  -3.767  27.051  0.00  0.00    -0.008 A 
ATOM      5  C   UNL     1       5.455  -4.164  27.860  0.00  0.00    +0.047 C 
ATOM      6  C   UNL     1       6.803  -2.423  26.662  0.00  0.00    +0.015 A 
ATOM      7  C   UNL     1       7.904  -1.998  25.906  0.00  0.00    -0.024 A 
ATOM      8  C   UNL     1       8.884  -2.935  25.558  0.00  0.00    +0.015 A 
ENDROOT
BRANCH   3   9
ATOM      9  O   UNL     1       7.575  -6.006  27.022  0.00  0.00    -0.506 OA
ATOM     10  H   UNL     1       6.662  -6.318  26.931  0.00  0.00    +0.292 HD
ENDBRANCH   3   9
BRANCH   7  11
ATOM     11  C   UNL     1       8.111  -0.588  25.537  0.00  0.00    +0.008 C 
ATOM     12  C   UNL     1       9.217  -0.108  24.941  0.00  0.00    +0.008 C 
BRANCH  12  13
ATOM     13  C   UNL     1       9.394   1.298  24.539  0.00  0.00    -0.025 A 
ATOM     14  C   UNL     1      10.548   1.652  23.825  0.00  0.00    +0.008 A 
ATOM     15  C   UNL     1      10.761   2.973  23.420  0.00  0.00    +0.001 A 
ATOM     16  C   UNL     1       9.829   3.958  23.735  0.00  0.00    +0.000 A 
ATOM     17  C   UNL     1       8.690   3.625  24.466  0.00  0.00    +0.001 A 
ATOM     18  C   UNL     1       8.478   2.305  24.872  0.00  0.00    +0.008 A 
ENDBRANCH  12  13
ENDBRANCH   7  11
TORSDOF 3
ENDMDL
MODEL 6
REMARK VINA RESULT:      -5.7      1.995      3.137
REMARK  Name = 
REMARK  5 active torsions:
REMARK  status: ('A' for Active; 'I' for Inactive)
REMARK    1  A    between atoms: C_1  and  C_2
REMARK    2  A    between atoms: C_4  and  C_5
REMARK    3  A    between atoms: C_6  and  C_7
REMARK    4  A    between atoms: C_14  and  C_15
REMARK    5  A    between atoms: C_16  and  O_17
REMARK                            x       y       z     vdW  Elec       q    Type
REMARK                         _______ _______ _______ _____ _____    ______ ____
ROOT
ATOM      1  C   UNL     1       9.628  -4.570  25.249  0.00  0.00    +0.047 C 
ATOM      2  C   UNL     1       8.983  -3.596  24.305  0.00  0.00    -0.008 A 
ATOM      3  C   UNL     1       7.853  -3.960  23.560  0.00  0.00    +0.123 A 
ATOM      4  C   UNL     1       7.236  -3.053  22.686  0.00  0.00    -0.008 A 
ATOM      5  C   UNL     1       6.016  -3.409  21.887  0.00  0.00    +0.047 C 
ATOM      6  C   UNL     1       7.778  -1.761  22.569  0.00  0.00    +0.015 A 
ATOM      7  C   UNL     1       8.916  -1.376  23.291  0.00  0.00    -0.024 A 
ATOM      8  C   UNL     1       9.501  -2.300  24.165  0.00  0.00    +0.015 A 
ENDROOT
BRANCH   3   9
ATOM      9  O   UNL     1       7.381  -5.233  23.731  0.00  0.00    -0.506 OA
ATOM     10  H   UNL     1       7.044  -5.337  24.633  0.00  0.00    +0.292 HD
ENDBRANCH   3   9
BRANCH   7  11
ATOM     11  C   UNL     1       9.467  -0.013  23.230  0.00  0.00    +0.008 C 
ATOM     12  C   UNL     1       8.975   1.042  23.905  0.00  0.00    +0.008 C 
BRANCH  12  13
ATOM     13  C   UNL     1       9.561   2.392  23.868  0.00  0.00    -0.025 A 
ATOM     14  C   UNL     1       8.763   3.482  24.244  0.00  0.00    +0.008 A 
ATOM     15  C   UNL     1       9.274   4.783  24.226  0.00  0.00    +0.001 A 
ATOM     16  C   UNL     1      10.587   5.011  23.821  0.00  0.00    +0.000 A 
ATOM     17  C   UNL     1      11.384   3.941  23.421  0.00  0.00    +0.001 A 
ATOM     18  C   UNL     1      10.872   2.640  23.437  0.00  0.00    +0.008 A 
ENDBRANCH  12  13
ENDBRANCH   7  11
TORSDOF 3
ENDMDL
MODEL 7
REMARK VINA RESULT:      -5.4      1.285      2.936
REMARK  Name = 
REMARK  5 active torsions:
REMARK  status: ('A' for Active; 'I' for Inactive)
REMARK    1  A    between atoms: C_1  and  C_2
REMARK    2  A    between atoms: C_4  and  C_5
REMARK    3  A    between atoms: C_6  and  C_7
REMARK    4  A    between atoms: C_14  and  C_15
REMARK    5  A    between atoms: C_16  and  O_17
REMARK                            x       y       z     vdW  Elec       q    Type
REMARK                         _______ _______ _______ _____ _____    ______ ____
ROOT
ATOM      1  C   UNL     1       5.512  -6.007  23.344  0.00  0.00    +0.047 C 
ATOM      2  C   UNL     1       6.065  -5.229  24.504  0.00  0.00    -0.008 A 
ATOM      3  C   UNL     1       5.915  -5.694  25.817  0.00  0.00    +0.123 A 
ATOM      4  C   UNL     1       6.439  -4.982  26.905  0.00  0.00    -0.008 A 
ATOM      5  C   UNL     1       6.308  -5.463  28.321  0.00  0.00    +0.047 C 
ATOM      6  C   UNL     1       7.123  -3.779  26.652  0.00  0.00    +0.015 A 
ATOM      7  C   UNL     1       7.273  -3.284  25.350  0.00  0.00    -0.024 A 
ATOM      8  C   UNL     1       6.749  -4.025  24.283  0.00  0.00    +0.015 A 
ENDROOT
BRANCH   3   9
ATOM      9  O   UNL     1       5.242  -6.875  25.984  0.00  0.00    -0.506 OA
ATOM     10  H   UNL     1       5.805  -7.613  25.707  0.00  0.00    +0.292 HD
ENDBRANCH   3   9
BRANCH   7  11
ATOM     11  C   UNL     1       8.033  -2.059  25.054  0.00  0.00    +0.008 C 
ATOM     12  C   UNL     1       8.309  -1.609  23.817  0.00  0.00    +0.008 C 
BRANCH  12  13
ATOM     13  C   UNL     1       9.035  -0.360  23.534  0.00  0.00    -0.025 A 
ATOM     14  C   UNL     1       9.036   0.136  22.222  0.00  0.00    +0.008 A 
ATOM     15  C   UNL     1       9.710   1.318  21.905  0.00  0.00    +0.001 A 
ATOM     16  C   UNL     1      10.401   2.014  22.893  0.00  0.00    +0.000 A 
ATOM     17  C   UNL     1      10.430   1.521  24.195  0.00  0.00    +0.001 A 
ATOM     18  C   UNL     1       9.757   0.337  24.513  0.00  0.00    +0.008 A 
ENDBRANCH  12  13
ENDBRANCH   7  11
TORSDOF 3
ENDMDL
MODEL 8
REMARK VINA RESULT:      -5.4      1.803      3.040
REMARK  Name = 
REMARK  5 active torsions:
REMARK  status: ('A' for Active; 'I' for Inactive)
REMARK    1  A    between atoms: C_1  and  C_2
REMARK    2  A    between atoms: C_4  and  C_5
REMARK    3  A    between atoms: C_6  and  C_7
REMARK    4  A    between atoms: C_14  and  C_15
REMARK    5  A    between atoms: C_16  and  O_17
REMARK                            x       y       z     vdW  Elec       q    Type
REMARK                         _______ _______ _______ _____ _____    ______ ____
ROOT
ATOM      1  C   UNL     1       4.258  -6.854  24.153  0.00  0.00    +0.047 C 
ATOM      2  C   UNL     1       5.130  -5.980  25.009  0.00  0.00    -0.008 A 
ATOM      3  C   UNL     1       5.390  -6.314  26.344  0.00  0.00    +0.123 A 
ATOM      4  C   UNL     1       6.214  -5.512  27.146  0.00  0.00    -0.008 A 
ATOM      5  C   UNL     1       6.524  -5.852  28.575  0.00  0.00    +0.047 C 
ATOM      6  C   UNL     1       6.778  -4.354  26.582  0.00  0.00    +0.015 A 
ATOM      7  C   UNL     1       6.521  -3.989  25.253  0.00  0.00    -0.024 A 
ATOM      8  C   UNL     1       5.705  -4.818  24.474  0.00  0.00    +0.015 A 
ENDROOT
BRANCH   3   9
ATOM      9  O   UNL     1       4.810  -7.458  26.822  0.00  0.00    -0.506 OA
ATOM     10  H   UNL     1       4.956  -8.183  26.196  0.00  0.00    +0.292 HD
ENDBRANCH   3   9
BRANCH   7  11
ATOM     11  C   UNL     1       7.146  -2.815  24.622  0.00  0.00    +0.008 C 
ATOM     12  C   UNL     1       8.385  -2.795  24.101  0.00  0.00    +0.008 C 
BRANCH  12  13
ATOM     13  C   UNL     1       8.983  -1.626  23.435  0.00  0.00    -0.025 A 
ATOM     14  C   UNL     1       9.707  -0.708  24.209  0.00  0.00    +0.008 A 
ATOM     15  C   UNL     1      10.294   0.417  23.621  0.00  0.00    +0.001 A 
ATOM     16  C   UNL     1      10.154   0.643  22.254  0.00  0.00    +0.000 A 
ATOM     17  C   UNL     1       9.416  -0.247  21.478  0.00  0.00    +0.001 A 
ATOM     18  C   UNL     1       8.827  -1.371  22.065  0.00  0.00    +0.008 A 
ENDBRANCH  12  13
ENDBRANCH   7  11
TORSDOF 3
ENDMDL
MODEL 9
REMARK VINA RESULT:      -5.4      3.700      7.594
REMARK  Name = 
REMARK  5 active torsions:
REMARK  status: ('A' for Active; 'I' for Inactive)
REMARK    1  A    between atoms: C_1  and  C_2
REMARK    2  A    between atoms: C_4  and  C_5
REMARK    3  A    between atoms: C_6  and  C_7
REMARK    4  A    between atoms: C_14  and  C_15
REMARK    5  A    between atoms: C_16  and  O_17
REMARK                            x       y       z     vdW  Elec       q    Type
REMARK                         _______ _______ _______ _____ _____    ______ ____
ROOT
ATOM      1  C   UNL     1       6.520   3.304  22.734  0.00  0.00    +0.047 C 
ATOM      2  C   UNL     1       7.871   2.761  23.104  0.00  0.00    -0.008 A 
ATOM      3  C   UNL     1       9.002   3.589  23.103  0.00  0.00    +0.123 A 
ATOM      4  C   UNL     1      10.264   3.095  23.461  0.00  0.00    -0.008 A 
ATOM      5  C   UNL     1      11.491   3.960  23.484  0.00  0.00    +0.047 C 
ATOM      6  C   UNL     1      10.377   1.740  23.822  0.00  0.00    +0.015 A 
ATOM      7  C   UNL     1       9.264   0.887  23.816  0.00  0.00    -0.024 A 
ATOM      8  C   UNL     1       8.015   1.414  23.467  0.00  0.00    +0.015 A 
ENDROOT
BRANCH   3   9
ATOM      9  O   UNL     1       8.814   4.896  22.745  0.00  0.00    -0.506 OA
ATOM     10  H   UNL     1       9.645   5.266  22.411  0.00  0.00    +0.292 HD
ENDBRANCH   3   9
BRANCH   7  11
ATOM     11  C   UNL     1       9.345  -0.518  24.246  0.00  0.00    +0.008 C 
ATOM     12  C   UNL     1       8.282  -1.313  24.465  0.00  0.00    +0.008 C 
BRANCH  12  13
ATOM     13  C   UNL     1       8.377  -2.730  24.854  0.00  0.00    -0.025 A 
ATOM     14  C   UNL     1       8.525  -3.046  26.212  0.00  0.00    +0.008 A 
ATOM     15  C   UNL     1       8.618  -4.377  26.631  0.00  0.00    +0.001 A 
ATOM     16  C   UNL     1       8.576  -5.407  25.695  0.00  0.00    +0.000 A 
ATOM     17  C   UNL     1       8.455  -5.107  24.340  0.00  0.00    +0.001 A 
ATOM     18  C   UNL     1       8.364  -3.776  23.921  0.00  0.00    +0.008 A 
ENDBRANCH  12  13
ENDBRANCH   7  11
TORSDOF 3
ENDMDL
