MODEL 1
REMARK VINA RESULT:      -7.1      0.000      0.000
REMARK  Name = 
REMARK  17 active torsions:
REMARK  status: ('A' for Active; 'I' for Inactive)
REMARK    1  A    between atoms: O_1  and  C_2
REMARK    2  A    between atoms: C_2  and  C_4
REMARK    3  A    between atoms: C_2  and  C_32
REMARK    4  A    between atoms: C_4  and  O_6
REMARK    5  A    between atoms: C_4  and  C_7
REMARK    6  A    between atoms: C_7  and  C_9
REMARK    7  A    between atoms: C_7  and  C_17
REMARK    8  A    between atoms: C_9  and  C_10
REMARK    9  A    between atoms: C_10  and  C_11
REMARK   10  A    between atoms: N_19  and  C_20
REMARK   11  A    between atoms: C_22  and  O_24
REMARK   12  A    between atoms: C_32  and  C_34
REMARK   13  A    between atoms: C_32  and  C_42
REMARK   14  A    between atoms: C_34  and  C_35
REMARK   15  A    between atoms: C_35  and  C_36
REMARK   16  A    between atoms: N_44  and  C_45
REMARK   17  A    between atoms: C_47  and  O_49
REMARK                            x       y       z     vdW  Elec       q    Type
REMARK                         _______ _______ _______ _____ _____    ______ ____
ROOT
ATOM      1  C   UNL     1       8.347  -0.226  26.619  0.00  0.00    +0.155 C 
ENDROOT
BRANCH   1   2
ATOM      2  O   UNL     1       9.157  -0.400  27.801  0.00  0.00    -0.388 OA
ATOM      3  H   UNL     1      10.058  -0.104  27.571  0.00  0.00    +0.210 HD
ENDBRANCH   1   2
BRANCH   1   4
ATOM      4  C   UNL     1       7.225   0.773  26.998  0.00  0.00    +0.155 C 
BRANCH   4   5
ATOM      5  O   UNL     1       7.648   1.466  28.190  0.00  0.00    -0.388 OA
ATOM      6  H   UNL     1       8.305   0.888  28.621  0.00  0.00    +0.210 HD
ENDBRANCH   4   5
BRANCH   4   7
ATOM      7  C   UNL     1       5.842   0.126  27.182  0.00  0.00    +0.106 C 
BRANCH   7   8
ATOM      8  C   UNL     1       4.749   0.865  26.418  0.00  0.00    +0.219 C 
ATOM      9  N   UNL     1       5.193   1.895  25.627  0.00  0.00    -0.306 N 
ATOM     10  H   UNL     1       6.199   1.967  25.489  0.00  0.00    +0.149 HD
ATOM     11  O   UNL     1       3.569   0.544  26.510  0.00  0.00    -0.275 OA
BRANCH   9  12
ATOM     12  C   UNL     1       4.325   2.609  24.714  0.00  0.00    +0.132 C 
ATOM     13  C   UNL     1       5.148   3.289  23.659  0.00  0.00    -0.022 A 
ATOM     14  C   UNL     1       5.070   4.676  23.749  0.00  0.00    -0.040 A 
ATOM     15  C   UNL     1       5.848   5.485  22.934  0.00  0.00    +0.004 A 
ATOM     16  C   UNL     1       6.715   4.879  22.021  0.00  0.00    +0.000 A 
ATOM     17  C   UNL     1       6.774   3.483  21.912  0.00  0.00    +0.000 A 
ATOM     18  C   UNL     1       4.136   5.119  24.829  0.00  0.00    +0.069 C 
ATOM     19  C   UNL     1       5.977   2.679  22.725  0.00  0.00    +0.006 A 
ATOM     20  C   UNL     1       3.598   3.797  25.415  0.00  0.00    +0.143 C 
BRANCH  20  21
ATOM     21  O   UNL     1       2.179   3.718  25.234  0.00  0.00    -0.389 OA
ATOM     22  H   UNL     1       1.917   2.790  25.369  0.00  0.00    +0.210 HD
ENDBRANCH  20  21
ENDBRANCH   9  12
ENDBRANCH   7   8
BRANCH   7  23
ATOM     23  C   UNL     1       5.808  -1.387  26.935  0.00  0.00    +0.020 C 
BRANCH  23  24
ATOM     24  C   UNL     1       5.349  -1.846  25.554  0.00  0.00    +0.036 C 
BRANCH  24  25
ATOM     25  C   UNL     1       4.686  -3.196  25.633  0.00  0.00    -0.047 A 
ATOM     26  C   UNL     1       3.593  -3.496  24.814  0.00  0.00    +0.003 A 
ATOM     27  C   UNL     1       3.000  -4.756  24.872  0.00  0.00    +0.000 A 
ATOM     28  C   UNL     1       3.497  -5.723  25.744  0.00  0.00    +0.000 A 
ATOM     29  C   UNL     1       4.590  -5.433  26.558  0.00  0.00    +0.000 A 
ATOM     30  C   UNL     1       5.183  -4.176  26.504  0.00  0.00    +0.003 A 
ENDBRANCH  24  25
ENDBRANCH  23  24
ENDBRANCH   7  23
ENDBRANCH   4   7
ENDBRANCH   1   4
BRANCH   1  31
ATOM     31  C   UNL     1       9.199   0.214  25.406  0.00  0.00    +0.106 C 
BRANCH  31  32
ATOM     32  C   UNL     1       9.597  -0.966  24.523  0.00  0.00    +0.219 C 
ATOM     33  N   UNL     1       9.016  -2.149  24.885  0.00  0.00    -0.306 N 
ATOM     34  H   UNL     1       8.472  -2.162  25.749  0.00  0.00    +0.149 HD
ATOM     35  O   UNL     1      10.336  -0.843  23.554  0.00  0.00    -0.275 OA
BRANCH  33  36
ATOM     36  C   UNL     1       9.239  -3.407  24.216  0.00  0.00    +0.132 C 
ATOM     37  C   UNL     1       8.018  -3.760  23.421  0.00  0.00    -0.022 A 
ATOM     38  C   UNL     1       7.472  -4.980  23.810  0.00  0.00    -0.040 A 
ATOM     39  C   UNL     1       6.315  -5.462  23.216  0.00  0.00    +0.004 A 
ATOM     40  C   UNL     1       5.697  -4.692  22.229  0.00  0.00    +0.000 A 
ATOM     41  C   UNL     1       6.238  -3.459  21.843  0.00  0.00    +0.000 A 
ATOM     42  C   UNL     1       8.253  -5.619  24.911  0.00  0.00    +0.069 C 
ATOM     43  C   UNL     1       7.409  -2.990  22.436  0.00  0.00    +0.006 A 
ATOM     44  C   UNL     1       9.373  -4.601  25.214  0.00  0.00    +0.143 C 
BRANCH  44  45
ATOM     45  O   UNL     1      10.646  -5.249  25.119  0.00  0.00    -0.389 OA
ATOM     46  H   UNL     1      11.331  -4.616  25.395  0.00  0.00    +0.210 HD
ENDBRANCH  44  45
ENDBRANCH  33  36
ENDBRANCH  31  32
BRANCH  31  47
ATOM     47  C   UNL     1       8.583   1.360  24.585  0.00  0.00    +0.020 C 
BRANCH  47  48
ATOM     48  C   UNL     1       9.566   2.408  24.073  0.00  0.00    +0.036 C 
BRANCH  48  49
ATOM     49  C   UNL     1       9.217   3.794  24.535  0.00  0.00    -0.047 A 
ATOM     50  C   UNL     1       8.273   3.982  25.551  0.00  0.00    +0.003 A 
ATOM     51  C   UNL     1       7.915   5.268  25.948  0.00  0.00    +0.000 A 
ATOM     52  C   UNL     1       8.505   6.375  25.337  0.00  0.00    +0.000 A 
ATOM     53  C   UNL     1       9.462   6.196  24.339  0.00  0.00    +0.000 A 
ATOM     54  C   UNL     1       9.821   4.910  23.942  0.00  0.00    +0.003 A 
ENDBRANCH  48  49
ENDBRANCH  47  48
ENDBRANCH  31  47
ENDBRANCH   1  31
TORSDOF 17
ENDMDL
MODEL 2
REMARK VINA RESULT:      -6.9      2.386      7.177
REMARK  Name = 
REMARK  17 active torsions:
REMARK  status: ('A' for Active; 'I' for Inactive)
REMARK    1  A    between atoms: O_1  and  C_2
REMARK    2  A    between atoms: C_2  and  C_4
REMARK    3  A    between atoms: C_2  and  C_32
REMARK    4  A    between atoms: C_4  and  O_6
REMARK    5  A    between atoms: C_4  and  C_7
REMARK    6  A    between atoms: C_7  and  C_9
REMARK    7  A    between atoms: C_7  and  C_17
REMARK    8  A    between atoms: C_9  and  C_10
REMARK    9  A    between atoms: C_10  and  C_11
REMARK   10  A    between atoms: N_19  and  C_20
REMARK   11  A    between atoms: C_22  and  O_24
REMARK   12  A    between atoms: C_32  and  C_34
REMARK   13  A    between atoms: C_32  and  C_42
REMARK   14  A    between atoms: C_34  and  C_35
REMARK   15  A    between atoms: C_35  and  C_36
REMARK   16  A    between atoms: N_44  and  C_45
REMARK   17  A    between atoms: C_47  and  O_49
REMARK                            x       y       z     vdW  Elec       q    Type
REMARK                         _______ _______ _______ _____ _____    ______ ____
ROOT
ATOM      1  C   UNL     1       6.142  -3.503  22.343  0.00  0.00    +0.155 C 
ENDROOT
BRANCH   1   2
ATOM      2  O   UNL     1       5.703  -3.698  20.981  0.00  0.00    -0.388 OA
ATOM      3  H   UNL     1       4.830  -3.270  20.902  0.00  0.00    +0.210 HD
ENDBRANCH   1   2
BRANCH   1   4
ATOM      4  C   UNL     1       6.959  -4.761  22.727  0.00  0.00    +0.155 C 
BRANCH   4   5
ATOM      5  O   UNL     1       7.173  -5.522  21.521  0.00  0.00    -0.388 OA
ATOM      6  H   UNL     1       8.067  -5.907  21.597  0.00  0.00    +0.210 HD
ENDBRANCH   4   5
BRANCH   4   7
ATOM      7  C   UNL     1       6.312  -5.619  23.828  0.00  0.00    +0.106 C 
BRANCH   7   8
ATOM      8  C   UNL     1       6.548  -5.048  25.222  0.00  0.00    +0.219 C 
ATOM      9  N   UNL     1       5.486  -4.356  25.749  0.00  0.00    -0.306 N 
ATOM     10  H   UNL     1       4.601  -4.425  25.252  0.00  0.00    +0.149 HD
ATOM     11  O   UNL     1       7.608  -5.213  25.814  0.00  0.00    -0.275 OA
BRANCH   9  12
ATOM     12  C   UNL     1       5.468  -3.876  27.115  0.00  0.00    +0.132 C 
ATOM     13  C   UNL     1       4.798  -4.887  27.999  0.00  0.00    -0.022 A 
ATOM     14  C   UNL     1       3.603  -4.409  28.529  0.00  0.00    -0.040 A 
ATOM     15  C   UNL     1       2.779  -5.233  29.281  0.00  0.00    +0.004 A 
ATOM     16  C   UNL     1       3.171  -6.557  29.493  0.00  0.00    +0.000 A 
ATOM     17  C   UNL     1       4.386  -7.032  28.982  0.00  0.00    +0.000 A 
ATOM     18  C   UNL     1       3.338  -2.992  28.132  0.00  0.00    +0.069 C 
ATOM     19  C   UNL     1       5.215  -6.191  28.240  0.00  0.00    +0.006 A 
ATOM     20  C   UNL     1       4.565  -2.615  27.274  0.00  0.00    +0.143 C 
BRANCH  20  21
ATOM     21  O   UNL     1       5.282  -1.537  27.887  0.00  0.00    -0.389 OA
ATOM     22  H   UNL     1       6.208  -1.595  27.592  0.00  0.00    +0.210 HD
ENDBRANCH  20  21
ENDBRANCH   9  12
ENDBRANCH   7   8
BRANCH   7  23
ATOM     23  C   UNL     1       4.841  -5.972  23.580  0.00  0.00    +0.020 C 
BRANCH  23  24
ATOM     24  C   UNL     1       4.247  -7.081  24.444  0.00  0.00    +0.036 C 
BRANCH  24  25
ATOM     25  C   UNL     1       2.967  -6.625  25.092  0.00  0.00    -0.047 A 
ATOM     26  C   UNL     1       2.245  -7.491  25.920  0.00  0.00    +0.003 A 
ATOM     27  C   UNL     1       1.075  -7.056  26.538  0.00  0.00    +0.000 A 
ATOM     28  C   UNL     1       0.621  -5.753  26.338  0.00  0.00    +0.000 A 
ATOM     29  C   UNL     1       1.339  -4.882  25.521  0.00  0.00    +0.000 A 
ATOM     30  C   UNL     1       2.506  -5.314  24.900  0.00  0.00    +0.003 A 
ENDBRANCH  24  25
ENDBRANCH  23  24
ENDBRANCH   7  23
ENDBRANCH   4   7
ENDBRANCH   1   4
BRANCH   1  31
ATOM     31  C   UNL     1       6.917  -2.174  22.504  0.00  0.00    +0.106 C 
BRANCH  31  32
ATOM     32  C   UNL     1       6.265  -1.247  23.526  0.00  0.00    +0.219 C 
ATOM     33  N   UNL     1       6.546   0.077  23.332  0.00  0.00    -0.306 N 
ATOM     34  H   UNL     1       7.230   0.313  22.613  0.00  0.00    +0.149 HD
ATOM     35  O   UNL     1       5.522  -1.659  24.409  0.00  0.00    -0.275 OA
BRANCH  33  36
ATOM     36  C   UNL     1       6.057   1.146  24.167  0.00  0.00    +0.132 C 
ATOM     37  C   UNL     1       6.637   2.444  23.690  0.00  0.00    -0.022 A 
ATOM     38  C   UNL     1       7.377   3.085  24.679  0.00  0.00    -0.040 A 
ATOM     39  C   UNL     1       8.025   4.283  24.418  0.00  0.00    +0.004 A 
ATOM     40  C   UNL     1       7.935   4.828  23.135  0.00  0.00    +0.000 A 
ATOM     41  C   UNL     1       7.202   4.178  22.134  0.00  0.00    +0.000 A 
ATOM     42  C   UNL     1       7.387   2.316  25.959  0.00  0.00    +0.069 C 
ATOM     43  C   UNL     1       6.542   2.982  22.411  0.00  0.00    +0.006 A 
ATOM     44  C   UNL     1       6.576   1.043  25.637  0.00  0.00    +0.143 C 
BRANCH  44  45
ATOM     45  O   UNL     1       5.509   0.905  26.581  0.00  0.00    -0.389 OA
ATOM     46  H   UNL     1       4.728   1.365  26.228  0.00  0.00    +0.210 HD
ENDBRANCH  44  45
ENDBRANCH  33  36
ENDBRANCH  31  32
BRANCH  31  47
ATOM     47  C   UNL     1       8.422  -2.351  22.771  0.00  0.00    +0.020 C 
BRANCH  47  48
ATOM     48  C   UNL     1       9.351  -1.536  21.877  0.00  0.00    +0.036 C 
BRANCH  48  49
ATOM     49  C   UNL     1       9.798  -0.259  22.529  0.00  0.00    -0.047 A 
ATOM     50  C   UNL     1       9.838   0.931  21.793  0.00  0.00    +0.003 A 
ATOM     51  C   UNL     1      10.297   2.106  22.384  0.00  0.00    +0.000 A 
ATOM     52  C   UNL     1      10.709   2.101  23.717  0.00  0.00    +0.000 A 
ATOM     53  C   UNL     1      10.651   0.924  24.462  0.00  0.00    +0.000 A 
ATOM     54  C   UNL     1      10.192  -0.252  23.872  0.00  0.00    +0.003 A 
ENDBRANCH  48  49
ENDBRANCH  47  48
ENDBRANCH  31  47
ENDBRANCH   1  31
TORSDOF 17
ENDMDL
MODEL 3
REMARK VINA RESULT:      -6.9      0.606      8.814
REMARK  Name = 
REMARK  17 active torsions:
REMARK  status: ('A' for Active; 'I' for Inactive)
REMARK    1  A    between atoms: O_1  and  C_2
REMARK    2  A    between atoms: C_2  and  C_4
REMARK    3  A    between atoms: C_2  and  C_32
REMARK    4  A    between atoms: C_4  and  O_6
REMARK    5  A    between atoms: C_4  and  C_7
REMARK    6  A    between atoms: C_7  and  C_9
REMARK    7  A    between atoms: C_7  and  C_17
REMARK    8  A    between atoms: C_9  and  C_10
REMARK    9  A    between atoms: C_10  and  C_11
REMARK   10  A    between atoms: N_19  and  C_20
REMARK   11  A    between atoms: C_22  and  O_24
REMARK   12  A    between atoms: C_32  and  C_34
REMARK   13  A    between atoms: C_32  and  C_42
REMARK   14  A    between atoms: C_34  and  C_35
REMARK   15  A    between atoms: C_35  and  C_36
REMARK   16  A    between atoms: N_44  and  C_45
REMARK   17  A    between atoms: C_47  and  O_49
REMARK                            x       y       z     vdW  Elec       q    Type
REMARK                         _______ _______ _______ _____ _____    ______ ____
ROOT
ATOM      1  C   UNL     1       7.095   0.804  26.716  0.00  0.00    +0.155 C 
ENDROOT
BRANCH   1   2
ATOM      2  O   UNL     1       7.336   1.489  27.964  0.00  0.00    -0.388 OA
ATOM      3  H   UNL     1       7.394   0.804  28.656  0.00  0.00    +0.210 HD
ENDBRANCH   1   2
BRANCH   1   4
ATOM      4  C   UNL     1       8.241  -0.226  26.550  0.00  0.00    +0.155 C 
BRANCH   4   5
ATOM      5  O   UNL     1       9.002  -0.226  27.776  0.00  0.00    -0.388 OA
ATOM      6  H   UNL     1       8.357  -0.096  28.496  0.00  0.00    +0.210 HD
ENDBRANCH   4   5
BRANCH   4   7
ATOM      7  C   UNL     1       9.140   0.026  25.328  0.00  0.00    +0.106 C 
BRANCH   7   8
ATOM      8  C   UNL     1       9.466  -1.258  24.574  0.00  0.00    +0.219 C 
ATOM      9  N   UNL     1       8.934  -2.399  25.120  0.00  0.00    -0.306 N 
ATOM     10  H   UNL     1       8.248  -2.276  25.861  0.00  0.00    +0.149 HD
ATOM     11  O   UNL     1      10.147  -1.250  23.554  0.00  0.00    -0.275 OA
BRANCH   9  12
ATOM     12  C   UNL     1       9.007  -3.687  24.461  0.00  0.00    +0.132 C 
ATOM     13  C   UNL     1       7.731  -3.949  23.716  0.00  0.00    -0.022 A 
ATOM     14  C   UNL     1       7.022  -5.021  24.252  0.00  0.00    -0.040 A 
ATOM     15  C   UNL     1       5.762  -5.349  23.774  0.00  0.00    +0.004 A 
ATOM     16  C   UNL     1       5.216  -4.580  22.743  0.00  0.00    +0.000 A 
ATOM     17  C   UNL     1       5.939  -3.518  22.185  0.00  0.00    +0.000 A 
ATOM     18  C   UNL     1       7.752  -5.668  25.385  0.00  0.00    +0.069 C 
ATOM     19  C   UNL     1       7.212  -3.204  22.663  0.00  0.00    +0.006 A 
ATOM     20  C   UNL     1       9.063  -4.860  25.487  0.00  0.00    +0.143 C 
BRANCH  20  21
ATOM     21  O   UNL     1      10.188  -5.712  25.242  0.00  0.00    -0.389 OA
ATOM     22  H   UNL     1      10.990  -5.161  25.290  0.00  0.00    +0.210 HD
ENDBRANCH  20  21
ENDBRANCH   9  12
ENDBRANCH   7   8
BRANCH   7  23
ATOM     23  C   UNL     1       8.655   1.145  24.398  0.00  0.00    +0.020 C 
BRANCH  23  24
ATOM     24  C   UNL     1       9.718   2.098  23.860  0.00  0.00    +0.036 C 
BRANCH  24  25
ATOM     25  C   UNL     1       9.465   3.504  24.337  0.00  0.00    -0.047 A 
ATOM     26  C   UNL     1       8.505   3.754  25.322  0.00  0.00    +0.003 A 
ATOM     27  C   UNL     1       8.293   5.054  25.779  0.00  0.00    +0.000 A 
ATOM     28  C   UNL     1       9.042   6.108  25.260  0.00  0.00    +0.000 A 
ATOM     29  C   UNL     1      10.007   5.864  24.284  0.00  0.00    +0.000 A 
ATOM     30  C   UNL     1      10.218   4.569  23.824  0.00  0.00    +0.003 A 
ENDBRANCH  24  25
ENDBRANCH  23  24
ENDBRANCH   7  23
ENDBRANCH   4   7
ENDBRANCH   1   4
BRANCH   1  31
ATOM     31  C   UNL     1       5.679   0.182  26.674  0.00  0.00    +0.106 C 
BRANCH  31  32
ATOM     32  C   UNL     1       4.660   1.116  26.027  0.00  0.00    +0.219 C 
ATOM     33  N   UNL     1       5.191   1.944  25.077  0.00  0.00    -0.306 N 
ATOM     34  H   UNL     1       6.205   1.941  24.964  0.00  0.00    +0.149 HD
ATOM     35  O   UNL     1       3.468   1.087  26.309  0.00  0.00    -0.275 OA
BRANCH  33  36
ATOM     36  C   UNL     1       4.436   2.920  24.332  0.00  0.00    +0.132 C 
ATOM     37  C   UNL     1       5.371   3.686  23.443  0.00  0.00    -0.022 A 
ATOM     38  C   UNL     1       5.351   5.052  23.710  0.00  0.00    -0.040 A 
ATOM     39  C   UNL     1       6.177   5.923  23.017  0.00  0.00    +0.004 A 
ATOM     40  C   UNL     1       7.044   5.403  22.055  0.00  0.00    +0.000 A 
ATOM     41  C   UNL     1       7.076   4.028  21.792  0.00  0.00    +0.000 A 
ATOM     42  C   UNL     1       4.394   5.395  24.804  0.00  0.00    +0.069 C 
ATOM     43  C   UNL     1       6.231   3.161  22.484  0.00  0.00    +0.006 A 
ATOM     44  C   UNL     1       3.825   4.030  25.246  0.00  0.00    +0.143 C 
BRANCH  44  45
ATOM     45  O   UNL     1       2.395   4.063  25.177  0.00  0.00    -0.389 OA
ATOM     46  H   UNL     1       2.044   3.911  26.070  0.00  0.00    +0.210 HD
ENDBRANCH  44  45
ENDBRANCH  33  36
ENDBRANCH  31  32
BRANCH  31  47
ATOM     47  C   UNL     1       5.628  -1.230  26.066  0.00  0.00    +0.020 C 
BRANCH  47  48
ATOM     48  C   UNL     1       5.437  -2.370  27.061  0.00  0.00    +0.036 C 
BRANCH  48  49
ATOM     49  C   UNL     1       4.434  -3.383  26.584  0.00  0.00    -0.047 A 
ATOM     50  C   UNL     1       3.475  -3.030  25.629  0.00  0.00    +0.003 A 
ATOM     51  C   UNL     1       2.517  -3.955  25.221  0.00  0.00    +0.000 A 
ATOM     52  C   UNL     1       2.518  -5.242  25.760  0.00  0.00    +0.000 A 
ATOM     53  C   UNL     1       3.484  -5.607  26.696  0.00  0.00    +0.000 A 
ATOM     54  C   UNL     1       4.443  -4.683  27.104  0.00  0.00    +0.003 A 
ENDBRANCH  48  49
ENDBRANCH  47  48
ENDBRANCH  31  47
ENDBRANCH   1  31
TORSDOF 17
ENDMDL
MODEL 4
REMARK VINA RESULT:      -6.7      1.725      9.140
REMARK  Name = 
REMARK  17 active torsions:
REMARK  status: ('A' for Active; 'I' for Inactive)
REMARK    1  A    between atoms: O_1  and  C_2
REMARK    2  A    between atoms: C_2  and  C_4
REMARK    3  A    between atoms: C_2  and  C_32
REMARK    4  A    between atoms: C_4  and  O_6
REMARK    5  A    between atoms: C_4  and  C_7
REMARK    6  A    between atoms: C_7  and  C_9
REMARK    7  A    between atoms: C_7  and  C_17
REMARK    8  A    between atoms: C_9  and  C_10
REMARK    9  A    between atoms: C_10  and  C_11
REMARK   10  A    between atoms: N_19  and  C_20
REMARK   11  A    between atoms: C_22  and  O_24
REMARK   12  A    between atoms: C_32  and  C_34
REMARK   13  A    between atoms: C_32  and  C_42
REMARK   14  A    between atoms: C_34  and  C_35
REMARK   15  A    between atoms: C_35  and  C_36
REMARK   16  A    between atoms: N_44  and  C_45
REMARK   17  A    between atoms: C_47  and  O_49
REMARK                            x       y       z     vdW  Elec       q    Type
REMARK                         _______ _______ _______ _____ _____    ______ ____
ROOT
ATOM      1  C   UNL     1       6.818   0.517  23.028  0.00  0.00    +0.155 C 
ENDROOT
BRANCH   1   2
ATOM      2  O   UNL     1       6.069   1.654  22.550  0.00  0.00    -0.388 OA
ATOM      3  H   UNL     1       5.863   2.204  23.329  0.00  0.00    +0.210 HD
ENDBRANCH   1   2
BRANCH   1   4
ATOM      4  C   UNL     1       8.313   0.841  22.787  0.00  0.00    +0.155 C 
BRANCH   4   5
ATOM      5  O   UNL     1       8.640   0.408  21.451  0.00  0.00    -0.388 OA
ATOM      6  H   UNL     1       8.013  -0.308  21.237  0.00  0.00    +0.210 HD
ENDBRANCH   4   5
BRANCH   4   7
ATOM      7  C   UNL     1       9.266   0.227  23.828  0.00  0.00    +0.106 C 
BRANCH   7   8
ATOM      8  C   UNL     1       9.651  -1.208  23.486  0.00  0.00    +0.219 C 
ATOM      9  N   UNL     1       9.073  -2.165  24.281  0.00  0.00    -0.306 N 
ATOM     10  H   UNL     1       8.328  -1.858  24.903  0.00  0.00    +0.149 HD
ATOM     11  O   UNL     1      10.413  -1.467  22.561  0.00  0.00    -0.275 OA
BRANCH   9  12
ATOM     12  C   UNL     1       9.198  -3.583  24.013  0.00  0.00    +0.132 C 
ATOM     13  C   UNL     1       7.899  -4.114  23.478  0.00  0.00    -0.022 A 
ATOM     14  C   UNL     1       7.305  -5.021  24.352  0.00  0.00    -0.040 A 
ATOM     15  C   UNL     1       6.045  -5.537  24.090  0.00  0.00    +0.004 A 
ATOM     16  C   UNL     1       5.381  -5.127  22.931  0.00  0.00    +0.000 A 
ATOM     17  C   UNL     1       5.989  -4.236  22.038  0.00  0.00    +0.000 A 
ATOM     18  C   UNL     1       8.150  -5.275  25.559  0.00  0.00    +0.069 C 
ATOM     19  C   UNL     1       7.263  -3.733  22.302  0.00  0.00    +0.006 A 
ATOM     20  C   UNL     1       9.403  -4.405  25.321  0.00  0.00    +0.143 C 
BRANCH  20  21
ATOM     21  O   UNL     1      10.569  -5.233  25.238  0.00  0.00    -0.389 OA
ATOM     22  H   UNL     1      10.323  -6.119  25.556  0.00  0.00    +0.210 HD
ENDBRANCH  20  21
ENDBRANCH   9  12
ENDBRANCH   7   8
BRANCH   7  23
ATOM     23  C   UNL     1      10.483   1.095  24.169  0.00  0.00    +0.020 C 
BRANCH  23  24
ATOM     24  C   UNL     1      11.025   1.984  23.053  0.00  0.00    +0.036 C 
BRANCH  24  25
ATOM     25  C   UNL     1      10.938   3.437  23.438  0.00  0.00    -0.047 A 
ATOM     26  C   UNL     1      12.068   4.258  23.360  0.00  0.00    +0.003 A 
ATOM     27  C   UNL     1      11.976   5.608  23.693  0.00  0.00    +0.000 A 
ATOM     28  C   UNL     1      10.757   6.147  24.099  0.00  0.00    +0.000 A 
ATOM     29  C   UNL     1       9.626   5.336  24.172  0.00  0.00    +0.000 A 
ATOM     30  C   UNL     1       9.714   3.988  23.844  0.00  0.00    +0.003 A 
ENDBRANCH  24  25
ENDBRANCH  23  24
ENDBRANCH   7  23
ENDBRANCH   4   7
ENDBRANCH   1   4
BRANCH   1  31
ATOM     31  C   UNL     1       6.474   0.188  24.499  0.00  0.00    +0.106 C 
BRANCH  31  32
ATOM     32  C   UNL     1       5.648   1.291  25.158  0.00  0.00    +0.219 C 
ATOM     33  N   UNL     1       6.389   2.356  25.588  0.00  0.00    -0.306 N 
ATOM     34  H   UNL     1       7.405   2.277  25.531  0.00  0.00    +0.149 HD
ATOM     35  O   UNL     1       4.428   1.235  25.247  0.00  0.00    -0.275 OA
BRANCH  33  36
ATOM     36  C   UNL     1       5.844   3.516  26.247  0.00  0.00    +0.132 C 
ATOM     37  C   UNL     1       5.805   4.658  25.275  0.00  0.00    -0.022 A 
ATOM     38  C   UNL     1       6.549   5.749  25.715  0.00  0.00    -0.040 A 
ATOM     39  C   UNL     1       6.665   6.890  24.935  0.00  0.00    +0.004 A 
ATOM     40  C   UNL     1       6.034   6.918  23.690  0.00  0.00    +0.000 A 
ATOM     41  C   UNL     1       5.295   5.817  23.239  0.00  0.00    +0.000 A 
ATOM     42  C   UNL     1       7.181   5.498  27.045  0.00  0.00    +0.069 C 
ATOM     43  C   UNL     1       5.172   4.680  24.037  0.00  0.00    +0.006 A 
ATOM     44  C   UNL     1       6.773   4.049  27.385  0.00  0.00    +0.143 C 
BRANCH  44  45
ATOM     45  O   UNL     1       6.132   4.022  28.665  0.00  0.00    -0.389 OA
ATOM     46  H   UNL     1       6.369   4.837  29.141  0.00  0.00    +0.210 HD
ENDBRANCH  44  45
ENDBRANCH  33  36
ENDBRANCH  31  32
BRANCH  31  47
ATOM     47  C   UNL     1       5.841  -1.199  24.704  0.00  0.00    +0.020 C 
BRANCH  47  48
ATOM     48  C   UNL     1       6.027  -1.811  26.089  0.00  0.00    +0.036 C 
BRANCH  48  49
ATOM     49  C   UNL     1       5.039  -2.909  26.367  0.00  0.00    -0.047 A 
ATOM     50  C   UNL     1       5.289  -3.842  27.379  0.00  0.00    +0.003 A 
ATOM     51  C   UNL     1       4.396  -4.886  27.607  0.00  0.00    +0.000 A 
ATOM     52  C   UNL     1       3.243  -4.999  26.830  0.00  0.00    +0.000 A 
ATOM     53  C   UNL     1       2.976  -4.060  25.835  0.00  0.00    +0.000 A 
ATOM     54  C   UNL     1       3.868  -3.014  25.607  0.00  0.00    +0.003 A 
ENDBRANCH  48  49
ENDBRANCH  47  48
ENDBRANCH  31  47
ENDBRANCH   1  31
TORSDOF 17
ENDMDL
MODEL 5
REMARK VINA RESULT:      -6.6      2.254      4.983
REMARK  Name = 
REMARK  17 active torsions:
REMARK  status: ('A' for Active; 'I' for Inactive)
REMARK    1  A    between atoms: O_1  and  C_2
REMARK    2  A    between atoms: C_2  and  C_4
REMARK    3  A    between atoms: C_2  and  C_32
REMARK    4  A    between atoms: C_4  and  O_6
REMARK    5  A    between atoms: C_4  and  C_7
REMARK    6  A    between atoms: C_7  and  C_9
REMARK    7  A    between atoms: C_7  and  C_17
REMARK    8  A    between atoms: C_9  and  C_10
REMARK    9  A    between atoms: C_10  and  C_11
REMARK   10  A    between atoms: N_19  and  C_20
REMARK   11  A    between atoms: C_22  and  O_24
REMARK   12  A    between atoms: C_32  and  C_34
REMARK   13  A    between atoms: C_32  and  C_42
REMARK   14  A    between atoms: C_34  and  C_35
REMARK   15  A    between atoms: C_35  and  C_36
REMARK   16  A    between atoms: N_44  and  C_45
REMARK   17  A    between atoms: C_47  and  O_49
REMARK                            x       y       z     vdW  Elec       q    Type
REMARK                         _______ _______ _______ _____ _____    ______ ____
ROOT
ATOM      1  C   UNL     1       7.606  -1.900  23.691  0.00  0.00    +0.155 C 
ENDROOT
BRANCH   1   2
ATOM      2  O   UNL     1       6.766  -2.843  22.992  0.00  0.00    -0.388 OA
ATOM      3  H   UNL     1       7.289  -3.659  22.882  0.00  0.00    +0.210 HD
ENDBRANCH   1   2
BRANCH   1   4
ATOM      4  C   UNL     1       6.668  -1.057  24.591  0.00  0.00    +0.155 C 
BRANCH   4   5
ATOM      5  O   UNL     1       5.312  -1.363  24.207  0.00  0.00    -0.388 OA
ATOM      6  H   UNL     1       5.233  -1.114  23.267  0.00  0.00    +0.210 HD
ENDBRANCH   4   5
BRANCH   4   7
ATOM      7  C   UNL     1       6.941   0.456  24.541  0.00  0.00    +0.106 C 
BRANCH   7   8
ATOM      8  C   UNL     1       6.356   1.111  23.295  0.00  0.00    +0.219 C 
ATOM      9  N   UNL     1       5.501   2.156  23.540  0.00  0.00    -0.306 N 
ATOM     10  H   UNL     1       5.464   2.504  24.495  0.00  0.00    +0.149 HD
ATOM     11  O   UNL     1       6.646   0.724  22.169  0.00  0.00    -0.275 OA
BRANCH   9  12
ATOM     12  C   UNL     1       4.971   2.994  22.485  0.00  0.00    +0.132 C 
ATOM     13  C   UNL     1       5.688   4.313  22.477  0.00  0.00    -0.022 A 
ATOM     14  C   UNL     1       4.845   5.369  22.814  0.00  0.00    -0.040 A 
ATOM     15  C   UNL     1       5.344   6.653  22.972  0.00  0.00    +0.004 A 
ATOM     16  C   UNL     1       6.712   6.866  22.788  0.00  0.00    +0.000 A 
ATOM     17  C   UNL     1       7.557   5.810  22.422  0.00  0.00    +0.000 A 
ATOM     18  C   UNL     1       3.436   4.918  23.029  0.00  0.00    +0.069 C 
ATOM     19  C   UNL     1       7.043   4.525  22.252  0.00  0.00    +0.006 A 
ATOM     20  C   UNL     1       3.490   3.399  22.756  0.00  0.00    +0.143 C 
BRANCH  20  21
ATOM     21  O   UNL     1       2.649   3.068  21.644  0.00  0.00    -0.389 OA
ATOM     22  H   UNL     1       2.257   3.897  21.316  0.00  0.00    +0.210 HD
ENDBRANCH  20  21
ENDBRANCH   9  12
ENDBRANCH   7   8
BRANCH   7  23
ATOM     23  C   UNL     1       6.579   1.212  25.826  0.00  0.00    +0.020 C 
BRANCH  23  24
ATOM     24  C   UNL     1       7.615   2.200  26.354  0.00  0.00    +0.036 C 
BRANCH  24  25
ATOM     25  C   UNL     1       7.052   3.596  26.385  0.00  0.00    -0.047 A 
ATOM     26  C   UNL     1       7.875   4.697  26.121  0.00  0.00    +0.003 A 
ATOM     27  C   UNL     1       7.344   5.985  26.126  0.00  0.00    +0.000 A 
ATOM     28  C   UNL     1       5.989   6.182  26.387  0.00  0.00    +0.000 A 
ATOM     29  C   UNL     1       5.162   5.089  26.644  0.00  0.00    +0.000 A 
ATOM     30  C   UNL     1       5.689   3.803  26.643  0.00  0.00    +0.003 A 
ENDBRANCH  24  25
ENDBRANCH  23  24
ENDBRANCH   7  23
ENDBRANCH   4   7
ENDBRANCH   1   4
BRANCH   1  31
ATOM     31  C   UNL     1       8.743  -2.613  24.459  0.00  0.00    +0.106 C 
BRANCH  31  32
ATOM     32  C   UNL     1       8.415  -4.076  24.746  0.00  0.00    +0.219 C 
ATOM     33  N   UNL     1       7.416  -4.250  25.662  0.00  0.00    -0.306 N 
ATOM     34  H   UNL     1       7.062  -3.419  26.138  0.00  0.00    +0.149 HD
ATOM     35  O   UNL     1       8.974  -5.001  24.169  0.00  0.00    -0.275 OA
BRANCH  33  36
ATOM     36  C   UNL     1       6.931  -5.533  26.107  0.00  0.00    +0.132 C 
ATOM     37  C   UNL     1       5.630  -5.829  25.423  0.00  0.00    -0.022 A 
ATOM     38  C   UNL     1       4.590  -6.019  26.328  0.00  0.00    -0.040 A 
ATOM     39  C   UNL     1       3.299  -6.266  25.886  0.00  0.00    +0.004 A 
ATOM     40  C   UNL     1       3.057  -6.304  24.512  0.00  0.00    +0.000 A 
ATOM     41  C   UNL     1       4.099  -6.101  23.598  0.00  0.00    +0.000 A 
ATOM     42  C   UNL     1       5.049  -5.889  27.744  0.00  0.00    +0.069 C 
ATOM     43  C   UNL     1       5.396  -5.868  24.052  0.00  0.00    +0.006 A 
ATOM     44  C   UNL     1       6.546  -5.535  27.621  0.00  0.00    +0.143 C 
BRANCH  44  45
ATOM     45  O   UNL     1       7.321  -6.472  28.377  0.00  0.00    -0.389 OA
ATOM     46  H   UNL     1       7.237  -6.247  29.319  0.00  0.00    +0.210 HD
ENDBRANCH  44  45
ENDBRANCH  33  36
ENDBRANCH  31  32
BRANCH  31  47
ATOM     47  C   UNL     1      10.133  -2.454  23.819  0.00  0.00    +0.020 C 
BRANCH  47  48
ATOM     48  C   UNL     1      10.180  -1.621  22.542  0.00  0.00    +0.036 C 
BRANCH  48  49
ATOM     49  C   UNL     1      10.231  -0.146  22.823  0.00  0.00    -0.047 A 
ATOM     50  C   UNL     1      10.626   0.319  24.081  0.00  0.00    +0.003 A 
ATOM     51  C   UNL     1      10.630   1.685  24.357  0.00  0.00    +0.000 A 
ATOM     52  C   UNL     1      10.247   2.594  23.371  0.00  0.00    +0.000 A 
ATOM     53  C   UNL     1       9.873   2.140  22.107  0.00  0.00    +0.000 A 
ATOM     54  C   UNL     1       9.870   0.775  21.831  0.00  0.00    +0.003 A 
ENDBRANCH  48  49
ENDBRANCH  47  48
ENDBRANCH  31  47
ENDBRANCH   1  31
TORSDOF 17
ENDMDL
MODEL 6
REMARK VINA RESULT:      -6.5      2.006      6.671
REMARK  Name = 
REMARK  17 active torsions:
REMARK  status: ('A' for Active; 'I' for Inactive)
REMARK    1  A    between atoms: O_1  and  C_2
REMARK    2  A    between atoms: C_2  and  C_4
REMARK    3  A    between atoms: C_2  and  C_32
REMARK    4  A    between atoms: C_4  and  O_6
REMARK    5  A    between atoms: C_4  and  C_7
REMARK    6  A    between atoms: C_7  and  C_9
REMARK    7  A    between atoms: C_7  and  C_17
REMARK    8  A    between atoms: C_9  and  C_10
REMARK    9  A    between atoms: C_10  and  C_11
REMARK   10  A    between atoms: N_19  and  C_20
REMARK   11  A    between atoms: C_22  and  O_24
REMARK   12  A    between atoms: C_32  and  C_34
REMARK   13  A    between atoms: C_32  and  C_42
REMARK   14  A    between atoms: C_34  and  C_35
REMARK   15  A    between atoms: C_35  and  C_36
REMARK   16  A    between atoms: N_44  and  C_45
REMARK   17  A    between atoms: C_47  and  O_49
REMARK                            x       y       z     vdW  Elec       q    Type
REMARK                         _______ _______ _______ _____ _____    ______ ____
ROOT
ATOM      1  C   UNL     1      10.214  -0.082  24.652  0.00  0.00    +0.155 C 
ENDROOT
BRANCH   1   2
ATOM      2  O   UNL     1       9.816   0.123  26.025  0.00  0.00    -0.388 OA
ATOM      3  H   UNL     1       9.566  -0.750  26.380  0.00  0.00    +0.210 HD
ENDBRANCH   1   2
BRANCH   1   4
ATOM      4  C   UNL     1       9.474  -1.353  24.165  0.00  0.00    +0.155 C 
BRANCH   4   5
ATOM      5  O   UNL     1       9.424  -1.298  22.724  0.00  0.00    -0.388 OA
ATOM      6  H   UNL     1       9.616  -2.202  22.411  0.00  0.00    +0.210 HD
ENDBRANCH   4   5
BRANCH   4   7
ATOM      7  C   UNL     1       8.072  -1.536  24.771  0.00  0.00    +0.106 C 
BRANCH   7   8
ATOM      8  C   UNL     1       7.007  -1.775  23.707  0.00  0.00    +0.219 C 
ATOM      9  N   UNL     1       6.807  -3.091  23.376  0.00  0.00    -0.306 N 
ATOM     10  H   UNL     1       7.252  -3.787  23.970  0.00  0.00    +0.149 HD
ATOM     11  O   UNL     1       6.380  -0.849  23.205  0.00  0.00    -0.275 OA
BRANCH   9  12
ATOM     12  C   UNL     1       5.736  -3.523  22.502  0.00  0.00    +0.132 C 
ATOM     13  C   UNL     1       4.652  -4.173  23.312  0.00  0.00    -0.022 A 
ATOM     14  C   UNL     1       4.524  -5.529  23.021  0.00  0.00    -0.040 A 
ATOM     15  C   UNL     1       3.654  -6.331  23.744  0.00  0.00    +0.004 A 
ATOM     16  C   UNL     1       2.910  -5.751  24.775  0.00  0.00    +0.000 A 
ATOM     17  C   UNL     1       3.018  -4.382  25.051  0.00  0.00    +0.000 A 
ATOM     18  C   UNL     1       5.453  -5.961  21.932  0.00  0.00    +0.069 C 
ATOM     19  C   UNL     1       3.885  -3.581  24.308  0.00  0.00    +0.006 A 
ATOM     20  C   UNL     1       6.193  -4.664  21.543  0.00  0.00    +0.143 C 
BRANCH  20  21
ATOM     21  O   UNL     1       5.923  -4.333  20.176  0.00  0.00    -0.389 OA
ATOM     22  H   UNL     1       6.779  -4.214  19.728  0.00  0.00    +0.210 HD
ENDBRANCH  20  21
ENDBRANCH   9  12
ENDBRANCH   7   8
BRANCH   7  23
ATOM     23  C   UNL     1       8.000  -2.558  25.913  0.00  0.00    +0.020 C 
BRANCH  23  24
ATOM     24  C   UNL     1       6.807  -2.446  26.858  0.00  0.00    +0.036 C 
BRANCH  24  25
ATOM     25  C   UNL     1       6.186  -3.796  27.097  0.00  0.00    -0.047 A 
ATOM     26  C   UNL     1       6.645  -4.919  26.399  0.00  0.00    +0.003 A 
ATOM     27  C   UNL     1       6.084  -6.171  26.642  0.00  0.00    +0.000 A 
ATOM     28  C   UNL     1       5.069  -6.311  27.587  0.00  0.00    +0.000 A 
ATOM     29  C   UNL     1       4.612  -5.198  28.290  0.00  0.00    +0.000 A 
ATOM     30  C   UNL     1       5.167  -3.947  28.048  0.00  0.00    +0.003 A 
ENDBRANCH  24  25
ENDBRANCH  23  24
ENDBRANCH   7  23
ENDBRANCH   4   7
ENDBRANCH   1   4
BRANCH   1  31
ATOM     31  C   UNL     1       9.945   1.173  23.789  0.00  0.00    +0.106 C 
BRANCH  31  32
ATOM     32  C   UNL     1       8.611   1.832  24.132  0.00  0.00    +0.219 C 
ATOM     33  N   UNL     1       7.743   1.907  23.079  0.00  0.00    -0.306 N 
ATOM     34  H   UNL     1       8.089   1.623  22.161  0.00  0.00    +0.149 HD
ATOM     35  O   UNL     1       8.338   2.217  25.263  0.00  0.00    -0.275 OA
BRANCH  33  36
ATOM     36  C   UNL     1       6.427   2.492  23.145  0.00  0.00    +0.132 C 
ATOM     37  C   UNL     1       6.549   3.983  23.041  0.00  0.00    -0.022 A 
ATOM     38  C   UNL     1       6.021   4.634  24.152  0.00  0.00    -0.040 A 
ATOM     39  C   UNL     1       6.075   6.015  24.259  0.00  0.00    +0.004 A 
ATOM     40  C   UNL     1       6.685   6.744  23.236  0.00  0.00    +0.000 A 
ATOM     41  C   UNL     1       7.229   6.091  22.122  0.00  0.00    +0.000 A 
ATOM     42  C   UNL     1       5.461   3.674  25.150  0.00  0.00    +0.069 C 
ATOM     43  C   UNL     1       7.157   4.702  22.017  0.00  0.00    +0.006 A 
ATOM     44  C   UNL     1       5.750   2.287  24.538  0.00  0.00    +0.143 C 
BRANCH  44  45
ATOM     45  O   UNL     1       4.531   1.543  24.445  0.00  0.00    -0.389 OA
ATOM     46  H   UNL     1       3.832   2.045  24.899  0.00  0.00    +0.210 HD
ENDBRANCH  44  45
ENDBRANCH  33  36
ENDBRANCH  31  32
BRANCH  31  47
ATOM     47  C   UNL     1      11.099   2.190  23.779  0.00  0.00    +0.020 C 
BRANCH  47  48
ATOM     48  C   UNL     1      10.876   3.432  22.921  0.00  0.00    +0.036 C 
BRANCH  48  49
ATOM     49  C   UNL     1      10.969   4.702  23.718  0.00  0.00    -0.047 A 
ATOM     50  C   UNL     1      12.185   5.387  23.813  0.00  0.00    +0.003 A 
ATOM     51  C   UNL     1      12.282   6.540  24.590  0.00  0.00    +0.000 A 
ATOM     52  C   UNL     1      11.162   7.019  25.268  0.00  0.00    +0.000 A 
ATOM     53  C   UNL     1       9.941   6.354  25.160  0.00  0.00    +0.000 A 
ATOM     54  C   UNL     1       9.842   5.202  24.383  0.00  0.00    +0.003 A 
ENDBRANCH  48  49
ENDBRANCH  47  48
ENDBRANCH  31  47
ENDBRANCH   1  31
TORSDOF 17
ENDMDL
MODEL 7
REMARK VINA RESULT:      -6.5      2.269      4.948
REMARK  Name = 
REMARK  17 active torsions:
REMARK  status: ('A' for Active; 'I' for Inactive)
REMARK    1  A    between atoms: O_1  and  C_2
REMARK    2  A    between atoms: C_2  and  C_4
REMARK    3  A    between atoms: C_2  and  C_32
REMARK    4  A    between atoms: C_4  and  O_6
REMARK    5  A    between atoms: C_4  and  C_7
REMARK    6  A    between atoms: C_7  and  C_9
REMARK    7  A    between atoms: C_7  and  C_17
REMARK    8  A    between atoms: C_9  and  C_10
REMARK    9  A    between atoms: C_10  and  C_11
REMARK   10  A    between atoms: N_19  and  C_20
REMARK   11  A    between atoms: C_22  and  O_24
REMARK   12  A    between atoms: C_32  and  C_34
REMARK   13  A    between atoms: C_32  and  C_42
REMARK   14  A    between atoms: C_34  and  C_35
REMARK   15  A    between atoms: C_35  and  C_36
REMARK   16  A    between atoms: N_44  and  C_45
REMARK   17  A    between atoms: C_47  and  O_49
REMARK                            x       y       z     vdW  Elec       q    Type
REMARK                         _______ _______ _______ _____ _____    ______ ____
ROOT
ATOM      1  C   UNL     1       9.192   0.273  23.210  0.00  0.00    +0.155 C 
ENDROOT
BRANCH   1   2
ATOM      2  O   UNL     1      10.631   0.185  23.135  0.00  0.00    -0.388 OA
ATOM      3  H   UNL     1      10.857   0.057  22.194  0.00  0.00    +0.210 HD
ENDBRANCH   1   2
BRANCH   1   4
ATOM      4  C   UNL     1       8.801   1.634  22.583  0.00  0.00    +0.155 C 
BRANCH   4   5
ATOM      5  O   UNL     1       9.814   1.970  21.613  0.00  0.00    -0.388 OA
ATOM      6  H   UNL     1       9.372   1.959  20.744  0.00  0.00    +0.210 HD
ENDBRANCH   4   5
BRANCH   4   7
ATOM      7  C   UNL     1       8.604   2.765  23.607  0.00  0.00    +0.106 C 
BRANCH   7   8
ATOM      8  C   UNL     1       7.581   3.796  23.144  0.00  0.00    +0.219 C 
ATOM      9  N   UNL     1       6.282   3.354  23.134  0.00  0.00    -0.306 N 
ATOM     10  H   UNL     1       6.097   2.460  23.583  0.00  0.00    +0.149 HD
ATOM     11  O   UNL     1       7.912   4.930  22.818  0.00  0.00    -0.275 OA
BRANCH   9  12
ATOM     12  C   UNL     1       5.160   4.233  22.872  0.00  0.00    +0.132 C 
ATOM     13  C   UNL     1       4.659   4.813  24.162  0.00  0.00    -0.022 A 
ATOM     14  C   UNL     1       3.373   4.375  24.469  0.00  0.00    -0.040 A 
ATOM     15  C   UNL     1       2.778   4.710  25.675  0.00  0.00    +0.004 A 
ATOM     16  C   UNL     1       3.496   5.494  26.581  0.00  0.00    +0.000 A 
ATOM     17  C   UNL     1       4.779   5.957  26.263  0.00  0.00    +0.000 A 
ATOM     18  C   UNL     1       2.808   3.497  23.398  0.00  0.00    +0.069 C 
ATOM     19  C   UNL     1       5.364   5.628  25.041  0.00  0.00    +0.006 A 
ATOM     20  C   UNL     1       3.924   3.451  22.333  0.00  0.00    +0.143 C 
BRANCH  20  21
ATOM     21  O   UNL     1       3.453   4.010  21.101  0.00  0.00    -0.389 OA
ATOM     22  H   UNL     1       2.486   3.897  21.078  0.00  0.00    +0.210 HD
ENDBRANCH  20  21
ENDBRANCH   9  12
ENDBRANCH   7   8
BRANCH   7  23
ATOM     23  C   UNL     1       8.348   2.288  25.043  0.00  0.00    +0.020 C 
BRANCH  23  24
ATOM     24  C   UNL     1       7.611   3.256  25.965  0.00  0.00    +0.036 C 
BRANCH  24  25
ATOM     25  C   UNL     1       6.651   2.516  26.858  0.00  0.00    -0.047 A 
ATOM     26  C   UNL     1       5.368   2.193  26.403  0.00  0.00    +0.003 A 
ATOM     27  C   UNL     1       4.493   1.485  27.224  0.00  0.00    +0.000 A 
ATOM     28  C   UNL     1       4.894   1.091  28.499  0.00  0.00    +0.000 A 
ATOM     29  C   UNL     1       6.173   1.403  28.955  0.00  0.00    +0.000 A 
ATOM     30  C   UNL     1       7.048   2.112  28.140  0.00  0.00    +0.003 A 
ENDBRANCH  24  25
ENDBRANCH  23  24
ENDBRANCH   7  23
ENDBRANCH   4   7
ENDBRANCH   1   4
BRANCH   1  31
ATOM     31  C   UNL     1       8.513  -0.946  22.543  0.00  0.00    +0.106 C 
BRANCH  31  32
ATOM     32  C   UNL     1       9.076  -2.270  23.054  0.00  0.00    +0.219 C 
ATOM     33  N   UNL     1       8.119  -3.166  23.443  0.00  0.00    -0.306 N 
ATOM     34  H   UNL     1       7.151  -2.844  23.460  0.00  0.00    +0.149 HD
ATOM     35  O   UNL     1      10.277  -2.513  23.069  0.00  0.00    -0.275 OA
BRANCH  33  36
ATOM     36  C   UNL     1       8.397  -4.479  23.969  0.00  0.00    +0.132 C 
ATOM     37  C   UNL     1       7.119  -5.087  24.464  0.00  0.00    -0.022 A 
ATOM     38  C   UNL     1       7.178  -5.409  25.818  0.00  0.00    -0.040 A 
ATOM     39  C   UNL     1       6.079  -5.948  26.469  0.00  0.00    +0.004 A 
ATOM     40  C   UNL     1       4.902  -6.148  25.745  0.00  0.00    +0.000 A 
ATOM     41  C   UNL     1       4.835  -5.814  24.386  0.00  0.00    +0.000 A 
ATOM     42  C   UNL     1       8.505  -5.073  26.416  0.00  0.00    +0.069 C 
ATOM     43  C   UNL     1       5.950  -5.286  23.737  0.00  0.00    +0.006 A 
ATOM     44  C   UNL     1       9.289  -4.434  25.250  0.00  0.00    +0.143 C 
BRANCH  44  45
ATOM     45  O   UNL     1      10.529  -5.129  25.073  0.00  0.00    -0.389 OA
ATOM     46  H   UNL     1      11.219  -4.474  24.871  0.00  0.00    +0.210 HD
ENDBRANCH  44  45
ENDBRANCH  33  36
ENDBRANCH  31  32
BRANCH  31  47
ATOM     47  C   UNL     1       6.976  -0.920  22.598  0.00  0.00    +0.020 C 
BRANCH  47  48
ATOM     48  C   UNL     1       6.370  -0.131  23.755  0.00  0.00    +0.036 C 
BRANCH  48  49
ATOM     49  C   UNL     1       6.107  -0.992  24.959  0.00  0.00    -0.047 A 
ATOM     50  C   UNL     1       4.913  -1.712  25.063  0.00  0.00    +0.003 A 
ATOM     51  C   UNL     1       4.649  -2.473  26.199  0.00  0.00    +0.000 A 
ATOM     52  C   UNL     1       5.582  -2.526  27.234  0.00  0.00    +0.000 A 
ATOM     53  C   UNL     1       6.785  -1.828  27.128  0.00  0.00    +0.000 A 
ATOM     54  C   UNL     1       7.050  -1.067  25.992  0.00  0.00    +0.003 A 
ENDBRANCH  48  49
ENDBRANCH  47  48
ENDBRANCH  31  47
ENDBRANCH   1  31
TORSDOF 17
ENDMDL
MODEL 8
REMARK VINA RESULT:      -6.5      2.078      5.356
REMARK  Name = 
REMARK  17 active torsions:
REMARK  status: ('A' for Active; 'I' for Inactive)
REMARK    1  A    between atoms: O_1  and  C_2
REMARK    2  A    between atoms: C_2  and  C_4
REMARK    3  A    between atoms: C_2  and  C_32
REMARK    4  A    between atoms: C_4  and  O_6
REMARK    5  A    between atoms: C_4  and  C_7
REMARK    6  A    between atoms: C_7  and  C_9
REMARK    7  A    between atoms: C_7  and  C_17
REMARK    8  A    between atoms: C_9  and  C_10
REMARK    9  A    between atoms: C_10  and  C_11
REMARK   10  A    between atoms: N_19  and  C_20
REMARK   11  A    between atoms: C_22  and  O_24
REMARK   12  A    between atoms: C_32  and  C_34
REMARK   13  A    between atoms: C_32  and  C_42
REMARK   14  A    between atoms: C_34  and  C_35
REMARK   15  A    between atoms: C_35  and  C_36
REMARK   16  A    between atoms: N_44  and  C_45
REMARK   17  A    between atoms: C_47  and  O_49
REMARK                            x       y       z     vdW  Elec       q    Type
REMARK                         _______ _______ _______ _____ _____    ______ ____
ROOT
ATOM      1  C   UNL     1       7.330  -1.876  24.121  0.00  0.00    +0.155 C 
ENDROOT
BRANCH   1   2
ATOM      2  O   UNL     1       6.305  -2.757  23.614  0.00  0.00    -0.388 OA
ATOM      3  H   UNL     1       5.743  -2.223  23.020  0.00  0.00    +0.210 HD
ENDBRANCH   1   2
BRANCH   1   4
ATOM      4  C   UNL     1       6.650  -0.974  25.182  0.00  0.00    +0.155 C 
BRANCH   4   5
ATOM      5  O   UNL     1       5.665  -1.777  25.864  0.00  0.00    -0.388 OA
ATOM      6  H   UNL     1       5.147  -1.161  26.415  0.00  0.00    +0.210 HD
ENDBRANCH   4   5
BRANCH   4   7
ATOM      7  C   UNL     1       6.031   0.313  24.610  0.00  0.00    +0.106 C 
BRANCH   7   8
ATOM      8  C   UNL     1       5.200   1.065  25.642  0.00  0.00    +0.219 C 
ATOM      9  N   UNL     1       5.892   2.000  26.370  0.00  0.00    -0.306 N 
ATOM     10  H   UNL     1       6.832   2.224  26.053  0.00  0.00    +0.149 HD
ATOM     11  O   UNL     1       4.003   0.844  25.790  0.00  0.00    -0.275 OA
BRANCH   9  12
ATOM     12  C   UNL     1       5.242   2.916  27.284  0.00  0.00    +0.132 C 
ATOM     13  C   UNL     1       5.067   4.252  26.624  0.00  0.00    -0.022 A 
ATOM     14  C   UNL     1       5.826   5.244  27.239  0.00  0.00    -0.040 A 
ATOM     15  C   UNL     1       5.888   6.523  26.708  0.00  0.00    +0.004 A 
ATOM     16  C   UNL     1       5.173   6.798  25.540  0.00  0.00    +0.000 A 
ATOM     17  C   UNL     1       4.387   5.809  24.935  0.00  0.00    +0.000 A 
ATOM     18  C   UNL     1       6.563   4.728  28.434  0.00  0.00    +0.069 C 
ATOM     19  C   UNL     1       4.320   4.529  25.485  0.00  0.00    +0.006 A 
ATOM     20  C   UNL     1       6.143   3.245  28.513  0.00  0.00    +0.143 C 
BRANCH  20  21
ATOM     21  O   UNL     1       5.456   2.992  29.744  0.00  0.00    -0.389 OA
ATOM     22  H   UNL     1       5.796   3.620  30.405  0.00  0.00    +0.210 HD
ENDBRANCH  20  21
ENDBRANCH   9  12
ENDBRANCH   7   8
BRANCH   7  23
ATOM     23  C   UNL     1       7.021   1.225  23.876  0.00  0.00    +0.020 C 
BRANCH  23  24
ATOM     24  C   UNL     1       6.422   2.327  23.006  0.00  0.00    +0.036 C 
BRANCH  24  25
ATOM     25  C   UNL     1       7.099   3.645  23.274  0.00  0.00    -0.047 A 
ATOM     26  C   UNL     1       7.887   3.817  24.417  0.00  0.00    +0.003 A 
ATOM     27  C   UNL     1       8.532   5.030  24.647  0.00  0.00    +0.000 A 
ATOM     28  C   UNL     1       8.401   6.076  23.734  0.00  0.00    +0.000 A 
ATOM     29  C   UNL     1       7.624   5.909  22.589  0.00  0.00    +0.000 A 
ATOM     30  C   UNL     1       6.976   4.701  22.359  0.00  0.00    +0.003 A 
ENDBRANCH  24  25
ENDBRANCH  23  24
ENDBRANCH   7  23
ENDBRANCH   4   7
ENDBRANCH   1   4
BRANCH   1  31
ATOM     31  C   UNL     1       8.547  -2.668  24.655  0.00  0.00    +0.106 C 
BRANCH  31  32
ATOM     32  C   UNL     1       8.217  -4.140  24.888  0.00  0.00    +0.219 C 
ATOM     33  N   UNL     1       7.316  -4.355  25.893  0.00  0.00    -0.306 N 
ATOM     34  H   UNL     1       7.034  -3.549  26.453  0.00  0.00    +0.149 HD
ATOM     35  O   UNL     1       8.690  -5.037  24.200  0.00  0.00    -0.275 OA
BRANCH  33  36
ATOM     36  C   UNL     1       6.853  -5.655  26.310  0.00  0.00    +0.132 C 
ATOM     37  C   UNL     1       5.555  -5.955  25.621  0.00  0.00    -0.022 A 
ATOM     38  C   UNL     1       4.520  -6.181  26.524  0.00  0.00    -0.040 A 
ATOM     39  C   UNL     1       3.232  -6.438  26.079  0.00  0.00    +0.004 A 
ATOM     40  C   UNL     1       2.988  -6.450  24.704  0.00  0.00    +0.000 A 
ATOM     41  C   UNL     1       4.025  -6.210  23.793  0.00  0.00    +0.000 A 
ATOM     42  C   UNL     1       4.979  -6.076  27.942  0.00  0.00    +0.069 C 
ATOM     43  C   UNL     1       5.319  -5.967  24.251  0.00  0.00    +0.006 A 
ATOM     44  C   UNL     1       6.470  -5.696  27.824  0.00  0.00    +0.143 C 
BRANCH  44  45
ATOM     45  O   UNL     1       7.261  -6.638  28.558  0.00  0.00    -0.389 OA
ATOM     46  H   UNL     1       8.146  -6.256  28.689  0.00  0.00    +0.210 HD
ENDBRANCH  44  45
ENDBRANCH  33  36
ENDBRANCH  31  32
BRANCH  31  47
ATOM     47  C   UNL     1       9.828  -2.494  23.821  0.00  0.00    +0.020 C 
BRANCH  47  48
ATOM     48  C   UNL     1       9.678  -1.672  22.545  0.00  0.00    +0.036 C 
BRANCH  48  49
ATOM     49  C   UNL     1      10.003  -0.221  22.758  0.00  0.00    -0.047 A 
ATOM     50  C   UNL     1       9.786   0.707  21.734  0.00  0.00    +0.003 A 
ATOM     51  C   UNL     1      10.130   2.045  21.914  0.00  0.00    +0.000 A 
ATOM     52  C   UNL     1      10.686   2.464  23.123  0.00  0.00    +0.000 A 
ATOM     53  C   UNL     1      10.886   1.549  24.156  0.00  0.00    +0.000 A 
ATOM     54  C   UNL     1      10.540   0.211  23.977  0.00  0.00    +0.003 A 
ENDBRANCH  48  49
ENDBRANCH  47  48
ENDBRANCH  31  47
ENDBRANCH   1  31
TORSDOF 17
ENDMDL
MODEL 9
REMARK VINA RESULT:      -6.5      1.714      6.412
REMARK  Name = 
REMARK  17 active torsions:
REMARK  status: ('A' for Active; 'I' for Inactive)
REMARK    1  A    between atoms: O_1  and  C_2
REMARK    2  A    between atoms: C_2  and  C_4
REMARK    3  A    between atoms: C_2  and  C_32
REMARK    4  A    between atoms: C_4  and  O_6
REMARK    5  A    between atoms: C_4  and  C_7
REMARK    6  A    between atoms: C_7  and  C_9
REMARK    7  A    between atoms: C_7  and  C_17
REMARK    8  A    between atoms: C_9  and  C_10
REMARK    9  A    between atoms: C_10  and  C_11
REMARK   10  A    between atoms: N_19  and  C_20
REMARK   11  A    between atoms: C_22  and  O_24
REMARK   12  A    between atoms: C_32  and  C_34
REMARK   13  A    between atoms: C_32  and  C_42
REMARK   14  A    between atoms: C_34  and  C_35
REMARK   15  A    between atoms: C_35  and  C_36
REMARK   16  A    between atoms: N_44  and  C_45
REMARK   17  A    between atoms: C_47  and  O_49
REMARK                            x       y       z     vdW  Elec       q    Type
REMARK                         _______ _______ _______ _____ _____    ______ ____
ROOT
ATOM      1  C   UNL     1       9.419  -0.916  25.609  0.00  0.00    +0.155 C 
ENDROOT
BRANCH   1   2
ATOM      2  O   UNL     1       9.521  -0.032  26.746  0.00  0.00    -0.388 OA
ATOM      3  H   UNL     1       9.288   0.861  26.431  0.00  0.00    +0.210 HD
ENDBRANCH   1   2
BRANCH   1   4
ATOM      4  C   UNL     1       8.134  -1.756  25.818  0.00  0.00    +0.155 C 
BRANCH   4   5
ATOM      5  O   UNL     1       7.375  -1.130  26.872  0.00  0.00    -0.388 OA
ATOM      6  H   UNL     1       7.890  -0.349  27.151  0.00  0.00    +0.210 HD
ENDBRANCH   4   5
BRANCH   4   7
ATOM      7  C   UNL     1       8.396  -3.242  26.118  0.00  0.00    +0.106 C 
BRANCH   7   8
ATOM      8  C   UNL     1       7.190  -3.928  26.749  0.00  0.00    +0.219 C 
ATOM      9  N   UNL     1       5.973  -3.438  26.347  0.00  0.00    -0.306 N 
ATOM     10  H   UNL     1       5.974  -2.794  25.560  0.00  0.00    +0.149 HD
ATOM     11  O   UNL     1       7.318  -4.851  27.546  0.00  0.00    -0.275 OA
BRANCH   9  12
ATOM     12  C   UNL     1       4.719  -4.062  26.719  0.00  0.00    +0.132 C 
ATOM     13  C   UNL     1       4.285  -5.011  25.641  0.00  0.00    -0.022 A 
ATOM     14  C   UNL     1       3.113  -4.593  25.016  0.00  0.00    -0.040 A 
ATOM     15  C   UNL     1       2.612  -5.276  23.918  0.00  0.00    +0.004 A 
ATOM     16  C   UNL     1       3.309  -6.392  23.448  0.00  0.00    +0.000 A 
ATOM     17  C   UNL     1       4.473  -6.829  24.092  0.00  0.00    +0.000 A 
ATOM     18  C   UNL     1       2.562  -3.346  25.630  0.00  0.00    +0.069 C 
ATOM     19  C   UNL     1       4.962  -6.144  25.205  0.00  0.00    +0.006 A 
ATOM     20  C   UNL     1       3.552  -3.030  26.771  0.00  0.00    +0.143 C 
BRANCH  20  21
ATOM     21  O   UNL     1       2.877  -3.072  28.035  0.00  0.00    -0.389 OA
ATOM     22  H   UNL     1       3.099  -2.254  28.514  0.00  0.00    +0.210 HD
ENDBRANCH  20  21
ENDBRANCH   9  12
ENDBRANCH   7   8
BRANCH   7  23
ATOM     23  C   UNL     1       8.974  -4.038  24.941  0.00  0.00    +0.020 C 
BRANCH  23  24
ATOM     24  C   UNL     1       8.192  -5.272  24.498  0.00  0.00    +0.036 C 
BRANCH  24  25
ATOM     25  C   UNL     1       7.411  -4.986  23.243  0.00  0.00    -0.047 A 
ATOM     26  C   UNL     1       7.284  -5.965  22.252  0.00  0.00    +0.003 A 
ATOM     27  C   UNL     1       6.538  -5.705  21.104  0.00  0.00    +0.000 A 
ATOM     28  C   UNL     1       5.912  -4.471  20.941  0.00  0.00    +0.000 A 
ATOM     29  C   UNL     1       6.029  -3.494  21.929  0.00  0.00    +0.000 A 
ATOM     30  C   UNL     1       6.774  -3.749  23.074  0.00  0.00    +0.003 A 
ENDBRANCH  24  25
ENDBRANCH  23  24
ENDBRANCH   7  23
ENDBRANCH   4   7
ENDBRANCH   1   4
BRANCH   1  31
ATOM     31  C   UNL     1       9.449  -0.133  24.276  0.00  0.00    +0.106 C 
BRANCH  31  32
ATOM     32  C   UNL     1       8.048   0.204  23.774  0.00  0.00    +0.219 C 
ATOM     33  N   UNL     1       7.365   1.075  24.576  0.00  0.00    -0.306 N 
ATOM     34  H   UNL     1       7.795   1.332  25.466  0.00  0.00    +0.149 HD
ATOM     35  O   UNL     1       7.602  -0.239  22.722  0.00  0.00    -0.275 OA
BRANCH  33  36
ATOM     36  C   UNL     1       6.024   1.538  24.323  0.00  0.00    +0.132 C 
ATOM     37  C   UNL     1       6.088   2.885  23.667  0.00  0.00    -0.022 A 
ATOM     38  C   UNL     1       5.428   3.863  24.407  0.00  0.00    -0.040 A 
ATOM     39  C   UNL     1       5.408   5.183  23.983  0.00  0.00    +0.004 A 
ATOM     40  C   UNL     1       6.078   5.518  22.805  0.00  0.00    +0.000 A 
ATOM     41  C   UNL     1       6.753   4.540  22.064  0.00  0.00    +0.000 A 
ATOM     42  C   UNL     1       4.821   3.308  25.654  0.00  0.00    +0.069 C 
ATOM     43  C   UNL     1       6.755   3.212  22.492  0.00  0.00    +0.006 A 
ATOM     44  C   UNL     1       5.230   1.820  25.638  0.00  0.00    +0.143 C 
BRANCH  44  45
ATOM     45  O   UNL     1       4.059   1.002  25.751  0.00  0.00    -0.389 OA
ATOM     46  H   UNL     1       3.433   1.448  26.347  0.00  0.00    +0.210 HD
ENDBRANCH  44  45
ENDBRANCH  33  36
ENDBRANCH  31  32
BRANCH  31  47
ATOM     47  C   UNL     1      10.363   1.105  24.293  0.00  0.00    +0.020 C 
BRANCH  47  48
ATOM     48  C   UNL     1      10.169   2.084  23.139  0.00  0.00    +0.036 C 
BRANCH  48  49
ATOM     49  C   UNL     1      10.465   3.502  23.536  0.00  0.00    -0.047 A 
ATOM     50  C   UNL     1       9.492   4.270  24.184  0.00  0.00    +0.003 A 
ATOM     51  C   UNL     1       9.750   5.600  24.510  0.00  0.00    +0.000 A 
ATOM     52  C   UNL     1      10.986   6.166  24.199  0.00  0.00    +0.000 A 
ATOM     53  C   UNL     1      11.968   5.401  23.573  0.00  0.00    +0.000 A 
ATOM     54  C   UNL     1      11.712   4.071  23.246  0.00  0.00    +0.003 A 
ENDBRANCH  48  49
ENDBRANCH  47  48
ENDBRANCH  31  47
ENDBRANCH   1  31
TORSDOF 17
ENDMDL
