MODEL 1
REMARK VINA RESULT:      -4.0      0.000      0.000
REMARK  Name = 
REMARK  0 active torsions:
REMARK  status: ('A' for Active; 'I' for Inactive)
REMARK                            x       y       z     vdW  Elec       q    Type
REMARK                         _______ _______ _______ _____ _____    ______ ____
ROOT
ATOM      1  O   UNL     1      10.183  -0.878  24.332  0.00  0.00    -0.275 OA
ATOM      2  C   UNL     1      10.168   0.028  23.502  0.00  0.00    +0.222 C 
ATOM      3  N   UNL     1      10.525   1.310  23.834  0.00  0.00    -0.240 N 
ATOM      4  H   UNL     1      10.845   1.466  24.778  0.00  0.00    +0.159 HD
ATOM      5  C   UNL     1      10.509   2.396  23.010  0.00  0.00    +0.306 C 
ATOM      6  O   UNL     1      10.930   3.491  23.358  0.00  0.00    -0.252 OA
ATOM      7  N   UNL     1       9.985   2.193  21.768  0.00  0.00    -0.299 N 
ATOM      8  H   UNL     1       9.867   3.041  21.225  0.00  0.00    +0.150 HD
ATOM      9  C   UNL     1       9.196   1.026  21.475  0.00  0.00    +0.115 C 
ATOM     10  C   UNL     1       9.842  -0.213  22.052  0.00  0.00    +0.115 C 
ENDROOT
TORSDOF 0
ENDMDL
MODEL 2
REMARK VINA RESULT:      -4.0      6.714      7.479
REMARK  Name = 
REMARK  0 active torsions:
REMARK  status: ('A' for Active; 'I' for Inactive)
REMARK                            x       y       z     vdW  Elec       q    Type
REMARK                         _______ _______ _______ _____ _____    ______ ____
ROOT
ATOM      1  O   UNL     1       7.224  -5.878  28.100  0.00  0.00    -0.275 OA
ATOM      2  C   UNL     1       7.454  -5.575  26.932  0.00  0.00    +0.222 C 
ATOM      3  N   UNL     1       8.732  -5.349  26.488  0.00  0.00    -0.240 N 
ATOM      4  H   UNL     1       9.478  -5.489  27.153  0.00  0.00    +0.159 HD
ATOM      5  C   UNL     1       9.100  -4.971  25.231  0.00  0.00    +0.306 C 
ATOM      6  O   UNL     1      10.272  -4.878  24.889  0.00  0.00    -0.252 OA
ATOM      7  N   UNL     1       8.080  -4.693  24.371  0.00  0.00    -0.299 N 
ATOM      8  H   UNL     1       8.380  -4.293  23.488  0.00  0.00    +0.150 HD
ATOM      9  C   UNL     1       6.741  -4.476  24.850  0.00  0.00    +0.115 C 
ATOM     10  C   UNL     1       6.372  -5.512  25.887  0.00  0.00    +0.115 C 
ENDROOT
TORSDOF 0
ENDMDL
MODEL 3
REMARK VINA RESULT:      -3.8      6.670      7.668
REMARK  Name = 
REMARK  0 active torsions:
REMARK  status: ('A' for Active; 'I' for Inactive)
REMARK                            x       y       z     vdW  Elec       q    Type
REMARK                         _______ _______ _______ _____ _____    ______ ____
ROOT
ATOM      1  O   UNL     1      10.166  -5.074  24.909  0.00  0.00    -0.275 OA
ATOM      2  C   UNL     1       9.095  -4.828  25.459  0.00  0.00    +0.222 C 
ATOM      3  N   UNL     1       8.642  -5.580  26.512  0.00  0.00    -0.240 N 
ATOM      4  H   UNL     1       9.248  -6.315  26.845  0.00  0.00    +0.159 HD
ATOM      5  C   UNL     1       7.458  -5.424  27.170  0.00  0.00    +0.306 C 
ATOM      6  O   UNL     1       7.166  -6.080  28.162  0.00  0.00    -0.252 OA
ATOM      7  N   UNL     1       6.608  -4.493  26.653  0.00  0.00    -0.299 N 
ATOM      8  H   UNL     1       5.688  -4.488  27.081  0.00  0.00    +0.150 HD
ATOM      9  C   UNL     1       6.793  -3.973  25.324  0.00  0.00    +0.115 C 
ATOM     10  C   UNL     1       8.248  -3.643  25.080  0.00  0.00    +0.115 C 
ENDROOT
TORSDOF 0
ENDMDL
MODEL 4
REMARK VINA RESULT:      -3.6      1.808      2.098
REMARK  Name = 
REMARK  0 active torsions:
REMARK  status: ('A' for Active; 'I' for Inactive)
REMARK                            x       y       z     vdW  Elec       q    Type
REMARK                         _______ _______ _______ _____ _____    ______ ____
ROOT
ATOM      1  O   UNL     1       9.402  -0.813  25.412  0.00  0.00    -0.275 OA
ATOM      2  C   UNL     1       9.588  -0.760  24.199  0.00  0.00    +0.222 C 
ATOM      3  N   UNL     1       9.752   0.437  23.551  0.00  0.00    -0.240 N 
ATOM      4  H   UNL     1       9.759   1.270  24.121  0.00  0.00    +0.159 HD
ATOM      5  C   UNL     1       9.924   0.618  22.210  0.00  0.00    +0.306 C 
ATOM      6  O   UNL     1      10.156   1.715  21.719  0.00  0.00    -0.252 OA
ATOM      7  N   UNL     1       9.817  -0.502  21.441  0.00  0.00    -0.299 N 
ATOM      8  H   UNL     1       9.821  -0.321  20.443  0.00  0.00    +0.150 HD
ATOM      9  C   UNL     1       9.224  -1.706  21.958  0.00  0.00    +0.115 C 
ATOM     10  C   UNL     1       9.734  -1.995  23.351  0.00  0.00    +0.115 C 
ENDROOT
TORSDOF 0
ENDMDL
MODEL 5
REMARK VINA RESULT:      -3.6      6.563      7.602
REMARK  Name = 
REMARK  0 active torsions:
REMARK  status: ('A' for Active; 'I' for Inactive)
REMARK                            x       y       z     vdW  Elec       q    Type
REMARK                         _______ _______ _______ _____ _____    ______ ____
ROOT
ATOM      1  O   UNL     1       6.617  -2.909  24.547  0.00  0.00    -0.275 OA
ATOM      2  C   UNL     1       7.256  -3.839  25.032  0.00  0.00    +0.222 C 
ATOM      3  N   UNL     1       6.947  -4.354  26.265  0.00  0.00    -0.240 N 
ATOM      4  H   UNL     1       6.143  -3.966  26.734  0.00  0.00    +0.159 HD
ATOM      5  C   UNL     1       7.608  -5.353  26.916  0.00  0.00    +0.306 C 
ATOM      6  O   UNL     1       7.215  -5.819  27.977  0.00  0.00    -0.252 OA
ATOM      7  N   UNL     1       8.747  -5.802  26.317  0.00  0.00    -0.299 N 
ATOM      8  H   UNL     1       9.285  -6.450  26.882  0.00  0.00    +0.150 HD
ATOM      9  C   UNL     1       9.385  -5.047  25.271  0.00  0.00    +0.115 C 
ATOM     10  C   UNL     1       8.362  -4.534  24.284  0.00  0.00    +0.115 C 
ENDROOT
TORSDOF 0
ENDMDL
MODEL 6
REMARK VINA RESULT:      -3.5      3.093      4.730
REMARK  Name = 
REMARK  0 active torsions:
REMARK  status: ('A' for Active; 'I' for Inactive)
REMARK                            x       y       z     vdW  Elec       q    Type
REMARK                         _______ _______ _______ _____ _____    ______ ____
ROOT
ATOM      1  O   UNL     1      13.407   4.990  23.047  0.00  0.00    -0.275 OA
ATOM      2  C   UNL     1      12.231   4.960  23.400  0.00  0.00    +0.222 C 
ATOM      3  N   UNL     1      11.460   3.840  23.225  0.00  0.00    -0.240 N 
ATOM      4  H   UNL     1      11.914   3.026  22.837  0.00  0.00    +0.159 HD
ATOM      5  C   UNL     1      10.140   3.705  23.541  0.00  0.00    +0.306 C 
ATOM      6  O   UNL     1       9.544   2.641  23.438  0.00  0.00    -0.252 OA
ATOM      7  N   UNL     1       9.514   4.836  23.974  0.00  0.00    -0.299 N 
ATOM      8  H   UNL     1       8.510   4.740  24.078  0.00  0.00    +0.150 HD
ATOM      9  C   UNL     1      10.104   6.134  23.779  0.00  0.00    +0.115 C 
ATOM     10  C   UNL     1      11.576   6.107  24.121  0.00  0.00    +0.115 C 
ENDROOT
TORSDOF 0
ENDMDL
MODEL 7
REMARK VINA RESULT:      -3.5      2.319      3.144
REMARK  Name = 
REMARK  0 active torsions:
REMARK  status: ('A' for Active; 'I' for Inactive)
REMARK                            x       y       z     vdW  Elec       q    Type
REMARK                         _______ _______ _______ _____ _____    ______ ____
ROOT
ATOM      1  O   UNL     1       8.621   1.123  24.836  0.00  0.00    -0.275 OA
ATOM      2  C   UNL     1       8.894   0.473  23.830  0.00  0.00    +0.222 C 
ATOM      3  N   UNL     1       9.625  -0.685  23.902  0.00  0.00    -0.240 N 
ATOM      4  H   UNL     1       9.889  -1.003  24.823  0.00  0.00    +0.159 HD
ATOM      5  C   UNL     1      10.018  -1.463  22.855  0.00  0.00    +0.306 C 
ATOM      6  O   UNL     1      10.593  -2.533  23.009  0.00  0.00    -0.252 OA
ATOM      7  N   UNL     1       9.739  -0.975  21.613  0.00  0.00    -0.299 N 
ATOM      8  H   UNL     1      10.154  -1.507  20.855  0.00  0.00    +0.150 HD
ATOM      9  C   UNL     1       9.378   0.405  21.420  0.00  0.00    +0.115 C 
ATOM     10  C   UNL     1       8.380   0.845  22.466  0.00  0.00    +0.115 C 
ENDROOT
TORSDOF 0
ENDMDL
MODEL 8
REMARK VINA RESULT:      -3.5      2.141      2.868
REMARK  Name = 
REMARK  0 active torsions:
REMARK  status: ('A' for Active; 'I' for Inactive)
REMARK                            x       y       z     vdW  Elec       q    Type
REMARK                         _______ _______ _______ _____ _____    ______ ____
ROOT
ATOM      1  O   UNL     1      10.100  -3.041  23.885  0.00  0.00    -0.275 OA
ATOM      2  C   UNL     1       9.958  -1.838  23.681  0.00  0.00    +0.222 C 
ATOM      3  N   UNL     1       9.704  -1.351  22.425  0.00  0.00    -0.240 N 
ATOM      4  H   UNL     1       9.593  -2.028  21.684  0.00  0.00    +0.159 HD
ATOM      5  C   UNL     1       9.568  -0.040  22.075  0.00  0.00    +0.306 C 
ATOM      6  O   UNL     1       9.251   0.310  20.945  0.00  0.00    -0.252 OA
ATOM      7  N   UNL     1       9.814   0.868  23.061  0.00  0.00    -0.299 N 
ATOM      8  H   UNL     1       9.831   1.831  22.744  0.00  0.00    +0.150 HD
ATOM      9  C   UNL     1      10.500   0.488  24.268  0.00  0.00    +0.115 C 
ATOM     10  C   UNL     1       9.966  -0.825  24.794  0.00  0.00    +0.115 C 
ENDROOT
TORSDOF 0
ENDMDL
MODEL 9
REMARK VINA RESULT:      -3.5      6.739      7.808
REMARK  Name = 
REMARK  0 active torsions:
REMARK  status: ('A' for Active; 'I' for Inactive)
REMARK                            x       y       z     vdW  Elec       q    Type
REMARK                         _______ _______ _______ _____ _____    ______ ____
ROOT
ATOM      1  O   UNL     1       8.212  -3.538  23.587  0.00  0.00    -0.275 OA
ATOM      2  C   UNL     1       7.379  -4.383  23.268  0.00  0.00    +0.222 C 
ATOM      3  N   UNL     1       7.061  -4.614  21.954  0.00  0.00    -0.240 N 
ATOM      4  H   UNL     1       7.576  -4.092  21.260  0.00  0.00    +0.159 HD
ATOM      5  C   UNL     1       6.130  -5.493  21.486  0.00  0.00    +0.306 C 
ATOM      6  O   UNL     1       5.969  -5.708  20.292  0.00  0.00    -0.252 OA
ATOM      7  N   UNL     1       5.377  -6.120  22.433  0.00  0.00    -0.299 N 
ATOM      8  H   UNL     1       4.610  -6.668  22.057  0.00  0.00    +0.150 HD
ATOM      9  C   UNL     1       5.327  -5.635  23.787  0.00  0.00    +0.115 C 
ATOM     10  C   UNL     1       6.712  -5.279  24.276  0.00  0.00    +0.115 C 
ENDROOT
TORSDOF 0
ENDMDL
