MODEL 1
REMARK VINA RESULT:      -4.6      0.000      0.000
REMARK  Name = 
REMARK  9 active torsions:
REMARK  status: ('A' for Active; 'I' for Inactive)
REMARK    1  A    between atoms: N_1  and  CA_2
REMARK    2  A    between atoms: CA_2  and  C_4
REMARK    3  A    between atoms: CA_2  and  C_12
REMARK    4  A    between atoms: C_4  and  C_5
REMARK    5  A    between atoms: C_5  and  C_6
REMARK    6  A    between atoms: C_6  and  C_7
REMARK    7  A    between atoms: C_7  and  C_9
REMARK    8  A    between atoms: C_9  and  O_10
REMARK    9  A    between atoms: C_12  and  O_13
REMARK                            x       y       z     vdW  Elec       q    Type
REMARK                         _______ _______ _______ _____ _____    ______ ____
ROOT
ATOM      1  C   UNL     1       6.996  -4.021  25.744  0.00  0.00    +0.030 C 
ENDROOT
BRANCH   1   2
ATOM      2  CA  UNL     1       7.916  -5.249  25.815  0.00  0.00    +0.161 C 
BRANCH   2   3
ATOM      3  N   UNL     1       8.141  -5.704  27.221  0.00  0.00    -0.318 NA
ATOM      4  H1  UNL     1       9.151  -5.748  27.393  0.00  0.00    +0.119 HD
ATOM      5  H2  UNL     1       7.815  -4.960  27.848  0.00  0.00    +0.119 HD
ENDBRANCH   2   3
BRANCH   2   6
ATOM      6  C   UNL     1       9.284  -4.933  25.184  0.00  0.00    +0.322 C 
ATOM      7  OXT UNL     1       9.483  -4.110  24.307  0.00  0.00    -0.249 OA
BRANCH   6   8
ATOM      8  O   UNL     1      10.262  -5.709  25.723  0.00  0.00    -0.480 OA
ATOM      9  H   UNL     1       9.953  -5.921  26.640  0.00  0.00    +0.295 HD
ENDBRANCH   6   8
ENDBRANCH   2   6
ENDBRANCH   1   2
BRANCH   1  10
ATOM     10  C   UNL     1       5.746  -4.273  24.895  0.00  0.00    +0.007 C 
BRANCH  10  11
ATOM     11  C   UNL     1       5.915  -5.470  23.946  0.00  0.00    +0.042 C 
BRANCH  11  12
ATOM     12  C   UNL     1       6.509  -5.146  22.595  0.00  0.00    +0.029 C 
ATOM     13  C   UNL     1       7.063  -6.045  21.759  0.00  0.00    +0.019 C 
BRANCH  12  14
ATOM     14  C   UNL     1       6.439  -3.752  22.058  0.00  0.00    +0.332 C 
ATOM     15  O   UNL     1       5.446  -3.282  21.524  0.00  0.00    -0.246 OA
BRANCH  14  16
ATOM     16  O   UNL     1       7.569  -3.036  22.206  0.00  0.00    -0.477 OA
ATOM     17  H   UNL     1       7.465  -2.095  22.424  0.00  0.00    +0.295 HD
ENDBRANCH  14  16
ENDBRANCH  12  14
ENDBRANCH  11  12
ENDBRANCH  10  11
ENDBRANCH   1  10
TORSDOF 9
ENDMDL
MODEL 2
REMARK VINA RESULT:      -4.5      3.433      4.274
REMARK  Name = 
REMARK  9 active torsions:
REMARK  status: ('A' for Active; 'I' for Inactive)
REMARK    1  A    between atoms: N_1  and  CA_2
REMARK    2  A    between atoms: CA_2  and  C_4
REMARK    3  A    between atoms: CA_2  and  C_12
REMARK    4  A    between atoms: C_4  and  C_5
REMARK    5  A    between atoms: C_5  and  C_6
REMARK    6  A    between atoms: C_6  and  C_7
REMARK    7  A    between atoms: C_7  and  C_9
REMARK    8  A    between atoms: C_9  and  O_10
REMARK    9  A    between atoms: C_12  and  O_13
REMARK                            x       y       z     vdW  Elec       q    Type
REMARK                         _______ _______ _______ _____ _____    ______ ____
ROOT
ATOM      1  C   UNL     1       8.283  -4.205  24.186  0.00  0.00    +0.030 C 
ENDROOT
BRANCH   1   2
ATOM      2  CA  UNL     1       9.099  -4.527  25.447  0.00  0.00    +0.161 C 
BRANCH   2   3
ATOM      3  N   UNL     1       9.944  -5.748  25.276  0.00  0.00    -0.318 NA
ATOM      4  H1  UNL     1      10.894  -5.456  25.026  0.00  0.00    +0.119 HD
ATOM      5  H2  UNL     1      10.052  -6.187  26.197  0.00  0.00    +0.119 HD
ENDBRANCH   2   3
BRANCH   2   6
ATOM      6  C   UNL     1       8.164  -4.750  26.650  0.00  0.00    +0.322 C 
ATOM      7  OXT UNL     1       7.502  -3.885  27.199  0.00  0.00    -0.249 OA
BRANCH   6   8
ATOM      8  O   UNL     1       8.176  -6.051  27.043  0.00  0.00    -0.480 OA
ATOM      9  H   UNL     1       9.011  -6.432  26.670  0.00  0.00    +0.295 HD
ENDBRANCH   6   8
ENDBRANCH   2   6
ENDBRANCH   1   2
BRANCH   1  10
ATOM     10  C   UNL     1       8.406  -2.737  23.768  0.00  0.00    +0.007 C 
BRANCH  10  11
ATOM     11  C   UNL     1       9.869  -2.279  23.660  0.00  0.00    +0.042 C 
BRANCH  11  12
ATOM     12  C   UNL     1      10.073  -0.787  23.536  0.00  0.00    +0.029 C 
ATOM     13  C   UNL     1      10.391   0.037  24.554  0.00  0.00    +0.019 C 
BRANCH  12  14
ATOM     14  C   UNL     1      10.008  -0.129  22.195  0.00  0.00    +0.332 C 
ATOM     15  O   UNL     1      10.083   1.080  22.030  0.00  0.00    -0.246 OA
BRANCH  14  16
ATOM     16  O   UNL     1       9.856  -0.976  21.160  0.00  0.00    -0.477 OA
ATOM     17  H   UNL     1       8.951  -1.108  20.833  0.00  0.00    +0.295 HD
ENDBRANCH  14  16
ENDBRANCH  12  14
ENDBRANCH  11  12
ENDBRANCH  10  11
ENDBRANCH   1  10
TORSDOF 9
ENDMDL
MODEL 3
REMARK VINA RESULT:      -4.5      3.080      3.972
REMARK  Name = 
REMARK  9 active torsions:
REMARK  status: ('A' for Active; 'I' for Inactive)
REMARK    1  A    between atoms: N_1  and  CA_2
REMARK    2  A    between atoms: CA_2  and  C_4
REMARK    3  A    between atoms: CA_2  and  C_12
REMARK    4  A    between atoms: C_4  and  C_5
REMARK    5  A    between atoms: C_5  and  C_6
REMARK    6  A    between atoms: C_6  and  C_7
REMARK    7  A    between atoms: C_7  and  C_9
REMARK    8  A    between atoms: C_9  and  O_10
REMARK    9  A    between atoms: C_12  and  O_13
REMARK                            x       y       z     vdW  Elec       q    Type
REMARK                         _______ _______ _______ _____ _____    ______ ____
ROOT
ATOM      1  C   UNL     1       8.667  -3.272  26.250  0.00  0.00    +0.030 C 
ENDROOT
BRANCH   1   2
ATOM      2  CA  UNL     1       8.129  -4.683  25.971  0.00  0.00    +0.161 C 
BRANCH   2   3
ATOM      3  N   UNL     1       8.125  -5.538  27.198  0.00  0.00    -0.318 NA
ATOM      4  H1  UNL     1       9.093  -5.658  27.515  0.00  0.00    +0.119 HD
ATOM      5  H2  UNL     1       7.680  -5.003  27.952  0.00  0.00    +0.119 HD
ENDBRANCH   2   3
BRANCH   2   6
ATOM      6  C   UNL     1       8.984  -5.382  24.898  0.00  0.00    +0.322 C 
ATOM      7  OXT UNL     1       8.616  -5.647  23.766  0.00  0.00    -0.249 OA
BRANCH   6   8
ATOM      8  O   UNL     1      10.218  -5.688  25.378  0.00  0.00    -0.480 OA
ATOM      9  H   UNL     1      10.059  -6.129  26.251  0.00  0.00    +0.295 HD
ENDBRANCH   6   8
ENDBRANCH   2   6
ENDBRANCH   1   2
BRANCH   1  10
ATOM     10  C   UNL     1       8.478  -2.327  25.059  0.00  0.00    +0.007 C 
BRANCH  10  11
ATOM     11  C   UNL     1       9.761  -2.166  24.230  0.00  0.00    +0.042 C 
BRANCH  11  12
ATOM     12  C   UNL     1      10.043  -0.765  23.738  0.00  0.00    +0.029 C 
ATOM     13  C   UNL     1      10.400   0.272  24.520  0.00  0.00    +0.019 C 
BRANCH  12  14
ATOM     14  C   UNL     1      10.016  -0.464  22.273  0.00  0.00    +0.332 C 
ATOM     15  O   UNL     1       9.887   0.662  21.817  0.00  0.00    -0.246 OA
BRANCH  14  16
ATOM     16  O   UNL     1      10.145  -1.540  21.476  0.00  0.00    -0.477 OA
ATOM     17  H   UNL     1      11.006  -1.990  21.486  0.00  0.00    +0.295 HD
ENDBRANCH  14  16
ENDBRANCH  12  14
ENDBRANCH  11  12
ENDBRANCH  10  11
ENDBRANCH   1  10
TORSDOF 9
ENDMDL
MODEL 4
REMARK VINA RESULT:      -4.5      4.291      5.754
REMARK  Name = 
REMARK  9 active torsions:
REMARK  status: ('A' for Active; 'I' for Inactive)
REMARK    1  A    between atoms: N_1  and  CA_2
REMARK    2  A    between atoms: CA_2  and  C_4
REMARK    3  A    between atoms: CA_2  and  C_12
REMARK    4  A    between atoms: C_4  and  C_5
REMARK    5  A    between atoms: C_5  and  C_6
REMARK    6  A    between atoms: C_6  and  C_7
REMARK    7  A    between atoms: C_7  and  C_9
REMARK    8  A    between atoms: C_9  and  O_10
REMARK    9  A    between atoms: C_12  and  O_13
REMARK                            x       y       z     vdW  Elec       q    Type
REMARK                         _______ _______ _______ _____ _____    ______ ____
ROOT
ATOM      1  C   UNL     1      10.097  -0.769  23.852  0.00  0.00    +0.030 C 
ENDROOT
BRANCH   1   2
ATOM      2  CA  UNL     1       9.501   0.004  22.667  0.00  0.00    +0.161 C 
BRANCH   2   3
ATOM      3  N   UNL     1       9.803  -0.650  21.357  0.00  0.00    -0.318 NA
ATOM      4  H1  UNL     1       9.136  -1.416  21.213  0.00  0.00    +0.119 HD
ATOM      5  H2  UNL     1       9.579   0.019  20.612  0.00  0.00    +0.119 HD
ENDBRANCH   2   3
BRANCH   2   6
ATOM      6  C   UNL     1      10.053   1.441  22.629  0.00  0.00    +0.322 C 
ATOM      7  OXT UNL     1      10.629   1.999  23.548  0.00  0.00    -0.249 OA
BRANCH   6   8
ATOM      8  O   UNL     1       9.806   2.028  21.429  0.00  0.00    -0.480 OA
ATOM      9  H   UNL     1       9.523   1.293  20.829  0.00  0.00    +0.295 HD
ENDBRANCH   6   8
ENDBRANCH   2   6
ENDBRANCH   1   2
BRANCH   1  10
ATOM     10  C   UNL     1       9.992  -2.287  23.675  0.00  0.00    +0.007 C 
BRANCH  10  11
ATOM     11  C   UNL     1       8.609  -2.828  24.069  0.00  0.00    +0.042 C 
BRANCH  11  12
ATOM     12  C   UNL     1       8.562  -4.298  24.412  0.00  0.00    +0.029 C 
ATOM     13  C   UNL     1       7.933  -5.242  23.685  0.00  0.00    +0.019 C 
BRANCH  12  14
ATOM     14  C   UNL     1       9.315  -4.818  25.595  0.00  0.00    +0.332 C 
ATOM     15  O   UNL     1       8.978  -4.620  26.753  0.00  0.00    -0.246 OA
BRANCH  14  16
ATOM     16  O   UNL     1      10.414  -5.533  25.290  0.00  0.00    -0.477 OA
ATOM     17  H   UNL     1      10.339  -6.155  24.548  0.00  0.00    +0.295 HD
ENDBRANCH  14  16
ENDBRANCH  12  14
ENDBRANCH  11  12
ENDBRANCH  10  11
ENDBRANCH   1  10
TORSDOF 9
ENDMDL
MODEL 5
REMARK VINA RESULT:      -4.5      4.823      5.857
REMARK  Name = 
REMARK  9 active torsions:
REMARK  status: ('A' for Active; 'I' for Inactive)
REMARK    1  A    between atoms: N_1  and  CA_2
REMARK    2  A    between atoms: CA_2  and  C_4
REMARK    3  A    between atoms: CA_2  and  C_12
REMARK    4  A    between atoms: C_4  and  C_5
REMARK    5  A    between atoms: C_5  and  C_6
REMARK    6  A    between atoms: C_6  and  C_7
REMARK    7  A    between atoms: C_7  and  C_9
REMARK    8  A    between atoms: C_9  and  O_10
REMARK    9  A    between atoms: C_12  and  O_13
REMARK                            x       y       z     vdW  Elec       q    Type
REMARK                         _______ _______ _______ _____ _____    ______ ____
ROOT
ATOM      1  C   UNL     1       9.589  -1.241  24.714  0.00  0.00    +0.030 C 
ENDROOT
BRANCH   1   2
ATOM      2  CA  UNL     1       9.783  -2.299  23.617  0.00  0.00    +0.161 C 
BRANCH   2   3
ATOM      3  N   UNL     1      10.620  -1.794  22.488  0.00  0.00    -0.318 NA
ATOM      4  H1  UNL     1      10.466  -0.785  22.392  0.00  0.00    +0.119 HD
ATOM      5  H2  UNL     1      11.605  -1.869  22.768  0.00  0.00    +0.119 HD
ENDBRANCH   2   3
BRANCH   2   6
ATOM      6  C   UNL     1       8.421  -2.740  23.050  0.00  0.00    +0.322 C 
ATOM      7  OXT UNL     1       7.951  -3.862  23.137  0.00  0.00    -0.249 OA
BRANCH   6   8
ATOM      8  O   UNL     1       7.799  -1.711  22.416  0.00  0.00    -0.480 OA
ATOM      9  H   UNL     1       7.628  -2.034  21.495  0.00  0.00    +0.295 HD
ENDBRANCH   6   8
ENDBRANCH   2   6
ENDBRANCH   1   2
BRANCH   1  10
ATOM     10  C   UNL     1      10.454   0.003  24.488  0.00  0.00    +0.007 C 
BRANCH  10  11
ATOM     11  C   UNL     1       9.632   1.301  24.525  0.00  0.00    +0.042 C 
BRANCH  11  12
ATOM     12  C   UNL     1       8.834   1.599  23.277  0.00  0.00    +0.029 C 
ATOM     13  C   UNL     1       7.579   2.087  23.260  0.00  0.00    +0.019 C 
BRANCH  12  14
ATOM     14  C   UNL     1       9.459   1.431  21.928  0.00  0.00    +0.332 C 
ATOM     15  O   UNL     1       9.210   0.499  21.179  0.00  0.00    -0.246 OA
BRANCH  14  16
ATOM     16  O   UNL     1      10.331   2.398  21.590  0.00  0.00    -0.477 OA
ATOM     17  H   UNL     1       9.965   3.182  21.149  0.00  0.00    +0.295 HD
ENDBRANCH  14  16
ENDBRANCH  12  14
ENDBRANCH  11  12
ENDBRANCH  10  11
ENDBRANCH   1  10
TORSDOF 9
ENDMDL
MODEL 6
REMARK VINA RESULT:      -4.5      5.579      6.755
REMARK  Name = 
REMARK  9 active torsions:
REMARK  status: ('A' for Active; 'I' for Inactive)
REMARK    1  A    between atoms: N_1  and  CA_2
REMARK    2  A    between atoms: CA_2  and  C_4
REMARK    3  A    between atoms: CA_2  and  C_12
REMARK    4  A    between atoms: C_4  and  C_5
REMARK    5  A    between atoms: C_5  and  C_6
REMARK    6  A    between atoms: C_6  and  C_7
REMARK    7  A    between atoms: C_7  and  C_9
REMARK    8  A    between atoms: C_9  and  O_10
REMARK    9  A    between atoms: C_12  and  O_13
REMARK                            x       y       z     vdW  Elec       q    Type
REMARK                         _______ _______ _______ _____ _____    ______ ____
ROOT
ATOM      1  C   UNL     1       9.738   1.863  24.403  0.00  0.00    +0.030 C 
ENDROOT
BRANCH   1   2
ATOM      2  CA  UNL     1      10.113   2.180  22.948  0.00  0.00    +0.161 C 
BRANCH   2   3
ATOM      3  N   UNL     1      10.856   3.471  22.825  0.00  0.00    -0.318 NA
ATOM      4  H1  UNL     1      10.933   3.710  21.831  0.00  0.00    +0.119 HD
ATOM      5  H2  UNL     1      10.264   4.213  23.215  0.00  0.00    +0.119 HD
ENDBRANCH   2   3
BRANCH   2   6
ATOM      6  C   UNL     1       8.849   2.264  22.073  0.00  0.00    +0.322 C 
ATOM      7  OXT UNL     1       7.880   2.970  22.299  0.00  0.00    -0.249 OA
BRANCH   6   8
ATOM      8  O   UNL     1       8.938   1.429  21.003  0.00  0.00    -0.480 OA
ATOM      9  H   UNL     1       8.045   1.009  20.922  0.00  0.00    +0.295 HD
ENDBRANCH   6   8
ENDBRANCH   2   6
ENDBRANCH   1   2
BRANCH   1  10
ATOM     10  C   UNL     1      10.179   0.460  24.830  0.00  0.00    +0.007 C 
BRANCH  10  11
ATOM     11  C   UNL     1       9.015  -0.543  24.839  0.00  0.00    +0.042 C 
BRANCH  11  12
ATOM     12  C   UNL     1       8.683  -1.162  23.501  0.00  0.00    +0.029 C 
ATOM     13  C   UNL     1       7.454  -1.201  22.951  0.00  0.00    +0.019 C 
BRANCH  12  14
ATOM     14  C   UNL     1       9.772  -1.721  22.641  0.00  0.00    +0.332 C 
ATOM     15  O   UNL     1      10.575  -2.558  23.025  0.00  0.00    -0.246 OA
BRANCH  14  16
ATOM     16  O   UNL     1       9.808  -1.227  21.390  0.00  0.00    -0.477 OA
ATOM     17  H   UNL     1      10.323  -0.415  21.255  0.00  0.00    +0.295 HD
ENDBRANCH  14  16
ENDBRANCH  12  14
ENDBRANCH  11  12
ENDBRANCH  10  11
ENDBRANCH   1  10
TORSDOF 9
ENDMDL
MODEL 7
REMARK VINA RESULT:      -4.4      5.329      6.418
REMARK  Name = 
REMARK  9 active torsions:
REMARK  status: ('A' for Active; 'I' for Inactive)
REMARK    1  A    between atoms: N_1  and  CA_2
REMARK    2  A    between atoms: CA_2  and  C_4
REMARK    3  A    between atoms: CA_2  and  C_12
REMARK    4  A    between atoms: C_4  and  C_5
REMARK    5  A    between atoms: C_5  and  C_6
REMARK    6  A    between atoms: C_6  and  C_7
REMARK    7  A    between atoms: C_7  and  C_9
REMARK    8  A    between atoms: C_9  and  O_10
REMARK    9  A    between atoms: C_12  and  O_13
REMARK                            x       y       z     vdW  Elec       q    Type
REMARK                         _______ _______ _______ _____ _____    ______ ____
ROOT
ATOM      1  C   UNL     1       7.876  -0.892  23.796  0.00  0.00    +0.030 C 
ENDROOT
BRANCH   1   2
ATOM      2  CA  UNL     1       8.125  -1.681  22.502  0.00  0.00    +0.161 C 
BRANCH   2   3
ATOM      3  N   UNL     1       7.931  -3.151  22.691  0.00  0.00    -0.318 NA
ATOM      4  H1  UNL     1       8.832  -3.569  22.945  0.00  0.00    +0.119 HD
ATOM      5  H2  UNL     1       7.349  -3.286  23.525  0.00  0.00    +0.119 HD
ENDBRANCH   2   3
BRANCH   2   6
ATOM      6  C   UNL     1       9.559  -1.443  21.994  0.00  0.00    +0.322 C 
ATOM      7  OXT UNL     1      10.567  -1.940  22.470  0.00  0.00    -0.249 OA
BRANCH   6   8
ATOM      8  O   UNL     1       9.569  -0.585  20.940  0.00  0.00    -0.480 OA
ATOM      9  H   UNL     1      10.410  -0.069  21.029  0.00  0.00    +0.295 HD
ENDBRANCH   6   8
ENDBRANCH   2   6
ENDBRANCH   1   2
BRANCH   1  10
ATOM     10  C   UNL     1       7.738   0.613  23.547  0.00  0.00    +0.007 C 
BRANCH  10  11
ATOM     11  C   UNL     1       8.618   1.446  24.493  0.00  0.00    +0.042 C 
BRANCH  11  12
ATOM     12  C   UNL     1      10.072   1.555  24.097  0.00  0.00    +0.029 C 
ATOM     13  C   UNL     1      11.060   0.762  24.555  0.00  0.00    +0.019 C 
BRANCH  12  14
ATOM     14  C   UNL     1      10.496   2.550  23.064  0.00  0.00    +0.332 C 
ATOM     15  O   UNL     1      11.050   3.607  23.330  0.00  0.00    -0.246 OA
BRANCH  14  16
ATOM     16  O   UNL     1      10.220   2.196  21.796  0.00  0.00    -0.477 OA
ATOM     17  H   UNL     1      10.480   1.299  21.527  0.00  0.00    +0.295 HD
ENDBRANCH  14  16
ENDBRANCH  12  14
ENDBRANCH  11  12
ENDBRANCH  10  11
ENDBRANCH   1  10
TORSDOF 9
ENDMDL
MODEL 8
REMARK VINA RESULT:      -4.4      4.966      5.811
REMARK  Name = 
REMARK  9 active torsions:
REMARK  status: ('A' for Active; 'I' for Inactive)
REMARK    1  A    between atoms: N_1  and  CA_2
REMARK    2  A    between atoms: CA_2  and  C_4
REMARK    3  A    between atoms: CA_2  and  C_12
REMARK    4  A    between atoms: C_4  and  C_5
REMARK    5  A    between atoms: C_5  and  C_6
REMARK    6  A    between atoms: C_6  and  C_7
REMARK    7  A    between atoms: C_7  and  C_9
REMARK    8  A    between atoms: C_9  and  O_10
REMARK    9  A    between atoms: C_12  and  O_13
REMARK                            x       y       z     vdW  Elec       q    Type
REMARK                         _______ _______ _______ _____ _____    ______ ____
ROOT
ATOM      1  C   UNL     1       9.007  -0.975  25.479  0.00  0.00    +0.030 C 
ENDROOT
BRANCH   1   2
ATOM      2  CA  UNL     1       8.666  -1.714  24.177  0.00  0.00    +0.161 C 
BRANCH   2   3
ATOM      3  N   UNL     1       7.352  -2.422  24.259  0.00  0.00    -0.318 NA
ATOM      4  H1  UNL     1       7.288  -3.084  23.478  0.00  0.00    +0.119 HD
ATOM      5  H2  UNL     1       7.369  -3.021  25.091  0.00  0.00    +0.119 HD
ENDBRANCH   2   3
BRANCH   2   6
ATOM      6  C   UNL     1       9.754  -2.751  23.846  0.00  0.00    +0.322 C 
ATOM      7  OXT UNL     1       9.917  -3.812  24.425  0.00  0.00    -0.249 OA
BRANCH   6   8
ATOM      8  O   UNL     1      10.538  -2.327  22.819  0.00  0.00    -0.480 OA
ATOM      9  H   UNL     1       9.963  -1.726  22.281  0.00  0.00    +0.295 HD
ENDBRANCH   6   8
ENDBRANCH   2   6
ENDBRANCH   1   2
BRANCH   1  10
ATOM     10  C   UNL     1       9.199   0.530  25.266  0.00  0.00    +0.007 C 
BRANCH  10  11
ATOM     11  C   UNL     1      10.512   0.856  24.536  0.00  0.00    +0.042 C 
BRANCH  11  12
ATOM     12  C   UNL     1      10.388   1.817  23.377  0.00  0.00    +0.029 C 
ATOM     13  C   UNL     1      10.818   3.093  23.382  0.00  0.00    +0.019 C 
BRANCH  12  14
ATOM     14  C   UNL     1       9.825   1.351  22.072  0.00  0.00    +0.332 C 
ATOM     15  O   UNL     1       9.983   0.223  21.631  0.00  0.00    -0.246 OA
BRANCH  14  16
ATOM     16  O   UNL     1       9.116   2.280  21.404  0.00  0.00    -0.477 OA
ATOM     17  H   UNL     1       9.530   3.152  21.298  0.00  0.00    +0.295 HD
ENDBRANCH  14  16
ENDBRANCH  12  14
ENDBRANCH  11  12
ENDBRANCH  10  11
ENDBRANCH   1  10
TORSDOF 9
ENDMDL
MODEL 9
REMARK VINA RESULT:      -4.4      4.015      4.776
REMARK  Name = 
REMARK  9 active torsions:
REMARK  status: ('A' for Active; 'I' for Inactive)
REMARK    1  A    between atoms: N_1  and  CA_2
REMARK    2  A    between atoms: CA_2  and  C_4
REMARK    3  A    between atoms: CA_2  and  C_12
REMARK    4  A    between atoms: C_4  and  C_5
REMARK    5  A    between atoms: C_5  and  C_6
REMARK    6  A    between atoms: C_6  and  C_7
REMARK    7  A    between atoms: C_7  and  C_9
REMARK    8  A    between atoms: C_9  and  O_10
REMARK    9  A    between atoms: C_12  and  O_13
REMARK                            x       y       z     vdW  Elec       q    Type
REMARK                         _______ _______ _______ _____ _____    ______ ____
ROOT
ATOM      1  C   UNL     1       9.572  -2.863  24.285  0.00  0.00    +0.030 C 
ENDROOT
BRANCH   1   2
ATOM      2  CA  UNL     1       8.778  -4.151  24.550  0.00  0.00    +0.161 C 
BRANCH   2   3
ATOM      3  N   UNL     1       7.307  -3.900  24.633  0.00  0.00    -0.318 NA
ATOM      4  H1  UNL     1       6.967  -4.248  25.536  0.00  0.00    +0.119 HD
ATOM      5  H2  UNL     1       7.164  -2.886  24.686  0.00  0.00    +0.119 HD
ENDBRANCH   2   3
BRANCH   2   6
ATOM      6  C   UNL     1       9.234  -4.801  25.869  0.00  0.00    +0.322 C 
ATOM      7  OXT UNL     1       8.676  -4.675  26.947  0.00  0.00    -0.249 OA
BRANCH   6   8
ATOM      8  O   UNL     1      10.362  -5.536  25.688  0.00  0.00    -0.480 OA
ATOM      9  H   UNL     1      10.874  -5.064  24.983  0.00  0.00    +0.295 HD
ENDBRANCH   6   8
ENDBRANCH   2   6
ENDBRANCH   1   2
BRANCH   1  10
ATOM     10  C   UNL     1       9.126  -2.152  23.004  0.00  0.00    +0.007 C 
BRANCH  10  11
ATOM     11  C   UNL     1      10.235  -1.275  22.404  0.00  0.00    +0.042 C 
BRANCH  11  12
ATOM     12  C   UNL     1      10.188   0.185  22.791  0.00  0.00    +0.029 C 
ATOM     13  C   UNL     1      10.675   0.698  23.937  0.00  0.00    +0.019 C 
BRANCH  12  14
ATOM     14  C   UNL     1       9.639   1.197  21.836  0.00  0.00    +0.332 C 
ATOM     15  O   UNL     1       8.613   1.033  21.192  0.00  0.00    -0.246 OA
BRANCH  14  16
ATOM     16  O   UNL     1      10.367   2.324  21.733  0.00  0.00    -0.477 OA
ATOM     17  H   UNL     1      10.279   2.827  20.907  0.00  0.00    +0.295 HD
ENDBRANCH  14  16
ENDBRANCH  12  14
ENDBRANCH  11  12
ENDBRANCH  10  11
ENDBRANCH   1  10
TORSDOF 9
ENDMDL
