MODEL 1
REMARK VINA RESULT:      -8.3      0.000      0.000
REMARK  Name = 
REMARK  5 active torsions:
REMARK  status: ('A' for Active; 'I' for Inactive)
REMARK    1  A    between atoms: C_2  and  N_3
REMARK    2  A    between atoms: C_8  and  C_10
REMARK    3  A    between atoms: C_23  and  C_25
REMARK    4  A    between atoms: C_29  and  S_31
REMARK    5  A    between atoms: S_31  and  C_32
REMARK                            x       y       z     vdW  Elec       q    Type
REMARK                         _______ _______ _______ _____ _____    ______ ____
ROOT
ATOM      1  C   UNL     1       9.243  -0.415  22.015  0.00  0.00    +0.076 C 
ATOM      2  C   UNL     1      10.094   0.681  22.734  0.00  0.00    +0.042 C 
ATOM      3  C   UNL     1      10.697   0.070  24.023  0.00  0.00    +0.029 C 
ATOM      4  C   UNL     1       9.627  -0.517  24.948  0.00  0.00    +0.107 C 
ATOM      5  N   UNL     1       8.806  -1.461  24.200  0.00  0.00    -0.314 N 
ATOM      6  C   UNL     1       8.412  -2.631  24.819  0.00  0.00    +0.125 A 
ATOM      7  C   UNL     1       7.208  -3.230  24.515  0.00  0.00    +0.072 A 
ATOM      8  C   UNL     1       6.939  -4.493  25.014  0.00  0.00    +0.076 A 
ATOM      9  N   UNL     1       7.804  -5.127  25.824  0.00  0.00    -0.235 NA
ATOM     10  C   UNL     1       8.920  -4.448  26.120  0.00  0.00    +0.223 A 
ATOM     11  N   UNL     1       9.263  -3.232  25.665  0.00  0.00    -0.221 NA
ATOM     12  C   UNL     1       8.165  -0.973  22.973  0.00  0.00    +0.125 C 
ENDROOT
BRANCH   2  13
ATOM     13  C   UNL     1       9.369   2.028  22.882  0.00  0.00    -0.005 A 
ATOM     14  C   UNL     1       9.945   3.174  23.462  0.00  0.00    +0.130 A 
ATOM     15  F   UNL     1      11.182   3.151  23.971  0.00  0.00    -0.205 F 
ATOM     16  C   UNL     1       9.279   4.398  23.523  0.00  0.00    +0.080 A 
ATOM     17  C   UNL     1       8.010   4.508  22.981  0.00  0.00    +0.161 A 
ATOM     18  F   UNL     1       7.377   5.686  23.022  0.00  0.00    -0.202 F 
ATOM     19  C   UNL     1       7.414   3.407  22.385  0.00  0.00    +0.159 A 
ATOM     20  F   UNL     1       6.194   3.516  21.841  0.00  0.00    -0.202 F 
ATOM     21  C   UNL     1       8.080   2.182  22.328  0.00  0.00    +0.048 A 
ENDBRANCH   2  13
BRANCH   8  22
ATOM     22  C   UNL     1       5.735  -5.232  24.581  0.00  0.00    +0.002 A 
ATOM     23  C   UNL     1       4.839  -5.777  25.518  0.00  0.00    +0.037 A 
ATOM     24  C   UNL     1       3.620  -6.325  25.111  0.00  0.00    +0.088 A 
ATOM     25  C   UNL     1       3.273  -6.372  23.762  0.00  0.00    +0.027 A 
ATOM     26  C   UNL     1       4.171  -5.885  22.816  0.00  0.00    +0.002 A 
ATOM     27  C   UNL     1       5.388  -5.321  23.222  0.00  0.00    +0.010 A 
BRANCH  24  28
ATOM     28  S   UNL     1       2.463  -6.846  26.356  0.00  0.00    -0.006 S 
ATOM     29  O   UNL     1       3.131  -6.753  27.641  0.00  0.00    -0.170 OA
ATOM     30  O   UNL     1       1.881  -8.098  25.913  0.00  0.00    -0.170 OA
ATOM     31  C   UNL     1       1.205  -5.599  26.293  0.00  0.00    +0.200 C 
ENDBRANCH  24  28
ENDBRANCH   8  22
BRANCH   1  32
ATOM     32  N   UNL     1      10.080  -1.539  21.528  0.00  0.00    -0.325 NA
ATOM     33  H   UNL     1       9.539  -2.397  21.476  0.00  0.00    +0.119 HD
ATOM     34  H   UNL     1      10.370  -1.319  20.568  0.00  0.00    +0.119 HD
ENDBRANCH   1  32
TORSDOF 4
ENDMDL
MODEL 2
REMARK VINA RESULT:      -8.2      5.997      9.737
REMARK  Name = 
REMARK  5 active torsions:
REMARK  status: ('A' for Active; 'I' for Inactive)
REMARK    1  A    between atoms: C_2  and  N_3
REMARK    2  A    between atoms: C_8  and  C_10
REMARK    3  A    between atoms: C_23  and  C_25
REMARK    4  A    between atoms: C_29  and  S_31
REMARK    5  A    between atoms: S_31  and  C_32
REMARK                            x       y       z     vdW  Elec       q    Type
REMARK                         _______ _______ _______ _____ _____    ______ ____
ROOT
ATOM      1  C   UNL     1       7.280  -4.105  25.199  0.00  0.00    +0.076 C 
ATOM      2  C   UNL     1       6.835  -5.205  24.181  0.00  0.00    +0.042 C 
ATOM      3  C   UNL     1       7.533  -4.933  22.826  0.00  0.00    +0.029 C 
ATOM      4  C   UNL     1       7.254  -3.523  22.297  0.00  0.00    +0.107 C 
ATOM      5  N   UNL     1       7.599  -2.545  23.322  0.00  0.00    -0.314 N 
ATOM      6  C   UNL     1       8.222  -1.374  22.938  0.00  0.00    +0.125 A 
ATOM      7  C   UNL     1       8.014  -0.196  23.622  0.00  0.00    +0.072 A 
ATOM      8  C   UNL     1       8.799   0.905  23.322  0.00  0.00    +0.076 A 
ATOM      9  N   UNL     1       9.727   0.862  22.351  0.00  0.00    -0.235 NA
ATOM     10  C   UNL     1       9.820  -0.301  21.693  0.00  0.00    +0.223 A 
ATOM     11  N   UNL     1       9.111  -1.416  21.933  0.00  0.00    -0.221 NA
ATOM     12  C   UNL     1       6.969  -2.698  24.640  0.00  0.00    +0.125 C 
ENDROOT
BRANCH   2  13
ATOM     13  C   UNL     1       5.316  -5.433  24.142  0.00  0.00    -0.005 A 
ATOM     14  C   UNL     1       4.609  -5.839  22.995  0.00  0.00    +0.130 A 
ATOM     15  F   UNL     1       5.227  -6.018  21.821  0.00  0.00    -0.205 F 
ATOM     16  C   UNL     1       3.238  -6.097  23.012  0.00  0.00    +0.080 A 
ATOM     17  C   UNL     1       2.538  -5.971  24.199  0.00  0.00    +0.161 A 
ATOM     18  F   UNL     1       1.227  -6.236  24.222  0.00  0.00    -0.202 F 
ATOM     19  C   UNL     1       3.201  -5.590  25.356  0.00  0.00    +0.159 A 
ATOM     20  F   UNL     1       2.530  -5.487  26.512  0.00  0.00    -0.202 F 
ATOM     21  C   UNL     1       4.572  -5.329  25.337  0.00  0.00    +0.048 A 
ENDBRANCH   2  13
BRANCH   8  22
ATOM     22  C   UNL     1       8.716   2.132  24.141  0.00  0.00    +0.002 A 
ATOM     23  C   UNL     1       9.422   3.294  23.783  0.00  0.00    +0.037 A 
ATOM     24  C   UNL     1       9.212   4.500  24.458  0.00  0.00    +0.088 A 
ATOM     25  C   UNL     1       8.318   4.573  25.524  0.00  0.00    +0.027 A 
ATOM     26  C   UNL     1       7.649   3.420  25.927  0.00  0.00    +0.002 A 
ATOM     27  C   UNL     1       7.846   2.213  25.241  0.00  0.00    +0.010 A 
BRANCH  24  28
ATOM     28  S   UNL     1      10.011   5.967  23.852  0.00  0.00    -0.006 S 
ATOM     29  O   UNL     1       9.069   6.654  22.988  0.00  0.00    -0.170 OA
ATOM     30  O   UNL     1      11.319   5.579  23.360  0.00  0.00    -0.170 OA
ATOM     31  C   UNL     1      10.237   6.943  25.313  0.00  0.00    +0.200 C 
ENDBRANCH  24  28
ENDBRANCH   8  22
BRANCH   1  32
ATOM     32  N   UNL     1       8.728  -4.189  25.511  0.00  0.00    -0.325 NA
ATOM     33  H   UNL     1       9.271  -4.345  24.667  0.00  0.00    +0.119 HD
ATOM     34  H   UNL     1       9.020  -3.277  25.881  0.00  0.00    +0.119 HD
ENDBRANCH   1  32
TORSDOF 4
ENDMDL
MODEL 3
REMARK VINA RESULT:      -8.2      5.990      9.672
REMARK  Name = 
REMARK  5 active torsions:
REMARK  status: ('A' for Active; 'I' for Inactive)
REMARK    1  A    between atoms: C_2  and  N_3
REMARK    2  A    between atoms: C_8  and  C_10
REMARK    3  A    between atoms: C_23  and  C_25
REMARK    4  A    between atoms: C_29  and  S_31
REMARK    5  A    between atoms: S_31  and  C_32
REMARK                            x       y       z     vdW  Elec       q    Type
REMARK                         _______ _______ _______ _____ _____    ______ ____
ROOT
ATOM      1  C   UNL     1       7.635  -4.226  25.351  0.00  0.00    +0.076 C 
ATOM      2  C   UNL     1       7.079  -5.340  24.406  0.00  0.00    +0.042 C 
ATOM      3  C   UNL     1       7.526  -5.026  22.957  0.00  0.00    +0.029 C 
ATOM      4  C   UNL     1       7.096  -3.628  22.503  0.00  0.00    +0.107 C 
ATOM      5  N   UNL     1       7.560  -2.640  23.470  0.00  0.00    -0.314 N 
ATOM      6  C   UNL     1       8.053  -1.437  23.005  0.00  0.00    +0.125 A 
ATOM      7  C   UNL     1       7.906  -0.275  23.731  0.00  0.00    +0.072 A 
ATOM      8  C   UNL     1       8.576   0.865  23.320  0.00  0.00    +0.076 A 
ATOM      9  N   UNL     1       9.329   0.875  22.207  0.00  0.00    -0.235 NA
ATOM     10  C   UNL     1       9.366  -0.279  21.526  0.00  0.00    +0.223 A 
ATOM     11  N   UNL     1       8.762  -1.429  21.865  0.00  0.00    -0.221 NA
ATOM     12  C   UNL     1       7.168  -2.832  24.872  0.00  0.00    +0.125 C 
ENDROOT
BRANCH   2  13
ATOM     13  C   UNL     1       5.588  -5.644  24.618  0.00  0.00    -0.005 A 
ATOM     14  C   UNL     1       5.048  -6.147  25.816  0.00  0.00    +0.130 A 
ATOM     15  F   UNL     1       5.827  -6.440  26.863  0.00  0.00    -0.205 F 
ATOM     16  C   UNL     1       3.679  -6.351  25.993  0.00  0.00    +0.080 A 
ATOM     17  C   UNL     1       2.807  -6.034  24.967  0.00  0.00    +0.161 A 
ATOM     18  F   UNL     1       1.492  -6.211  25.142  0.00  0.00    -0.202 F 
ATOM     19  C   UNL     1       3.297  -5.519  23.776  0.00  0.00    +0.159 A 
ATOM     20  F   UNL     1       2.453  -5.191  22.788  0.00  0.00    -0.202 F 
ATOM     21  C   UNL     1       4.667  -5.318  23.598  0.00  0.00    +0.048 A 
ENDBRANCH   2  13
BRANCH   8  22
ATOM     22  C   UNL     1       8.573   2.081  24.159  0.00  0.00    +0.002 A 
ATOM     23  C   UNL     1       9.328   3.213  23.802  0.00  0.00    +0.037 A 
ATOM     24  C   UNL     1       9.193   4.416  24.500  0.00  0.00    +0.088 A 
ATOM     25  C   UNL     1       8.328   4.516  25.588  0.00  0.00    +0.027 A 
ATOM     26  C   UNL     1       7.611   3.391  25.989  0.00  0.00    +0.002 A 
ATOM     27  C   UNL     1       7.733   2.187  25.281  0.00  0.00    +0.010 A 
BRANCH  24  28
ATOM     28  S   UNL     1      10.051   5.851  23.898  0.00  0.00    -0.006 S 
ATOM     29  O   UNL     1       9.144   6.566  23.019  0.00  0.00    -0.170 OA
ATOM     30  O   UNL     1      11.350   5.416  23.425  0.00  0.00    -0.170 OA
ATOM     31  C   UNL     1      10.291   6.826  25.358  0.00  0.00    +0.200 C 
ENDBRANCH  24  28
ENDBRANCH   8  22
BRANCH   1  32
ATOM     32  N   UNL     1       9.117  -4.240  25.416  0.00  0.00    -0.325 NA
ATOM     33  H   UNL     1       9.507  -3.425  24.951  0.00  0.00    +0.119 HD
ATOM     34  H   UNL     1       9.387  -4.168  26.405  0.00  0.00    +0.119 HD
ENDBRANCH   1  32
TORSDOF 4
ENDMDL
MODEL 4
REMARK VINA RESULT:      -8.1      5.881      9.516
REMARK  Name = 
REMARK  5 active torsions:
REMARK  status: ('A' for Active; 'I' for Inactive)
REMARK    1  A    between atoms: C_2  and  N_3
REMARK    2  A    between atoms: C_8  and  C_10
REMARK    3  A    between atoms: C_23  and  C_25
REMARK    4  A    between atoms: C_29  and  S_31
REMARK    5  A    between atoms: S_31  and  C_32
REMARK                            x       y       z     vdW  Elec       q    Type
REMARK                         _______ _______ _______ _____ _____    ______ ____
ROOT
ATOM      1  C   UNL     1       7.345  -3.647  25.884  0.00  0.00    +0.076 C 
ATOM      2  C   UNL     1       7.347  -5.104  25.317  0.00  0.00    +0.042 C 
ATOM      3  C   UNL     1       8.232  -5.137  24.048  0.00  0.00    +0.029 C 
ATOM      4  C   UNL     1       7.785  -4.118  22.996  0.00  0.00    +0.107 C 
ATOM      5  N   UNL     1       7.711  -2.795  23.604  0.00  0.00    -0.314 N 
ATOM      6  C   UNL     1       8.147  -1.706  22.877  0.00  0.00    +0.125 A 
ATOM      7  C   UNL     1       7.571  -0.464  23.034  0.00  0.00    +0.072 A 
ATOM      8  C   UNL     1       8.160   0.634  22.429  0.00  0.00    +0.076 A 
ATOM      9  N   UNL     1       9.252   0.508  21.657  0.00  0.00    -0.235 NA
ATOM     10  C   UNL     1       9.710  -0.742  21.505  0.00  0.00    +0.223 A 
ATOM     11  N   UNL     1       9.209  -1.852  22.069  0.00  0.00    -0.221 NA
ATOM     12  C   UNL     1       6.874  -2.649  24.802  0.00  0.00    +0.125 C 
ENDROOT
BRANCH   2  13
ATOM     13  C   UNL     1       5.946  -5.722  25.198  0.00  0.00    -0.005 A 
ATOM     14  C   UNL     1       5.242  -6.294  26.275  0.00  0.00    +0.130 A 
ATOM     15  F   UNL     1       5.781  -6.373  27.497  0.00  0.00    -0.205 F 
ATOM     16  C   UNL     1       3.945  -6.790  26.142  0.00  0.00    +0.080 A 
ATOM     17  C   UNL     1       3.307  -6.707  24.917  0.00  0.00    +0.161 A 
ATOM     18  F   UNL     1       2.056  -7.165  24.793  0.00  0.00    -0.202 F 
ATOM     19  C   UNL     1       3.959  -6.135  23.835  0.00  0.00    +0.159 A 
ATOM     20  F   UNL     1       3.338  -6.034  22.652  0.00  0.00    -0.202 F 
ATOM     21  C   UNL     1       5.259  -5.642  23.967  0.00  0.00    +0.048 A 
ENDBRANCH   2  13
BRANCH   8  22
ATOM     22  C   UNL     1       7.667   1.999  22.706  0.00  0.00    +0.002 A 
ATOM     23  C   UNL     1       8.511   2.979  23.258  0.00  0.00    +0.037 A 
ATOM     24  C   UNL     1       8.096   4.309  23.361  0.00  0.00    +0.088 A 
ATOM     25  C   UNL     1       6.822   4.693  22.947  0.00  0.00    +0.027 A 
ATOM     26  C   UNL     1       5.953   3.726  22.446  0.00  0.00    +0.002 A 
ATOM     27  C   UNL     1       6.373   2.394  22.327  0.00  0.00    +0.010 A 
BRANCH  24  28
ATOM     28  S   UNL     1       9.266   5.527  23.914  0.00  0.00    -0.006 S 
ATOM     29  O   UNL     1       8.936   6.780  23.261  0.00  0.00    -0.170 OA
ATOM     30  O   UNL     1      10.590   4.950  23.783  0.00  0.00    -0.170 OA
ATOM     31  C   UNL     1       8.903   5.689  25.641  0.00  0.00    +0.200 C 
ENDBRANCH  24  28
ENDBRANCH   8  22
BRANCH   1  32
ATOM     32  N   UNL     1       8.688  -3.236  26.365  0.00  0.00    -0.325 NA
ATOM     33  H   UNL     1       9.415  -3.587  25.749  0.00  0.00    +0.119 HD
ATOM     34  H   UNL     1       8.736  -2.211  26.316  0.00  0.00    +0.119 HD
ENDBRANCH   1  32
TORSDOF 4
ENDMDL
MODEL 5
REMARK VINA RESULT:      -8.1      2.013      2.676
REMARK  Name = 
REMARK  5 active torsions:
REMARK  status: ('A' for Active; 'I' for Inactive)
REMARK    1  A    between atoms: C_2  and  N_3
REMARK    2  A    between atoms: C_8  and  C_10
REMARK    3  A    between atoms: C_23  and  C_25
REMARK    4  A    between atoms: C_29  and  S_31
REMARK    5  A    between atoms: S_31  and  C_32
REMARK                            x       y       z     vdW  Elec       q    Type
REMARK                         _______ _______ _______ _____ _____    ______ ____
ROOT
ATOM      1  C   UNL     1       7.756   1.829  21.807  0.00  0.00    +0.076 C 
ATOM      2  C   UNL     1       8.331   2.987  22.686  0.00  0.00    +0.042 C 
ATOM      3  C   UNL     1       9.452   2.413  23.585  0.00  0.00    +0.029 C 
ATOM      4  C   UNL     1       8.972   1.236  24.439  0.00  0.00    +0.107 C 
ATOM      5  N   UNL     1       8.361   0.230  23.578  0.00  0.00    -0.314 N 
ATOM      6  C   UNL     1       8.601  -1.104  23.842  0.00  0.00    +0.125 A 
ATOM      7  C   UNL     1       7.655  -2.068  23.571  0.00  0.00    +0.072 A 
ATOM      8  C   UNL     1       8.005  -3.403  23.674  0.00  0.00    +0.076 A 
ATOM      9  N   UNL     1       9.232  -3.779  24.075  0.00  0.00    -0.235 NA
ATOM     10  C   UNL     1      10.069  -2.779  24.380  0.00  0.00    +0.223 A 
ATOM     11  N   UNL     1       9.814  -1.464  24.291  0.00  0.00    -0.221 NA
ATOM     12  C   UNL     1       7.267   0.667  22.701  0.00  0.00    +0.125 C 
ENDROOT
BRANCH   2  13
ATOM     13  C   UNL     1       7.251   3.829  23.382  0.00  0.00    -0.005 A 
ATOM     14  C   UNL     1       7.472   4.590  24.545  0.00  0.00    +0.130 A 
ATOM     15  F   UNL     1       8.661   4.596  25.159  0.00  0.00    -0.205 F 
ATOM     16  C   UNL     1       6.483   5.393  25.114  0.00  0.00    +0.080 A 
ATOM     17  C   UNL     1       5.239   5.468  24.513  0.00  0.00    +0.161 A 
ATOM     18  F   UNL     1       4.296   6.252  25.047  0.00  0.00    -0.202 F 
ATOM     19  C   UNL     1       4.986   4.748  23.356  0.00  0.00    +0.159 A 
ATOM     20  F   UNL     1       3.789   4.834  22.759  0.00  0.00    -0.202 F 
ATOM     21  C   UNL     1       5.975   3.942  22.788  0.00  0.00    +0.048 A 
ENDBRANCH   2  13
BRANCH   8  22
ATOM     22  C   UNL     1       7.071  -4.461  23.237  0.00  0.00    +0.002 A 
ATOM     23  C   UNL     1       6.184  -5.069  24.143  0.00  0.00    +0.037 A 
ATOM     24  C   UNL     1       5.189  -5.944  23.698  0.00  0.00    +0.088 A 
ATOM     25  C   UNL     1       5.070  -6.259  22.346  0.00  0.00    +0.027 A 
ATOM     26  C   UNL     1       5.973  -5.708  21.440  0.00  0.00    +0.002 A 
ATOM     27  C   UNL     1       6.961  -4.818  21.882  0.00  0.00    +0.010 A 
BRANCH  24  28
ATOM     28  S   UNL     1       3.999  -6.549  24.871  0.00  0.00    -0.006 S 
ATOM     29  O   UNL     1       3.634  -7.895  24.469  0.00  0.00    -0.170 OA
ATOM     30  O   UNL     1       2.986  -5.524  25.032  0.00  0.00    -0.170 OA
ATOM     31  C   UNL     1       4.926  -6.652  26.377  0.00  0.00    +0.200 C 
ENDBRANCH  24  28
ENDBRANCH   8  22
BRANCH   1  32
ATOM     32  N   UNL     1       8.760   1.307  20.848  0.00  0.00    -0.325 NA
ATOM     33  H   UNL     1       9.536   1.956  20.749  0.00  0.00    +0.119 HD
ATOM     34  H   UNL     1       9.152   0.445  21.245  0.00  0.00    +0.119 HD
ENDBRANCH   1  32
TORSDOF 4
ENDMDL
MODEL 6
REMARK VINA RESULT:      -8.0      4.996      8.677
REMARK  Name = 
REMARK  5 active torsions:
REMARK  status: ('A' for Active; 'I' for Inactive)
REMARK    1  A    between atoms: C_2  and  N_3
REMARK    2  A    between atoms: C_8  and  C_10
REMARK    3  A    between atoms: C_23  and  C_25
REMARK    4  A    between atoms: C_29  and  S_31
REMARK    5  A    between atoms: S_31  and  C_32
REMARK                            x       y       z     vdW  Elec       q    Type
REMARK                         _______ _______ _______ _____ _____    ______ ____
ROOT
ATOM      1  C   UNL     1       7.541  -2.319  25.928  0.00  0.00    +0.076 C 
ATOM      2  C   UNL     1       8.091  -3.718  25.499  0.00  0.00    +0.042 C 
ATOM      3  C   UNL     1       9.192  -3.507  24.430  0.00  0.00    +0.029 C 
ATOM      4  C   UNL     1       8.695  -2.698  23.229  0.00  0.00    +0.107 C 
ATOM      5  N   UNL     1       8.108  -1.448  23.697  0.00  0.00    -0.314 N 
ATOM      6  C   UNL     1       8.345  -0.294  22.976  0.00  0.00    +0.125 A 
ATOM      7  C   UNL     1       7.409   0.715  22.914  0.00  0.00    +0.072 A 
ATOM      8  C   UNL     1       7.761   1.926  22.342  0.00  0.00    +0.076 A 
ATOM      9  N   UNL     1       8.978   2.123  21.808  0.00  0.00    -0.235 NA
ATOM     10  C   UNL     1       9.805   1.070  21.854  0.00  0.00    +0.223 A 
ATOM     11  N   UNL     1       9.548  -0.127  22.404  0.00  0.00    -0.221 NA
ATOM     12  C   UNL     1       7.034  -1.538  24.694  0.00  0.00    +0.125 C 
ENDROOT
BRANCH   2  13
ATOM     13  C   UNL     1       6.992  -4.738  25.165  0.00  0.00    -0.005 A 
ATOM     14  C   UNL     1       6.209  -5.398  26.131  0.00  0.00    +0.130 A 
ATOM     15  F   UNL     1       6.405  -5.203  27.440  0.00  0.00    -0.205 F 
ATOM     16  C   UNL     1       5.177  -6.272  25.789  0.00  0.00    +0.080 A 
ATOM     17  C   UNL     1       4.889  -6.494  24.453  0.00  0.00    +0.161 A 
ATOM     18  F   UNL     1       3.887  -7.317  24.124  0.00  0.00    -0.202 F 
ATOM     19  C   UNL     1       5.625  -5.849  23.471  0.00  0.00    +0.159 A 
ATOM     20  F   UNL     1       5.335  -6.045  22.177  0.00  0.00    -0.202 F 
ATOM     21  C   UNL     1       6.660  -4.977  23.814  0.00  0.00    +0.048 A 
ENDBRANCH   2  13
BRANCH   8  22
ATOM     22  C   UNL     1       6.841   3.080  22.401  0.00  0.00    +0.002 A 
ATOM     23  C   UNL     1       5.459   2.901  22.594  0.00  0.00    +0.037 A 
ATOM     24  C   UNL     1       4.618   3.994  22.819  0.00  0.00    +0.088 A 
ATOM     25  C   UNL     1       5.122   5.292  22.828  0.00  0.00    +0.027 A 
ATOM     26  C   UNL     1       6.479   5.494  22.586  0.00  0.00    +0.002 A 
ATOM     27  C   UNL     1       7.328   4.399  22.376  0.00  0.00    +0.010 A 
BRANCH  24  28
ATOM     28  S   UNL     1       2.913   3.688  23.219  0.00  0.00    -0.006 S 
ATOM     29  O   UNL     1       2.298   4.967  23.521  0.00  0.00    -0.170 OA
ATOM     30  O   UNL     1       2.879   2.604  24.183  0.00  0.00    -0.170 OA
ATOM     31  C   UNL     1       2.235   3.093  21.694  0.00  0.00    +0.200 C 
ENDBRANCH  24  28
ENDBRANCH   8  22
BRANCH   1  32
ATOM     32  N   UNL     1       8.570  -1.506  26.621  0.00  0.00    -0.325 NA
ATOM     33  H   UNL     1       8.156  -0.677  27.039  0.00  0.00    +0.119 HD
ATOM     34  H   UNL     1       8.941  -2.067  27.397  0.00  0.00    +0.119 HD
ENDBRANCH   1  32
TORSDOF 4
ENDMDL
MODEL 7
REMARK VINA RESULT:      -7.7      1.429      1.918
REMARK  Name = 
REMARK  5 active torsions:
REMARK  status: ('A' for Active; 'I' for Inactive)
REMARK    1  A    between atoms: C_2  and  N_3
REMARK    2  A    between atoms: C_8  and  C_10
REMARK    3  A    between atoms: C_23  and  C_25
REMARK    4  A    between atoms: C_29  and  S_31
REMARK    5  A    between atoms: S_31  and  C_32
REMARK                            x       y       z     vdW  Elec       q    Type
REMARK                         _______ _______ _______ _____ _____    ______ ____
ROOT
ATOM      1  C   UNL     1       8.424  -0.684  22.333  0.00  0.00    +0.076 C 
ATOM      2  C   UNL     1       9.616   0.268  22.674  0.00  0.00    +0.042 C 
ATOM      3  C   UNL     1      10.482  -0.400  23.770  0.00  0.00    +0.029 C 
ATOM      4  C   UNL     1       9.670  -0.765  25.016  0.00  0.00    +0.107 C 
ATOM      5  N   UNL     1       8.521  -1.573  24.626  0.00  0.00    -0.314 N 
ATOM      6  C   UNL     1       8.158  -2.638  25.426  0.00  0.00    +0.125 A 
ATOM      7  C   UNL     1       6.841  -3.028  25.543  0.00  0.00    +0.072 A 
ATOM      8  C   UNL     1       6.544  -4.209  26.201  0.00  0.00    +0.076 A 
ATOM      9  N   UNL     1       7.506  -4.960  26.765  0.00  0.00    -0.235 NA
ATOM     10  C   UNL     1       8.751  -4.477  26.659  0.00  0.00    +0.223 A 
ATOM     11  N   UNL     1       9.122  -3.353  26.026  0.00  0.00    -0.221 NA
ATOM     12  C   UNL     1       7.619  -1.018  23.609  0.00  0.00    +0.125 C 
ENDROOT
BRANCH   2  13
ATOM     13  C   UNL     1       9.192   1.724  22.922  0.00  0.00    -0.005 A 
ATOM     14  C   UNL     1       9.996   2.681  23.569  0.00  0.00    +0.130 A 
ATOM     15  F   UNL     1      11.200   2.363  24.059  0.00  0.00    -0.205 F 
ATOM     16  C   UNL     1       9.603   4.010  23.721  0.00  0.00    +0.080 A 
ATOM     17  C   UNL     1       8.387   4.423  23.204  0.00  0.00    +0.161 A 
ATOM     18  F   UNL     1       8.017   5.702  23.332  0.00  0.00    -0.202 F 
ATOM     19  C   UNL     1       7.573   3.516  22.544  0.00  0.00    +0.159 A 
ATOM     20  F   UNL     1       6.404   3.916  22.025  0.00  0.00    -0.202 F 
ATOM     21  C   UNL     1       7.965   2.184  22.396  0.00  0.00    +0.048 A 
ENDBRANCH   2  13
BRANCH   8  22
ATOM     22  C   UNL     1       5.165  -4.740  26.207  0.00  0.00    +0.002 A 
ATOM     23  C   UNL     1       4.512  -5.082  25.009  0.00  0.00    +0.037 A 
ATOM     24  C   UNL     1       3.279  -5.739  25.026  0.00  0.00    +0.088 A 
ATOM     25  C   UNL     1       2.651  -6.047  26.231  0.00  0.00    +0.027 A 
ATOM     26  C   UNL     1       3.258  -5.669  27.426  0.00  0.00    +0.002 A 
ATOM     27  C   UNL     1       4.502  -5.024  27.413  0.00  0.00    +0.010 A 
BRANCH  24  28
ATOM     28  S   UNL     1       2.586  -6.289  23.484  0.00  0.00    -0.006 S 
ATOM     29  O   UNL     1       2.140  -7.658  23.668  0.00  0.00    -0.170 OA
ATOM     30  O   UNL     1       3.531  -5.952  22.437  0.00  0.00    -0.170 OA
ATOM     31  C   UNL     1       1.155  -5.262  23.290  0.00  0.00    +0.200 C 
ENDBRANCH  24  28
ENDBRANCH   8  22
BRANCH   1  32
ATOM     32  N   UNL     1       8.885  -1.950  21.711  0.00  0.00    -0.325 NA
ATOM     33  H   UNL     1       8.485  -2.065  20.784  0.00  0.00    +0.119 HD
ATOM     34  H   UNL     1       9.902  -1.882  21.581  0.00  0.00    +0.119 HD
ENDBRANCH   1  32
TORSDOF 4
ENDMDL
MODEL 8
REMARK VINA RESULT:      -7.5      4.965      8.884
REMARK  Name = 
REMARK  5 active torsions:
REMARK  status: ('A' for Active; 'I' for Inactive)
REMARK    1  A    between atoms: C_2  and  N_3
REMARK    2  A    between atoms: C_8  and  C_10
REMARK    3  A    between atoms: C_23  and  C_25
REMARK    4  A    between atoms: C_29  and  S_31
REMARK    5  A    between atoms: S_31  and  C_32
REMARK                            x       y       z     vdW  Elec       q    Type
REMARK                         _______ _______ _______ _____ _____    ______ ____
ROOT
ATOM      1  C   UNL     1       7.605  -3.961  26.285  0.00  0.00    +0.076 C 
ATOM      2  C   UNL     1       7.359  -5.278  25.481  0.00  0.00    +0.042 C 
ATOM      3  C   UNL     1       8.189  -5.221  24.175  0.00  0.00    +0.029 C 
ATOM      4  C   UNL     1       7.877  -3.977  23.338  0.00  0.00    +0.107 C 
ATOM      5  N   UNL     1       8.032  -2.786  24.165  0.00  0.00    -0.314 N 
ATOM      6  C   UNL     1       8.613  -1.663  23.608  0.00  0.00    +0.125 A 
ATOM      7  C   UNL     1       8.246  -0.396  24.006  0.00  0.00    +0.072 A 
ATOM      8  C   UNL     1       8.982   0.689  23.563  0.00  0.00    +0.076 A 
ATOM      9  N   UNL     1      10.017   0.538  22.719  0.00  0.00    -0.235 NA
ATOM     10  C   UNL     1      10.266  -0.720  22.332  0.00  0.00    +0.223 A 
ATOM     11  N   UNL     1       9.613  -1.824  22.728  0.00  0.00    -0.221 NA
ATOM     12  C   UNL     1       7.265  -2.728  25.416  0.00  0.00    +0.125 C 
ENDROOT
BRANCH   2  13
ATOM     13  C   UNL     1       5.874  -5.648  25.339  0.00  0.00    -0.005 A 
ATOM     14  C   UNL     1       5.006  -5.857  26.427  0.00  0.00    +0.130 A 
ATOM     15  F   UNL     1       5.441  -5.785  27.690  0.00  0.00    -0.205 F 
ATOM     16  C   UNL     1       3.648  -6.130  26.260  0.00  0.00    +0.080 A 
ATOM     17  C   UNL     1       3.117  -6.181  24.983  0.00  0.00    +0.161 A 
ATOM     18  F   UNL     1       1.812  -6.424  24.822  0.00  0.00    -0.202 F 
ATOM     19  C   UNL     1       3.935  -5.963  23.885  0.00  0.00    +0.159 A 
ATOM     20  F   UNL     1       3.421  -5.992  22.648  0.00  0.00    -0.202 F 
ATOM     21  C   UNL     1       5.295  -5.694  24.052  0.00  0.00    +0.048 A 
ENDBRANCH   2  13
BRANCH   8  22
ATOM     22  C   UNL     1       8.720   2.043  24.094  0.00  0.00    +0.002 A 
ATOM     23  C   UNL     1       7.847   2.243  25.178  0.00  0.00    +0.037 A 
ATOM     24  C   UNL     1       7.732   3.496  25.786  0.00  0.00    +0.088 A 
ATOM     25  C   UNL     1       8.457   4.587  25.314  0.00  0.00    +0.027 A 
ATOM     26  C   UNL     1       9.287   4.420  24.208  0.00  0.00    +0.002 A 
ATOM     27  C   UNL     1       9.417   3.161  23.606  0.00  0.00    +0.010 A 
BRANCH  24  28
ATOM     28  S   UNL     1       6.737   3.643  27.252  0.00  0.00    -0.006 S 
ATOM     29  O   UNL     1       7.442   4.516  28.172  0.00  0.00    -0.170 OA
ATOM     30  O   UNL     1       6.350   2.304  27.652  0.00  0.00    -0.170 OA
ATOM     31  C   UNL     1       5.290   4.490  26.681  0.00  0.00    +0.200 C 
ENDBRANCH  24  28
ENDBRANCH   8  22
BRANCH   1  32
ATOM     32  N   UNL     1       9.009  -3.847  26.751  0.00  0.00    -0.325 NA
ATOM     33  H   UNL     1       9.367  -4.752  27.043  0.00  0.00    +0.119 HD
ATOM     34  H   UNL     1       9.580  -3.554  25.950  0.00  0.00    +0.119 HD
ENDBRANCH   1  32
TORSDOF 4
ENDMDL
MODEL 9
REMARK VINA RESULT:      -7.4      3.081      4.107
REMARK  Name = 
REMARK  5 active torsions:
REMARK  status: ('A' for Active; 'I' for Inactive)
REMARK    1  A    between atoms: C_2  and  N_3
REMARK    2  A    between atoms: C_8  and  C_10
REMARK    3  A    between atoms: C_23  and  C_25
REMARK    4  A    between atoms: C_29  and  S_31
REMARK    5  A    between atoms: S_31  and  C_32
REMARK                            x       y       z     vdW  Elec       q    Type
REMARK                         _______ _______ _______ _____ _____    ______ ____
ROOT
ATOM      1  C   UNL     1       6.882   2.771  23.775  0.00  0.00    +0.076 C 
ATOM      2  C   UNL     1       7.870   3.925  24.144  0.00  0.00    +0.042 C 
ATOM      3  C   UNL     1       9.301   3.497  23.736  0.00  0.00    +0.029 C 
ATOM      4  C   UNL     1       9.717   2.167  24.369  0.00  0.00    +0.107 C 
ATOM      5  N   UNL     1       8.712   1.153  24.071  0.00  0.00    -0.314 N 
ATOM      6  C   UNL     1       9.132  -0.126  23.763  0.00  0.00    +0.125 A 
ATOM      7  C   UNL     1       8.372  -1.227  24.093  0.00  0.00    +0.072 A 
ATOM      8  C   UNL     1       8.736  -2.469  23.601  0.00  0.00    +0.076 A 
ATOM      9  N   UNL     1       9.837  -2.631  22.847  0.00  0.00    -0.235 NA
ATOM     10  C   UNL     1      10.553  -1.520  22.627  0.00  0.00    +0.223 A 
ATOM     11  N   UNL     1      10.260  -0.281  23.052  0.00  0.00    -0.221 NA
ATOM     12  C   UNL     1       7.323   1.449  24.444  0.00  0.00    +0.125 C 
ENDROOT
BRANCH   2  13
ATOM     13  C   UNL     1       7.690   4.458  25.574  0.00  0.00    -0.005 A 
ATOM     14  C   UNL     1       8.114   5.731  26.000  0.00  0.00    +0.130 A 
ATOM     15  F   UNL     1       8.756   6.565  25.173  0.00  0.00    -0.205 F 
ATOM     16  C   UNL     1       7.879   6.206  27.290  0.00  0.00    +0.080 A 
ATOM     17  C   UNL     1       7.187   5.414  28.190  0.00  0.00    +0.161 A 
ATOM     18  F   UNL     1       6.943   5.876  29.421  0.00  0.00    -0.202 F 
ATOM     19  C   UNL     1       6.736   4.161  27.804  0.00  0.00    +0.159 A 
ATOM     20  F   UNL     1       6.048   3.400  28.666  0.00  0.00    -0.202 F 
ATOM     21  C   UNL     1       6.975   3.684  26.513  0.00  0.00    +0.048 A 
ENDBRANCH   2  13
BRANCH   8  22
ATOM     22  C   UNL     1       7.860  -3.642  23.798  0.00  0.00    +0.002 A 
ATOM     23  C   UNL     1       7.612  -4.158  25.082  0.00  0.00    +0.037 A 
ATOM     24  C   UNL     1       6.654  -5.155  25.284  0.00  0.00    +0.088 A 
ATOM     25  C   UNL     1       5.941  -5.686  24.211  0.00  0.00    +0.027 A 
ATOM     26  C   UNL     1       6.210  -5.224  22.925  0.00  0.00    +0.002 A 
ATOM     27  C   UNL     1       7.159  -4.213  22.722  0.00  0.00    +0.010 A 
BRANCH  24  28
ATOM     28  S   UNL     1       6.272  -5.646  26.949  0.00  0.00    -0.006 S 
ATOM     29  O   UNL     1       7.521  -5.694  27.688  0.00  0.00    -0.170 OA
ATOM     30  O   UNL     1       5.412  -6.811  26.873  0.00  0.00    -0.170 OA
ATOM     31  C   UNL     1       5.314  -4.289  27.566  0.00  0.00    +0.200 C 
ENDBRANCH  24  28
ENDBRANCH   8  22
BRANCH   1  32
ATOM     32  N   UNL     1       6.795   2.562  22.308  0.00  0.00    -0.325 NA
ATOM     33  H   UNL     1       5.893   2.170  22.052  0.00  0.00    +0.119 HD
ATOM     34  H   UNL     1       6.850   3.483  21.858  0.00  0.00    +0.119 HD
ENDBRANCH   1  32
TORSDOF 4
ENDMDL
